REMARK  Name = ZINC08341414
REMARK  6 active torsions:
REMARK  status: ('A' for Active; 'I' for Inactive)
REMARK    1  A    between atoms: C_1  and  C_2
REMARK    2  A    between atoms: C_2  and  C_3
REMARK    3  A    between atoms: C_2  and  C_4
REMARK    4  A    between atoms: C_4  and  C_6
REMARK    5  A    between atoms: C_4  and  N_16
REMARK    6  A    between atoms: C_17  and  C_19
REMARK                            x       y       z     vdW  Elec       q    Type
REMARK                         _______ _______ _______ _____ _____    ______ ____
ROOT
ATOM      1  N   UNL     1      -2.442  -0.118   0.024  0.00  0.00    -0.300 N 
ATOM      2  C   UNL     1      -1.261  -0.768   0.009  0.00  0.00    +0.265 C 
ATOM      3  O   UNL     1      -1.236  -1.984   0.003  0.00  0.00    -0.268 OA
ATOM      4  H   UNL     1      -2.462   0.851   0.029  0.00  0.00    +0.150 HD
ENDROOT
BRANCH   2   5
ATOM      5  C   UNL     1       0.002  -0.004   0.002  0.00  0.00    +0.153 A 
ATOM      6  C   UNL     1       1.296  -0.705  -0.014  0.00  0.00    +0.020 A 
ATOM      7  C   UNL     1       1.402  -2.091  -0.023  0.00  0.00    +0.011 A 
ATOM      8  C   UNL     1       2.651  -2.675  -0.038  0.00  0.00    +0.001 A 
ATOM      9  C   UNL     1       3.800  -1.895  -0.046  0.00  0.00    +0.001 A 
ATOM     10  C   UNL     1       3.718  -0.518  -0.037  0.00  0.00    +0.014 A 
ATOM     11  C   UNL     1       2.466   0.089  -0.021  0.00  0.00    +0.050 A 
ATOM     12  C   UNL     1       2.287   1.548  -0.011  0.00  0.00    +0.272 A 
ATOM     13  O   UNL     1       3.249   2.294  -0.017  0.00  0.00    -0.266 OA
ATOM     14  N   UNL     1       1.032   2.041   0.003  0.00  0.00    -0.242 N 
ATOM     15  H   UNL     1       0.914   3.034   0.010  0.00  0.00    +0.192 HD
ATOM     16  N   UNL     1      -0.016   1.307   0.009  0.00  0.00    -0.166 NA
ENDBRANCH   2   5
BRANCH   1  17
ATOM     17  C   UNL     1      -3.695  -0.877   0.031  0.00  0.00    +0.142 C 
BRANCH  17  18
ATOM     18  C   UNL     1      -4.786  -0.038   0.646  0.00  0.00    +0.129 A 
ATOM     19  N   UNL     1      -5.431  -0.329   1.808  0.00  0.00    -0.340 N 
ATOM     20  H   UNL     1      -5.269  -1.124   2.393  0.00  0.00    +0.167 HD
ATOM     21  C   UNL     1      -6.351   0.676   2.029  0.00  0.00    +0.066 A 
ATOM     22  C   UNL     1      -7.283   0.931   3.026  0.00  0.00    +0.028 A 
ATOM     23  C   UNL     1      -8.077   2.055   2.947  0.00  0.00    +0.002 A 
ATOM     24  C   UNL     1      -7.952   2.931   1.877  0.00  0.00    +0.002 A 
ATOM     25  C   UNL     1      -7.041   2.695   0.887  0.00  0.00    +0.030 A 
ATOM     26  C   UNL     1      -6.225   1.563   0.947  0.00  0.00    +0.089 A 
ATOM     27  N   UNL     1      -5.252   1.067   0.141  0.00  0.00    -0.231 NA
ENDBRANCH  17  18
BRANCH  17  29
ATOM     28  C   UNL     1      -4.141   0.030  -2.254  0.00  0.00    +0.009 C 
ATOM     29  C   UNL     1      -4.080  -1.241  -1.404  0.00  0.00    +0.011 C 
ATOM     30  C   UNL     1      -3.034  -2.193  -1.986  0.00  0.00    +0.009 C 
ENDBRANCH  17  29
ENDBRANCH   1  17
TORSDOF 4
