REMARK  Name = ZINC60207717
REMARK  10 active torsions:
REMARK  status: ('A' for Active; 'I' for Inactive)
REMARK    1  A    between atoms: C_1  and  C_2
REMARK    2  A    between atoms: C_5  and  S_22
REMARK    3  A    between atoms: C_7  and  C_8
REMARK    4  A    between atoms: N_10  and  C_11
REMARK    5  A    between atoms: C_11  and  C_12
REMARK    6  A    between atoms: N_17  and  C_19
REMARK    7  A    between atoms: C_19  and  C_20
REMARK    8  A    between atoms: C_19  and  C_21
REMARK    9  A    between atoms: S_22  and  N_25
REMARK   10  A    between atoms: N_25  and  C_26
REMARK                            x       y       z     vdW  Elec       q    Type
REMARK                         _______ _______ _______ _____ _____    ______ ____
ROOT
ATOM      1  C   UNL     1      -0.717   1.326  -0.729  0.00  0.00    +0.044 C 
ATOM      2  C   UNL     1      -0.359  -0.113  -0.459  0.00  0.00    -0.038 A 
ATOM      3  C   UNL     1      -0.205  -0.996  -1.508  0.00  0.00    +0.006 A 
ATOM      4  C   UNL     1       0.123  -2.317  -1.262  0.00  0.00    +0.029 A 
ATOM      5  C   UNL     1       0.301  -2.762   0.036  0.00  0.00    +0.109 A 
ATOM      6  C   UNL     1       0.151  -1.889   1.094  0.00  0.00    +0.042 A 
ATOM      7  C   UNL     1      -0.176  -0.554   0.852  0.00  0.00    +0.041 A 
ENDROOT
BRANCH   7   8
ATOM      8  C   UNL     1      -0.333   0.388   1.981  0.00  0.00    +0.244 C 
ATOM      9  O   UNL     1      -0.506   1.572   1.765  0.00  0.00    -0.270 OA
ATOM     10  N   UNL     1      -0.283  -0.066   3.249  0.00  0.00    -0.311 N 
ATOM     11  H   UNL     1      -0.145  -1.010   3.421  0.00  0.00    +0.149 HD
BRANCH  10  12
ATOM     12  C   UNL     1      -0.439   0.868   4.367  0.00  0.00    +0.106 C 
BRANCH  12  13
ATOM     13  C   UNL     1      -0.343   0.102   5.688  0.00  0.00    -0.011 C 
ATOM     14  C   UNL     1       1.065  -0.480   5.841  0.00  0.00    +0.001 C 
ATOM     15  C   UNL     1       1.173  -1.177   7.201  0.00  0.00    -0.018 C 
ATOM     16  C   UNL     1       0.835  -0.178   8.309  0.00  0.00    -0.078 C 
ATOM     17  N   UNL     1      -0.533   0.321   8.121  0.00  0.00    +0.381 N 
ATOM     18  C   UNL     1      -0.627   1.053   6.853  0.00  0.00    -0.074 C 
ATOM     19  H   UNL     1      -1.175  -0.457   8.107  0.00  0.00    -0.081 HD
BRANCH  17  20
ATOM     20  C   UNL     1      -0.881   1.220   9.230  0.00  0.00    -0.075 C 
ATOM     21  C   UNL     1      -2.306   1.741   9.036  0.00  0.00    -0.014 C 
ATOM     22  C   UNL     1      -0.793   0.456  10.553  0.00  0.00    -0.014 C 
ENDBRANCH  17  20
ENDBRANCH  12  13
ENDBRANCH  10  12
ENDBRANCH   7   8
BRANCH   5  23
ATOM     23  S   UNL     1       0.718  -4.447   0.339  0.00  0.00    +0.072 S 
ATOM     24  O   UNL     1       0.178  -4.777   1.611  0.00  0.00    -0.150 OA
ATOM     25  O   UNL     1       0.384  -5.166  -0.841  0.00  0.00    -0.150 OA
BRANCH  23  26
ATOM     26  N   UNL     1       2.365  -4.524   0.489  0.00  0.00    -0.216 N 
ATOM     27  H   UNL     1       2.763  -4.830   1.320  0.00  0.00    +0.174 HD
BRANCH  26  28
ATOM     28  C   UNL     1       3.184  -4.147  -0.580  0.00  0.00    +0.048 A 
ATOM     29  C   UNL     1       2.886  -4.573  -1.867  0.00  0.00    +0.027 A 
ATOM     30  C   UNL     1       3.695  -4.200  -2.922  0.00  0.00    +0.040 A 
ATOM     31  C   UNL     1       4.803  -3.401  -2.697  0.00  0.00    +0.124 A 
ATOM     32  C   UNL     1       5.102  -2.974  -1.414  0.00  0.00    +0.040 A 
ATOM     33  C   UNL     1       4.293  -3.341  -0.357  0.00  0.00    +0.027 A 
ATOM     34  F   UNL     1       5.594  -3.037  -3.730  0.00  0.00    -0.205 F 
ENDBRANCH  26  28
ENDBRANCH  23  26
ENDBRANCH   5  23
TORSDOF 7
