REMARK  Name = ZINC12215965
REMARK  8 active torsions:
REMARK  status: ('A' for Active; 'I' for Inactive)
REMARK    1  A    between atoms: C_3  and  C_6
REMARK    2  A    between atoms: C_6  and  N_7
REMARK    3  A    between atoms: C_11  and  S_12
REMARK    4  A    between atoms: S_12  and  C_13
REMARK    5  A    between atoms: C_13  and  C_14
REMARK    6  A    between atoms: N_16  and  C_17
REMARK    7  A    between atoms: C_17  and  C_18
REMARK    8  A    between atoms: N_20  and  C_21
REMARK                            x       y       z     vdW  Elec       q    Type
REMARK                         _______ _______ _______ _____ _____    ______ ____
ROOT
ATOM      1  S   UNL     1       7.467   2.466  -0.343  0.00  0.00    -0.077 S 
ENDROOT
BRANCH   1   6
ATOM      2  N   UNL     1       9.868   3.847  -0.707  0.00  0.00    -0.283 N 
ATOM      3  C   UNL     1      10.289   5.117  -0.979  0.00  0.00    +0.221 A 
ATOM      4  N   UNL     1       9.231   5.882  -1.085  0.00  0.00    -0.112 NA
ATOM      5  N   UNL     1       8.098   5.083  -0.882  0.00  0.00    -0.121 NA
ATOM      6  C   UNL     1       8.502   3.857  -0.658  0.00  0.00    +0.194 A 
ATOM      7  N   UNL     1      11.610   5.528  -1.113  0.00  0.00    -0.300 N 
ATOM      8  C   UNL     1      12.001   6.412  -0.007  0.00  0.00    +0.108 C 
ATOM      9  C   UNL     1      13.495   6.726  -0.108  0.00  0.00    +0.019 C 
ATOM     10  C   UNL     1      13.780   7.402  -1.452  0.00  0.00    +0.003 C 
ATOM     11  C   UNL     1      13.319   6.482  -2.586  0.00  0.00    +0.019 C 
ATOM     12  C   UNL     1      11.830   6.175  -2.413  0.00  0.00    +0.108 C 
BRANCH   2  13
ATOM     13  C   UNL     1      10.728   2.678  -0.506  0.00  0.00    +0.201 C 
BRANCH  13  16
ATOM     14  C   UNL     1      11.658   1.283  -3.788  0.00  0.00    +0.041 A 
ATOM     15  C   UNL     1      11.870   2.187  -2.721  0.00  0.00    +0.046 A 
ATOM     16  C   UNL     1      10.903   1.953  -1.816  0.00  0.00    +0.125 A 
ATOM     17  O   UNL     1      10.117   0.967  -2.278  0.00  0.00    -0.466 OA
ATOM     18  C   UNL     1      10.571   0.557  -3.474  0.00  0.00    +0.195 A 
ENDBRANCH  13  16
ENDBRANCH   2  13
ENDBRANCH   1   6
BRANCH   1  19
ATOM     19  C   UNL     1       5.786   3.146  -0.407  0.00  0.00    +0.173 C 
BRANCH  19  20
ATOM     20  C   UNL     1       4.789   2.046  -0.150  0.00  0.00    +0.224 C 
ATOM     21  O   UNL     1       5.174   0.915   0.056  0.00  0.00    -0.275 OA
ATOM     22  N   UNL     1       3.469   2.320  -0.150  0.00  0.00    -0.306 N 
ATOM     23  H   UNL     1       3.161   3.224  -0.315  0.00  0.00    +0.149 HD
BRANCH  22  24
ATOM     24  C   UNL     1       2.499   1.250   0.100  0.00  0.00    +0.200 C 
BRANCH  24  25
ATOM     25  C   UNL     1       1.103   1.815   0.046  0.00  0.00    +0.234 C 
ATOM     26  O   UNL     1       0.935   2.995  -0.178  0.00  0.00    -0.274 OA
ATOM     27  N   UNL     1       0.042   1.010   0.248  0.00  0.00    -0.284 N 
ATOM     28  H   UNL     1       0.172   0.054   0.353  0.00  0.00    +0.155 HD
BRANCH  27  29
ATOM     29  C   UNL     1      -1.248   1.551   0.301  0.00  0.00    +0.034 A 
ATOM     30  C   UNL     1      -1.448   2.821   0.827  0.00  0.00    +0.026 A 
ATOM     31  C   UNL     1      -2.721   3.355   0.874  0.00  0.00    +0.040 A 
ATOM     32  C   UNL     1      -3.798   2.621   0.406  0.00  0.00    +0.124 A 
ATOM     33  C   UNL     1      -3.602   1.353  -0.114  0.00  0.00    +0.040 A 
ATOM     34  C   UNL     1      -2.330   0.817  -0.167  0.00  0.00    +0.026 A 
ATOM     35  F   UNL     1      -5.043   3.144   0.457  0.00  0.00    -0.205 F 
ENDBRANCH  27  29
ENDBRANCH  24  25
ENDBRANCH  22  24
ENDBRANCH  19  20
ENDBRANCH   1  19
TORSDOF 8
