REMARK  Name = ZINC35749834
REMARK  7 active torsions:
REMARK  status: ('A' for Active; 'I' for Inactive)
REMARK    1  A    between atoms: C_6  and  S_7
REMARK    2  A    between atoms: S_7  and  N_10
REMARK    3  A    between atoms: C_13  and  C_16
REMARK    4  A    between atoms: C_16  and  C_18
REMARK    5  A    between atoms: C_16  and  N_24
REMARK    6  A    between atoms: N_20  and  C_21
REMARK    7  A    between atoms: C_25  and  C_27
REMARK                            x       y       z     vdW  Elec       q    Type
REMARK                         _______ _______ _______ _____ _____    ______ ____
ROOT
ATOM      1  C   UNL     1      -4.723  -2.756  -4.364  0.00  0.00    +0.162 C 
ENDROOT
BRANCH   1   5
ATOM      2  N   UNL     1      -2.353   0.752  -3.936  0.00  0.00    -0.177 NA
ATOM      3  C   UNL     1      -1.958  -0.158  -5.020  0.00  0.00    +0.110 C 
ATOM      4  C   UNL     1      -3.132  -1.091  -5.333  0.00  0.00    +0.023 C 
ATOM      5  C   UNL     1      -3.573  -1.797  -4.049  0.00  0.00    +0.021 C 
ATOM      6  C   UNL     1      -4.041  -0.757  -3.028  0.00  0.00    +0.023 C 
ATOM      7  C   UNL     1      -2.872   0.179  -2.687  0.00  0.00    +0.110 C 
BRANCH   2   8
ATOM      8  S   UNL     1      -2.209   2.392  -4.116  0.00  0.00    +0.061 S 
ATOM      9  O   UNL     1      -3.133   2.983  -3.213  0.00  0.00    -0.153 OA
ATOM     10  O   UNL     1      -2.238   2.651  -5.513  0.00  0.00    -0.153 OA
BRANCH   8  16
ATOM     11  C   UNL     1       0.462   2.854  -4.440  0.00  0.00    +0.030 A 
ATOM     12  C   UNL     1       1.724   3.205  -4.000  0.00  0.00    +0.022 A 
ATOM     13  C   UNL     1       1.926   3.540  -2.673  0.00  0.00    +0.041 A 
ATOM     14  C   UNL     1       0.863   3.524  -1.787  0.00  0.00    +0.022 A 
ATOM     15  C   UNL     1      -0.399   3.174  -2.228  0.00  0.00    +0.030 A 
ATOM     16  C   UNL     1      -0.600   2.839  -3.555  0.00  0.00    +0.106 A 
ATOM     17 CL   UNL     1       3.511   3.980  -2.120  0.00  0.00    -0.084 Cl
ENDBRANCH   8  16
ENDBRANCH   2   8
ENDBRANCH   1   5
BRANCH   1  18
ATOM     18  C   UNL     1      -4.245  -3.816  -5.322  0.00  0.00    +0.234 C 
ATOM     19  O   UNL     1      -4.479  -3.713  -6.508  0.00  0.00    -0.274 OA
ATOM     20  N   UNL     1      -3.557  -4.879  -4.862  0.00  0.00    -0.311 N 
ATOM     21  H   UNL     1      -3.431  -5.000  -3.907  0.00  0.00    +0.149 HD
BRANCH  20  22
ATOM     22  C   UNL     1      -2.998  -5.854  -5.802  0.00  0.00    +0.073 C 
ATOM     23  C   UNL     1      -3.159  -7.337  -5.462  0.00  0.00    +0.024 C 
ATOM     24  C   UNL     1      -1.788  -6.668  -5.340  0.00  0.00    +0.024 C 
ENDBRANCH  20  22
ENDBRANCH   1  18
BRANCH   1  25
ATOM     25  N   UNL     1      -5.828  -2.010  -4.973  0.00  0.00    -0.300 N 
ATOM     26  C   UNL     1      -7.088  -2.478  -4.881  0.00  0.00    +0.245 C 
ATOM     27  O   UNL     1      -7.309  -3.520  -4.293  0.00  0.00    -0.270 OA
ATOM     28  H   UNL     1      -5.652  -1.179  -5.442  0.00  0.00    +0.150 HD
BRANCH  26  29
ATOM     29  C   UNL     1      -8.201  -1.727  -5.494  0.00  0.00    +0.040 A 
ATOM     30  C   UNL     1      -7.949  -0.534  -6.175  0.00  0.00    +0.017 A 
ATOM     31  C   UNL     1      -8.989   0.166  -6.748  0.00  0.00    +0.050 A 
ATOM     32  C   UNL     1     -10.289  -0.311  -6.651  0.00  0.00    +0.166 A 
ATOM     33  C   UNL     1     -10.548  -1.503  -5.971  0.00  0.00    +0.167 A 
ATOM     34  C   UNL     1      -9.508  -2.211  -5.400  0.00  0.00    +0.062 A 
ATOM     35  O   UNL     1     -11.890  -1.749  -6.019  0.00  0.00    -0.453 OA
ATOM     36  C   UNL     1     -12.497  -0.494  -6.378  0.00  0.00    +0.466 C 
ATOM     37  O   UNL     1     -11.469   0.185  -7.122  0.00  0.00    -0.453 OA
ENDBRANCH  26  29
ENDBRANCH   1  25
TORSDOF 7
