REMARK  Name = ZINC25443524
REMARK  11 active torsions:
REMARK  status: ('A' for Active; 'I' for Inactive)
REMARK    1  A    between atoms: C_1  and  C_2
REMARK    2  A    between atoms: C_4  and  C_14
REMARK    3  A    between atoms: C_6  and  S_9
REMARK    4  A    between atoms: C_7  and  C_8
REMARK    5  A    between atoms: S_9  and  N_12
REMARK    6  A    between atoms: N_12  and  C_13
REMARK    7  A    between atoms: N_16  and  C_17
REMARK    8  A    between atoms: C_17  and  C_18
REMARK    9  A    between atoms: C_18  and  N_25
REMARK   10  A    between atoms: N_25  and  C_26
REMARK   11  A    between atoms: N_25  and  C_27
REMARK                            x       y       z     vdW  Elec       q    Type
REMARK                         _______ _______ _______ _____ _____    ______ ____
ROOT
ATOM      1  C   UNL     1       1.769   4.149   0.696  0.00  0.00    +0.244 C 
ATOM      2  O   UNL     1       0.699   4.695   0.508  0.00  0.00    -0.270 OA
ATOM      3  N   UNL     1       2.916   4.827   0.497  0.00  0.00    -0.313 N 
ATOM      4  H   UNL     1       3.884   4.333   0.667  0.00  0.00    +0.149 HD
ENDROOT
BRANCH   1   8
ATOM      5  C   UNL     1       4.393   0.112   2.007  0.00  0.00    +0.044 C 
ATOM      6  C   UNL     1       3.070   0.794   1.773  0.00  0.00    -0.045 A 
ATOM      7  C   UNL     1       3.037   2.110   1.357  0.00  0.00    +0.016 A 
ATOM      8  C   UNL     1       1.811   2.740   1.141  0.00  0.00    +0.039 A 
ATOM      9  C   UNL     1       0.624   2.034   1.347  0.00  0.00    +0.041 A 
ATOM     10  C   UNL     1       0.671   0.719   1.763  0.00  0.00    +0.109 A 
ATOM     11  C   UNL     1       1.890   0.100   1.975  0.00  0.00    -0.021 A 
ATOM     12  C   UNL     1       1.933  -1.336   2.430  0.00  0.00    +0.046 C 
BRANCH  10  13
ATOM     13  S   UNL     1      -0.826  -0.174   2.023  0.00  0.00    +0.058 S 
ATOM     14  O   UNL     1      -1.889   0.737   1.782  0.00  0.00    -0.153 OA
ATOM     15  O   UNL     1      -0.697  -1.398   1.314  0.00  0.00    -0.153 OA
BRANCH  13  16
ATOM     16  N   UNL     1      -0.890  -0.563   3.631  0.00  0.00    -0.193 NA
ATOM     17  C   UNL     1      -0.992   0.497   4.638  0.00  0.00    +0.127 C 
ATOM     18  H   UNL     1      -0.692  -1.599   3.942  0.00  0.00    +0.148 HD
ENDBRANCH  13  16
ENDBRANCH  10  13
ENDBRANCH   1   8
BRANCH   3  19
ATOM     19  C   UNL     1       2.874   6.224   0.056  0.00  0.00    +0.092 C 
BRANCH  19  20
ATOM     20  C   UNL     1       4.301   6.745  -0.125  0.00  0.00    -0.050 C 
ATOM     21  C   UNL     1       4.373   8.184   0.306  0.00  0.00    -0.010 C 
ATOM     22  C   UNL     1       3.012   8.901   0.188  0.00  0.00    -0.001 C 
ATOM     23  C   UNL     1       2.251   8.536  -1.101  0.00  0.00    -0.000 C 
ATOM     24  C   UNL     1       3.151   8.477  -2.305  0.00  0.00    -0.000 C 
ATOM     25  C   UNL     1       3.610   7.018  -2.503  0.00  0.00    -0.001 C 
ATOM     26  C   UNL     1       4.701   6.653  -1.612  0.00  0.00    -0.010 C 
BRANCH  20  27
ATOM     27  N   UNL     1       5.226   5.941   0.685  0.00  0.00    +0.381 N 
ATOM     28  C   UNL     1       6.618   6.356   0.463  0.00  0.00    -0.096 C 
ATOM     29  C   UNL     1       4.877   6.012   2.110  0.00  0.00    -0.096 C 
ATOM     30  H   UNL     1       5.131   4.892   0.366  0.00  0.00    -0.082 HD
ENDBRANCH  20  27
ENDBRANCH  19  20
ENDBRANCH   3  19
TORSDOF 6
