REMARK  Name = ZINC01225206
REMARK  8 active torsions:
REMARK  status: ('A' for Active; 'I' for Inactive)
REMARK    1  A    between atoms: C_1  and  C_2
REMARK    2  A    between atoms: C_2  and  C_3
REMARK    3  A    between atoms: C_3  and  C_5
REMARK    4  A    between atoms: C_3  and  O_6
REMARK    5  A    between atoms: O_6  and  C_7
REMARK    6  A    between atoms: C_8  and  N_17
REMARK    7  A    between atoms: N_17  and  S_18
REMARK    8  A    between atoms: S_18  and  C_21
REMARK                            x       y       z     vdW  Elec       q    Type
REMARK                         _______ _______ _______ _____ _____    ______ ____
ROOT
ATOM      1  C   UNL     1      -3.407   0.022   1.210  0.00  0.00    +0.260 A 
ATOM      2  C   UNL     1      -4.092   0.389   2.392  0.00  0.00    +0.225 A 
ATOM      3  N   UNL     1      -5.395   0.580   2.376  0.00  0.00    -0.223 NA
ATOM      4  C   UNL     1      -6.076   0.426   1.231  0.00  0.00    +0.092 A 
ATOM      5  C   UNL     1      -7.466   0.625   1.187  0.00  0.00    +0.030 A 
ATOM      6  C   UNL     1      -8.134   0.463   0.011  0.00  0.00    +0.002 A 
ATOM      7  C   UNL     1      -7.459   0.102  -1.152  0.00  0.00    +0.002 A 
ATOM      8  C   UNL     1      -6.112  -0.099  -1.145  0.00  0.00    +0.030 A 
ATOM      9  C   UNL     1      -5.390   0.060   0.049  0.00  0.00    +0.093 A 
ATOM     10  N   UNL     1      -4.062  -0.127   0.080  0.00  0.00    -0.208 NA
ENDROOT
BRANCH   1  11
ATOM     11  O   UNL     1      -2.066  -0.171   1.242  0.00  0.00    -0.471 OA
BRANCH  11  12
ATOM     12  C   UNL     1      -1.433  -0.534   0.013  0.00  0.00    +0.172 C 
ATOM     13  C   UNL     1      -1.416  -2.058  -0.121  0.00  0.00    +0.052 C 
BRANCH  12  15
ATOM     14  C   UNL     1      -0.019   1.526   0.010  0.00  0.00    +0.007 C 
ATOM     15  C   UNL     1       0.002  -0.004   0.002  0.00  0.00    +0.041 C 
ENDBRANCH  12  15
ENDBRANCH  11  12
ENDBRANCH   1  11
BRANCH   2  16
ATOM     16  N   UNL     1      -3.387   0.547   3.576  0.00  0.00    -0.072 NA
BRANCH  16  17
ATOM     17  S   UNL     1      -4.183   0.976   4.963  0.00  0.00    +0.093 S 
ATOM     18  O   UNL     1      -4.675   2.293   4.758  0.00  0.00    -0.148 OA
ATOM     19  O   UNL     1      -5.035  -0.112   5.295  0.00  0.00    -0.148 OA
BRANCH  17  20
ATOM     20  C   UNL     1      -2.978   1.081   6.244  0.00  0.00    +0.110 A 
ATOM     21  C   UNL     1      -2.675  -0.035   7.001  0.00  0.00    +0.029 A 
ATOM     22  C   UNL     1      -1.730   0.047   8.007  0.00  0.00    +0.002 A 
ATOM     23  C   UNL     1      -1.087   1.246   8.255  0.00  0.00    +0.000 A 
ATOM     24  C   UNL     1      -1.390   2.362   7.497  0.00  0.00    +0.002 A 
ATOM     25  C   UNL     1      -2.332   2.278   6.489  0.00  0.00    +0.029 A 
ENDBRANCH  17  20
ENDBRANCH  16  17
ENDBRANCH   2  16
TORSDOF 6
