REMARK  Name = ZINC00718020
REMARK  4 active torsions:
REMARK  status: ('A' for Active; 'I' for Inactive)
REMARK    1  A    between atoms: C_3  and  C_6
REMARK    2  A    between atoms: C_11  and  C_19
REMARK    3  A    between atoms: C_13  and  C_17
REMARK    4  A    between atoms: C_14  and  N_16
REMARK                            x       y       z     vdW  Elec       q    Type
REMARK                         _______ _______ _______ _____ _____    ______ ____
ROOT
ATOM      1  C   UNL     1       3.243   4.374  -3.654  0.00  0.00    +0.070 C 
ATOM      2  C   UNL     1       3.762   5.120  -2.423  0.00  0.00    +0.086 C 
ATOM      3  C   UNL     1       3.087   4.584  -1.182  0.00  0.00    +0.115 C 
ATOM      4  C   UNL     1       1.829   4.111  -1.235  0.00  0.00    +0.046 C 
ATOM      5  C   UNL     1       1.149   3.594   0.010  0.00  0.00    +0.101 C 
ATOM      6  C   UNL     1       1.863   4.096   1.234  0.00  0.00    +0.098 C 
ATOM      7  C   UNL     1       3.130   4.569   1.144  0.00  0.00    +0.198 C 
ATOM      8  O   UNL     1       3.782   4.600  -0.029  0.00  0.00    -0.445 OA
ATOM      9  C   UNL     1       1.109   4.079  -2.445  0.00  0.00    +0.164 C 
ATOM     10  O   UNL     1      -0.030   3.657  -2.450  0.00  0.00    -0.292 OA
ATOM     11  C   UNL     1       1.724   4.560  -3.731  0.00  0.00    +0.091 C 
ENDROOT
BRANCH   5  12
ATOM     12  C   UNL     1       1.171   2.087   0.002  0.00  0.00    -0.032 A 
ATOM     13  C   UNL     1       2.378   1.414  -0.013  0.00  0.00    +0.007 A 
ATOM     14  C   UNL     1       2.400   0.032  -0.021  0.00  0.00    +0.041 A 
ATOM     15  C   UNL     1       1.213  -0.679  -0.013  0.00  0.00    +0.158 A 
ATOM     16  C   UNL     1       0.002  -0.004   0.002  0.00  0.00    +0.159 A 
ATOM     17  C   UNL     1      -0.017   1.380   0.010  0.00  0.00    +0.046 A 
ATOM     18  F   UNL     1      -1.158  -0.696   0.010  0.00  0.00    -0.202 F 
ATOM     19  F   UNL     1       1.234  -2.030  -0.021  0.00  0.00    -0.202 F 
ENDBRANCH   5  12
BRANCH   1  22
ATOM     20  C   UNL     1       5.029   5.159  -6.780  0.00  0.00    +0.041 A 
ATOM     21  C   UNL     1       4.631   4.246  -5.777  0.00  0.00    +0.045 A 
ATOM     22  C   UNL     1       3.886   4.936  -4.895  0.00  0.00    +0.109 A 
ATOM     23  O   UNL     1       3.808   6.211  -5.312  0.00  0.00    -0.468 OA
ATOM     24  C   UNL     1       4.504   6.353  -6.452  0.00  0.00    +0.195 A 
ENDBRANCH   1  22
BRANCH   7  25
ATOM     25  N   UNL     1       3.759   5.026   2.275  0.00  0.00    -0.328 N 
ATOM     26  H   UNL     1       3.296   5.009   3.128  0.00  0.00    +0.145 HD
ATOM     27  H   UNL     1       4.665   5.367   2.222  0.00  0.00    +0.145 HD
ENDBRANCH   7  25
BRANCH   6  28
ATOM     28  C   UNL     1       1.200   4.075   2.503  0.00  0.00    +0.101 C 
ATOM     29  N   UNL     1       0.674   4.057   3.510  0.00  0.00    -0.191 NA
ENDBRANCH   6  28
TORSDOF 4
