REMARK  Name = ZINC58219012
REMARK  9 active torsions:
REMARK  status: ('A' for Active; 'I' for Inactive)
REMARK    1  A    between atoms: C_1  and  C_2
REMARK    2  A    between atoms: C_5  and  C_34
REMARK    3  A    between atoms: C_6  and  N_8
REMARK    4  A    between atoms: C_9  and  C_11
REMARK    5  A    between atoms: C_11  and  C_13
REMARK    6  A    between atoms: C_11  and  N_19
REMARK    7  A    between atoms: N_22  and  C_25
REMARK    8  A    between atoms: C_28  and  C_31
REMARK    9  A    between atoms: C_31  and  C_33
REMARK                            x       y       z     vdW  Elec       q    Type
REMARK                         _______ _______ _______ _____ _____    ______ ____
ROOT
ATOM      1  C   UNL     1       0.304  -2.915   4.870  0.00  0.00    +0.174 C 
ENDROOT
BRANCH   1   2
ATOM      2  C   UNL     1       1.588  -3.698   4.769  0.00  0.00    -0.021 A 
ATOM      3  C   UNL     1       2.802  -3.056   4.921  0.00  0.00    +0.005 A 
ATOM      4  C   UNL     1       3.980  -3.774   4.829  0.00  0.00    +0.000 A 
ATOM      5  C   UNL     1       3.943  -5.134   4.584  0.00  0.00    +0.000 A 
ATOM      6  C   UNL     1       2.728  -5.776   4.432  0.00  0.00    +0.000 A 
ATOM      7  C   UNL     1       1.550  -5.059   4.529  0.00  0.00    +0.005 A 
ENDBRANCH   1   2
BRANCH   1   8
ATOM      8  N   UNL     1       0.355  -2.040   6.048  0.00  0.00    -0.285 NA
ATOM      9  C   UNL     1      -0.884  -1.262   6.181  0.00  0.00    +0.104 C 
ATOM     10  C   UNL     1      -0.721  -0.237   7.308  0.00  0.00    +0.120 C 
ATOM     11  N   UNL     1      -0.298  -0.944   8.526  0.00  0.00    -0.327 N 
ATOM     12  C   UNL     1       0.857  -1.851   8.438  0.00  0.00    +0.120 C 
ATOM     13  C   UNL     1       0.632  -2.813   7.266  0.00  0.00    +0.104 C 
BRANCH  11  14
ATOM     14  C   UNL     1      -0.970  -0.760   9.727  0.00  0.00    +0.030 A 
ATOM     15  C   UNL     1      -0.497  -1.369  10.888  0.00  0.00    +0.024 A 
ATOM     16  C   UNL     1      -1.155  -1.191  12.071  0.00  0.00    +0.013 A 
ATOM     17  C   UNL     1      -2.307  -0.395  12.117  0.00  0.00    +0.017 A 
ATOM     18  C   UNL     1      -2.779   0.215  10.947  0.00  0.00    +0.013 A 
ATOM     19  C   UNL     1      -2.112   0.036   9.770  0.00  0.00    +0.024 A 
BRANCH  17  20
ATOM     20  C   UNL     1      -3.018  -0.202  13.386  0.00  0.00    +0.160 C 
ATOM     21  O   UNL     1      -2.608  -0.731  14.398  0.00  0.00    -0.292 OA
ATOM     22  C   UNL     1      -4.257   0.655  13.433  0.00  0.00    +0.091 C 
ENDBRANCH  17  20
ENDBRANCH  11  14
ENDBRANCH   1   8
BRANCH   1  24
ATOM     23  N   UNL     1      -0.488  -2.596   2.548  0.00  0.00    -0.284 N 
ATOM     24  C   UNL     1       0.127  -2.078   3.630  0.00  0.00    +0.239 C 
ATOM     25  O   UNL     1       0.539  -0.937   3.604  0.00  0.00    -0.273 OA
ATOM     26  H   UNL     1      -0.881  -3.482   2.592  0.00  0.00    +0.155 HD
BRANCH  23  32
ATOM     27  C   UNL     1       1.183   1.082  -0.253  0.00  0.00    +0.044 C 
ATOM     28  C   UNL     1       0.238  -0.068  -0.021  0.00  0.00    -0.049 A 
ATOM     29  C   UNL     1      -0.703  -0.393  -0.981  0.00  0.00    +0.004 A 
ATOM     30  C   UNL     1      -1.572  -1.448  -0.772  0.00  0.00    +0.005 A 
ATOM     31  C   UNL     1      -1.503  -2.180   0.397  0.00  0.00    -0.029 A 
ATOM     32  C   UNL     1      -0.560  -1.856   1.363  0.00  0.00    +0.037 A 
ATOM     33  C   UNL     1       0.315  -0.799   1.147  0.00  0.00    +0.027 A 
ATOM     34  C   UNL     1      -2.451  -3.329   0.624  0.00  0.00    +0.045 C 
ENDBRANCH  23  32
ENDBRANCH   1  24
TORSDOF 6
