REMARK  Name = ZINC41511500
REMARK  7 active torsions:
REMARK  status: ('A' for Active; 'I' for Inactive)
REMARK    1  A    between atoms: C_1  and  C_2
REMARK    2  A    between atoms: C_4  and  O_34
REMARK    3  A    between atoms: C_5  and  C_25
REMARK    4  A    between atoms: C_11  and  C_12
REMARK    5  A    between atoms: C_15  and  C_18
REMARK    6  A    between atoms: C_25  and  N_26
REMARK    7  A    between atoms: C_31  and  C_33
REMARK                            x       y       z     vdW  Elec       q    Type
REMARK                         _______ _______ _______ _____ _____    ______ ____
ROOT
ATOM      1  C   UNL     1      -0.084   1.510   0.017  0.00  0.00    +0.045 C 
ATOM      2  C   UNL     1      -0.074   0.003   0.006  0.00  0.00    -0.033 A 
ATOM      3  C   UNL     1      -0.097  -0.674  -1.181  0.00  0.00    +0.050 A 
ATOM      4  C   UNL     1      -0.087  -2.066  -1.193  0.00  0.00    +0.122 A 
ATOM      5  C   UNL     1      -0.054  -2.781  -0.006  0.00  0.00    +0.020 A 
ATOM      6  C   UNL     1      -0.031  -2.109   1.209  0.00  0.00    +0.145 A 
ATOM      7  C   UNL     1      -0.036  -0.704   1.208  0.00  0.00    +0.071 A 
ATOM      8  C   UNL     1       0.000  -0.288   2.622  0.00  0.00    +0.232 C 
ATOM      9  O   UNL     1       0.003   0.847   3.066  0.00  0.00    -0.283 OA
ATOM     10  C   UNL     1       0.030  -1.550   3.377  0.00  0.00    +0.176 C 
ATOM     11  C   UNL     1       0.068  -1.676   4.728  0.00  0.00    +0.058 C 
ATOM     12  O   UNL     1       0.002  -2.564   2.481  0.00  0.00    -0.451 OA
ENDROOT
BRANCH  11  13
ATOM     13  C   UNL     1      -0.019  -3.005   5.345  0.00  0.00    -0.021 A 
ATOM     14  C   UNL     1      -0.116  -3.128   6.737  0.00  0.00    +0.008 A 
ATOM     15  C   UNL     1      -0.197  -4.366   7.308  0.00  0.00    +0.009 A 
ATOM     16  C   UNL     1      -0.183  -5.508   6.506  0.00  0.00    -0.018 A 
ATOM     17  C   UNL     1      -0.086  -5.389   5.118  0.00  0.00    +0.009 A 
ATOM     18  C   UNL     1      -0.010  -4.153   4.542  0.00  0.00    +0.008 A 
BRANCH  16  19
ATOM     19  C   UNL     1      -0.271  -6.851   7.128  0.00  0.00    -0.018 A 
ATOM     20  C   UNL     1      -0.373  -6.975   8.513  0.00  0.00    +0.008 A 
ATOM     21  C   UNL     1      -0.455  -8.227   9.087  0.00  0.00    +0.001 A 
ATOM     22  C   UNL     1      -0.435  -9.358   8.291  0.00  0.00    +0.000 A 
ATOM     23  C   UNL     1      -0.334  -9.242   6.916  0.00  0.00    +0.001 A 
ATOM     24  C   UNL     1      -0.257  -7.995   6.330  0.00  0.00    +0.008 A 
ENDBRANCH  16  19
ENDBRANCH  11  13
BRANCH   4  25
ATOM     25  O   UNL     1      -0.111  -2.728  -2.377  0.00  0.00    -0.506 OA
ATOM     26  H   UNL     1       0.766  -2.914  -2.742  0.00  0.00    +0.292 HD
ENDBRANCH   4  25
BRANCH   5  27
ATOM     27  C   UNL     1      -0.045  -4.287  -0.035  0.00  0.00    -0.035 C 
BRANCH  27  28
ATOM     28  N   UNL     1       1.343  -4.767  -0.076  0.00  0.00    +0.384 N 
ATOM     29  C   UNL     1       1.968  -4.343  -1.335  0.00  0.00    -0.078 C 
ATOM     30  C   UNL     1       3.437  -4.771  -1.348  0.00  0.00    -0.019 C 
ATOM     31  C   UNL     1       3.521  -6.295  -1.224  0.00  0.00    -0.003 C 
ATOM     32  C   UNL     1       2.801  -6.732   0.055  0.00  0.00    -0.016 C 
ATOM     33  C   UNL     1       1.355  -6.232   0.017  0.00  0.00    -0.071 C 
ATOM     34  C   UNL     1       0.632  -6.668   1.292  0.00  0.00    -0.013 C 
ATOM     35  H   UNL     1       1.856  -4.378   0.700  0.00  0.00    -0.081 HD
ENDBRANCH  27  28
ENDBRANCH   5  27
TORSDOF 5
