REMARK  Name = ZINC16951453
REMARK  9 active torsions:
REMARK  status: ('A' for Active; 'I' for Inactive)
REMARK    1  A    between atoms: C_1  and  C_2
REMARK    2  A    between atoms: C_2  and  C_3
REMARK    3  A    between atoms: C_3  and  C_4
REMARK    4  A    between atoms: C_4  and  N_20
REMARK    5  A    between atoms: C_7  and  C_18
REMARK    6  A    between atoms: C_7  and  O_19
REMARK    7  A    between atoms: C_8  and  C_11
REMARK    8  A    between atoms: C_11  and  C_17
REMARK    9  A    between atoms: N_12  and  N_13
REMARK                            x       y       z     vdW  Elec       q    Type
REMARK                         _______ _______ _______ _____ _____    ______ ____
ROOT
ATOM      1  C   UNL     1      -0.705   1.566   3.765  0.00  0.00    +0.122 C 
ATOM      2  C   UNL     1      -0.726   3.096   3.774  0.00  0.00    +0.038 C 
ATOM      3  C   UNL     1      -1.442   3.589   5.032  0.00  0.00    +0.037 C 
ATOM      4  C   UNL     1      -0.702   3.082   6.272  0.00  0.00    +0.071 C 
ATOM      5  C   UNL     1      -0.681   1.552   6.263  0.00  0.00    +0.069 C 
ATOM      6  C   UNL     1       0.035   1.059   5.005  0.00  0.00    +0.047 C 
ATOM      7  C   UNL     1      -1.418   3.576   7.531  0.00  0.00    +0.042 C 
ENDROOT
BRANCH   5   8
ATOM      8  C   UNL     1       0.048   1.053   7.484  0.00  0.00    +0.040 C 
ATOM      9  N   UNL     1       0.614   1.884   8.277  0.00  0.00    -0.188 NA
ATOM     10  C   UNL     1       0.111  -0.425   7.773  0.00  0.00    +0.063 C 
BRANCH   9  11
ATOM     11  N   UNL     1       1.291   1.420   9.412  0.00  0.00    -0.191 N 
ATOM     12  C   UNL     1       1.887   2.296  10.246  0.00  0.00    +0.317 C 
ATOM     13  O   UNL     1       2.475   1.893  11.231  0.00  0.00    -0.251 OA
ATOM     14  N   UNL     1       1.831   3.617   9.988  0.00  0.00    -0.312 N 
ATOM     15  H   UNL     1       1.331   0.469   9.597  0.00  0.00    +0.179 HD
ATOM     16  H   UNL     1       1.361   3.939   9.202  0.00  0.00    +0.147 HD
ATOM     17  H   UNL     1       2.259   4.247  10.588  0.00  0.00    +0.147 HD
ENDBRANCH   9  11
ENDBRANCH   5   8
BRANCH   1  18
ATOM     18  N   UNL     1      -2.079   1.059   3.776  0.00  0.00    +0.029 N 
ATOM     19  O   UNL     1      -2.477   0.358   2.862  0.00  0.00    -0.131 OA
ATOM     20  O   UNL     1      -2.825   1.338   4.698  0.00  0.00    -0.131 OA
ENDBRANCH   1  18
BRANCH   4  21
ATOM     21  O   UNL     1       0.639   3.577   6.262  0.00  0.00    -0.388 OA
ATOM     22  H   UNL     1       0.702   4.542   6.266  0.00  0.00    +0.210 HD
ENDBRANCH   4  21
BRANCH   1  23
ATOM     23  C   UNL     1       0.011   1.072   2.506  0.00  0.00    +0.035 C 
BRANCH  23  25
ATOM     24  C   UNL     1      -0.013   1.086   0.008  0.00  0.00    +0.004 C 
ATOM     25  C   UNL     1      -0.729   1.579   1.267  0.00  0.00    -0.001 C 
ENDBRANCH  23  25
ENDBRANCH   1  23
TORSDOF 6
