REMARK  Name = ZINC38814956
REMARK  5 active torsions:
REMARK  status: ('A' for Active; 'I' for Inactive)
REMARK    1  A    between atoms: C_3  and  C_10
REMARK    2  A    between atoms: C_5  and  N_7
REMARK    3  A    between atoms: C_12  and  C_16
REMARK    4  A    between atoms: N_18  and  N_19
REMARK    5  A    between atoms: C_20  and  C_21
REMARK                            x       y       z     vdW  Elec       q    Type
REMARK                         _______ _______ _______ _____ _____    ______ ____
ROOT
ATOM      1  C   UNL     1       3.660   2.164  -0.022  0.00  0.00    +0.092 C 
ATOM      2  C   UNL     1       3.757   3.507  -0.011  0.00  0.00    +0.041 C 
ATOM      3  C   UNL     1       5.253   3.764  -0.026  0.00  0.00    +0.240 C 
ATOM      4  N   UNL     1       5.826   2.408  -0.045  0.00  0.00    -0.170 NA
ATOM      5  N   UNL     1       4.896   1.599  -0.036  0.00  0.00    -0.153 NA
ENDROOT
BRANCH   1   8
ATOM      6  C   UNL     1      -0.017   1.379   0.010  0.00  0.00    +0.003 A 
ATOM      7  C   UNL     1       1.168   2.088   0.002  0.00  0.00    +0.010 A 
ATOM      8  C   UNL     1       2.384   1.407  -0.013  0.00  0.00    +0.004 A 
ATOM      9  C   UNL     1       2.397   0.014  -0.021  0.00  0.00    +0.042 A 
ATOM     10  C   UNL     1       1.206  -0.685  -0.013  0.00  0.00    +0.127 A 
ATOM     11  C   UNL     1       0.002  -0.004   0.002  0.00  0.00    +0.033 A 
BRANCH  10  12
ATOM     12  N   UNL     1       1.219  -2.165  -0.022  0.00  0.00    +0.056 N 
ATOM     13  O   UNL     1       2.271  -2.761  -0.035  0.00  0.00    -0.126 OA
ATOM     14  O   UNL     1       0.177  -2.778  -0.015  0.00  0.00    -0.126 OA
ENDBRANCH  10  12
ENDBRANCH   1   8
BRANCH   3  15
ATOM     15  C   UNL     1       5.679   4.508   1.214  0.00  0.00    +0.263 C 
ATOM     16  O   UNL     1       6.182   3.906   2.140  0.00  0.00    -0.271 OA
ATOM     17  N   UNL     1       5.500   5.841   1.295  0.00  0.00    -0.205 N 
ATOM     18  H   UNL     1       5.098   6.322   0.555  0.00  0.00    +0.177 HD
BRANCH  17  19
ATOM     19  N   UNL     1       5.895   6.532   2.447  0.00  0.00    -0.187 NA
ATOM     20  C   UNL     1       5.723   7.819   2.525  0.00  0.00    +0.145 C 
BRANCH  20  21
ATOM     21  C   UNL     1       6.136   8.543   3.732  0.00  0.00    +0.032 A 
ATOM     22  C   UNL     1       6.038   9.894   4.016  0.00  0.00    +0.017 A 
ATOM     23  C   UNL     1       6.501  10.341   5.231  0.00  0.00    +0.008 A 
ATOM     24  C   UNL     1       7.036   9.452   6.108  0.00  0.00    +0.046 A 
ATOM     25  S   UNL     1       6.891   7.910   5.221  0.00  0.00    -0.096 S 
ENDBRANCH  20  21
ENDBRANCH  17  19
ENDBRANCH   3  15
TORSDOF 5
