REMARK  Name = ZINC40820078
REMARK  4 active torsions:
REMARK  status: ('A' for Active; 'I' for Inactive)
REMARK    1  A    between atoms: C_1  and  C_2
REMARK    2  A    between atoms: C_5  and  O_26
REMARK    3  A    between atoms: C_6  and  C_8
REMARK    4  A    between atoms: C_14  and  C_16
REMARK                            x       y       z     vdW  Elec       q    Type
REMARK                         _______ _______ _______ _____ _____    ______ ____
ROOT
ATOM      1  C   UNL     1       0.053  -2.841   2.459  0.00  0.00    +0.251 C 
ATOM      2  O   UNL     1      -0.004  -4.055   2.451  0.00  0.00    -0.270 OA
ATOM      3  N   UNL     1       0.152  -2.178   3.628  0.00  0.00    -0.290 N 
ATOM      4  C   UNL     1       0.140  -0.713   3.790  0.00  0.00    +0.109 C 
ATOM      5  C   UNL     1       0.876  -0.455   5.128  0.00  0.00    +0.021 C 
ATOM      6  C   UNL     1       0.392  -1.654   5.986  0.00  0.00    +0.029 C 
ATOM      7  C   UNL     1       0.284  -2.798   4.955  0.00  0.00    +0.109 C 
ENDROOT
BRANCH   7   8
ATOM      8  C   UNL     1      -0.929  -3.643   5.249  0.00  0.00    -0.002 A 
ATOM      9  C   UNL     1      -2.128  -3.554   4.652  0.00  0.00    +0.089 A 
ATOM     10  N   UNL     1      -2.982  -4.483   5.180  0.00  0.00    -0.360 N 
ATOM     11  H   UNL     1      -3.905  -4.610   4.908  0.00  0.00    +0.165 HD
ATOM     12  C   UNL     1      -2.338  -5.211   6.155  0.00  0.00    +0.047 A 
ATOM     13  C   UNL     1      -1.021  -4.721   6.237  0.00  0.00    +0.005 A 
ATOM     14  C   UNL     1      -0.124  -5.282   7.148  0.00  0.00    +0.010 A 
ATOM     15  C   UNL     1      -0.530  -6.308   7.954  0.00  0.00    +0.001 A 
ATOM     16  C   UNL     1      -1.826  -6.798   7.874  0.00  0.00    +0.002 A 
ATOM     17  C   UNL     1      -2.730  -6.253   6.989  0.00  0.00    +0.026 A 
ENDBRANCH   7   8
BRANCH   1  23
ATOM     18  C   UNL     1      -1.392   1.156  -0.149  0.00  0.00    +0.044 C 
ATOM     19  C   UNL     1      -0.679  -0.169  -0.073  0.00  0.00    -0.050 A 
ATOM     20  C   UNL     1      -0.058  -0.684  -1.200  0.00  0.00    +0.007 A 
ATOM     21  C   UNL     1       0.598  -1.897  -1.143  0.00  0.00    +0.046 A 
ATOM     22  C   UNL     1       0.641  -2.609   0.046  0.00  0.00    +0.129 A 
ATOM     23  C   UNL     1       0.015  -2.092   1.188  0.00  0.00    +0.078 A 
ATOM     24  C   UNL     1      -0.642  -0.861   1.118  0.00  0.00    +0.020 A 
BRANCH  22  25
ATOM     25  O   UNL     1       1.285  -3.802   0.103  0.00  0.00    -0.506 OA
ATOM     26  H   UNL     1       2.220  -3.732   0.342  0.00  0.00    +0.292 HD
ENDBRANCH  22  25
ENDBRANCH   1  23
TORSDOF 3
