REMARK  Name = ZINC33275053
REMARK  8 active torsions:
REMARK  status: ('A' for Active; 'I' for Inactive)
REMARK    1  A    between atoms: C_1  and  C_2
REMARK    2  A    between atoms: C_4  and  N_18
REMARK    3  A    between atoms: C_9  and  C_11
REMARK    4  A    between atoms: C_21  and  C_24
REMARK    5  A    between atoms: N_26  and  C_27
REMARK    6  A    between atoms: C_27  and  C_28
REMARK    7  A    between atoms: C_28  and  N_29
REMARK    8  A    between atoms: C_34  and  C_36
REMARK                            x       y       z     vdW  Elec       q    Type
REMARK                         _______ _______ _______ _____ _____    ______ ____
ROOT
ATOM      1  N   UNL     1     -11.120   1.672  -3.028  0.00  0.00    -0.315 N 
ATOM      2  C   UNL     1     -10.909   3.084  -2.686  0.00  0.00    +0.107 C 
ATOM      3  C   UNL     1      -9.410   3.392  -2.683  0.00  0.00    +0.031 C 
ATOM      4  C   UNL     1      -8.711   2.490  -1.662  0.00  0.00    +0.078 C 
ATOM      5  C   UNL     1      -8.986   1.025  -2.013  0.00  0.00    +0.031 C 
ATOM      6  C   UNL     1     -10.498   0.786  -2.036  0.00  0.00    +0.107 C 
ENDROOT
BRANCH   1  10
ATOM      7  C   UNL     1     -15.791   3.139  -2.938  0.00  0.00    +0.066 C 
ATOM      8  C   UNL     1     -14.752   2.066  -3.133  0.00  0.00    +0.044 A 
ATOM      9  C   UNL     1     -13.399   2.373  -2.982  0.00  0.00    +0.066 A 
ATOM     10  C   UNL     1     -12.463   1.393  -3.167  0.00  0.00    +0.127 A 
ATOM     11  N   UNL     1     -12.880   0.128  -3.486  0.00  0.00    -0.200 N 
ATOM     12  C   UNL     1     -14.221  -0.132  -3.619  0.00  0.00    +0.158 A 
ATOM     13  N   UNL     1     -15.125   0.843  -3.440  0.00  0.00    -0.233 NA
ATOM     14  C   UNL     1     -14.346  -1.474  -3.941  0.00  0.00    +0.078 A 
ATOM     15  C   UNL     1     -13.058  -2.016  -3.998  0.00  0.00    +0.095 A 
ATOM     16  N   UNL     1     -12.186  -1.063  -3.728  0.00  0.00    -0.163 NA
BRANCH  15  17
ATOM     17  C   UNL     1     -12.727  -3.429  -4.312  0.00  0.00    +0.002 A 
ATOM     18  C   UNL     1     -13.745  -4.343  -4.576  0.00  0.00    +0.013 A 
ATOM     19  C   UNL     1     -13.432  -5.654  -4.872  0.00  0.00    +0.039 A 
ATOM     20  C   UNL     1     -12.109  -6.064  -4.897  0.00  0.00    +0.123 A 
ATOM     21  C   UNL     1     -11.094  -5.160  -4.630  0.00  0.00    +0.039 A 
ATOM     22  C   UNL     1     -11.398  -3.846  -4.338  0.00  0.00    +0.013 A 
ATOM     23  F   UNL     1     -11.808  -7.350  -5.182  0.00  0.00    -0.205 F 
ENDBRANCH  15  17
ENDBRANCH   1  10
BRANCH   4  24
ATOM     24  C   UNL     1      -7.226   2.745  -1.697  0.00  0.00    +0.216 C 
ATOM     25  O   UNL     1      -6.771   3.568  -2.463  0.00  0.00    -0.276 OA
ATOM     26  N   UNL     1      -6.405   2.060  -0.877  0.00  0.00    -0.317 N 
ATOM     27  H   UNL     1      -6.818   1.314  -0.183  0.00  0.00    +0.149 HD
BRANCH  26  28
ATOM     28  C   UNL     1      -4.962   2.308  -0.912  0.00  0.00    +0.085 C 
BRANCH  28  29
ATOM     29  C   UNL     1      -4.264   1.407   0.109  0.00  0.00    -0.059 C 
BRANCH  29  30
ATOM     30  N   UNL     1      -2.817   1.656   0.075  0.00  0.00    +0.382 N 
ATOM     31  C   UNL     1      -2.222   1.134  -1.163  0.00  0.00    -0.078 C 
ATOM     32  C   UNL     1      -0.748   1.538  -1.231  0.00  0.00    -0.019 C 
ATOM     33  C   UNL     1      -0.012   0.975  -0.012  0.00  0.00    -0.003 C 
ATOM     34  C   UNL     1      -0.680   1.495   1.264  0.00  0.00    -0.016 C 
ATOM     35  C   UNL     1      -2.158   1.093   1.260  0.00  0.00    -0.072 C 
ATOM     36  C   UNL     1      -2.835   1.628   2.523  0.00  0.00    -0.013 C 
ATOM     37  H   UNL     1      -2.659   2.744   0.089  0.00  0.00    -0.081 HD
ENDBRANCH  29  30
ENDBRANCH  28  29
ENDBRANCH  26  28
ENDBRANCH   4  24
TORSDOF 6
