REMARK  Name = ZINC01374293
REMARK  16 active torsions:
REMARK  status: ('A' for Active; 'I' for Inactive)
REMARK    1  A    between atoms: C_1  and  C_2
REMARK    2  A    between atoms: C_2  and  C_3
REMARK    3  A    between atoms: C_3  and  C_5
REMARK    4  A    between atoms: C_3  and  N_18
REMARK    5  A    between atoms: N_9  and  C_10
REMARK    6  A    between atoms: C_10  and  C_11
REMARK    7  A    between atoms: N_18  and  C_19
REMARK    8  A    between atoms: N_18  and  C_31
REMARK    9  A    between atoms: C_19  and  C_20
REMARK   10  A    between atoms: C_20  and  C_21
REMARK   11  A    between atoms: C_24  and  O_29
REMARK   12  A    between atoms: C_25  and  O_27
REMARK   13  A    between atoms: O_27  and  C_28
REMARK   14  A    between atoms: O_29  and  C_30
REMARK   15  A    between atoms: C_31  and  C_32
REMARK   16  A    between atoms: C_37  and  C_44
REMARK                            x       y       z     vdW  Elec       q    Type
REMARK                         _______ _______ _______ _____ _____    ______ ____
ROOT
ATOM      1  N   UNL     1       2.370  -0.510  -2.513  0.00  0.00    +0.389 N 
ATOM      2  H   UNL     1       3.001  -0.916  -1.838  0.00  0.00    -0.080 HD
ENDROOT
BRANCH   1   3
ATOM      3  C   UNL     1       1.192   0.028  -1.821  0.00  0.00    +0.003 C 
BRANCH   3   4
ATOM      4  C   UNL     1       0.230   0.595  -2.833  0.00  0.00    +0.138 A 
ATOM      5  N   UNL     1       0.438   0.731  -4.120  0.00  0.00    -0.115 NA
ATOM      6  N   UNL     1      -0.619   1.251  -4.641  0.00  0.00    -0.023 NA
ATOM      7  N   UNL     1      -1.496   1.451  -3.720  0.00  0.00    -0.044 NA
ATOM      8  N   UNL     1      -1.012   1.054  -2.592  0.00  0.00    -0.226 N 
BRANCH   8   9
ATOM      9  C   UNL     1      -1.687   1.097  -1.292  0.00  0.00    +0.182 C 
BRANCH   9  10
ATOM     10  C   UNL     1      -1.288   2.354  -0.561  0.00  0.00    -0.026 A 
ATOM     11  C   UNL     1      -0.278   2.313   0.382  0.00  0.00    +0.008 A 
ATOM     12  C   UNL     1       0.089   3.465   1.052  0.00  0.00    +0.038 A 
ATOM     13  C   UNL     1      -0.556   4.659   0.779  0.00  0.00    +0.123 A 
ATOM     14  C   UNL     1      -1.567   4.699  -0.166  0.00  0.00    +0.038 A 
ATOM     15  C   UNL     1      -1.929   3.547  -0.839  0.00  0.00    +0.008 A 
ATOM     16  F   UNL     1      -0.198   5.785   1.434  0.00  0.00    -0.205 F 
ENDBRANCH   9  10
ENDBRANCH   8   9
ENDBRANCH   3   4
BRANCH   3  18
ATOM     17  C   UNL     1       1.506  -1.721  -0.064  0.00  0.00    +0.002 C 
ATOM     18  C   UNL     1       0.506  -1.092  -1.036  0.00  0.00    -0.011 C 
ENDBRANCH   3  18
ENDBRANCH   1   3
BRANCH   1  19
ATOM     19  C   UNL     1       1.948  -1.542  -3.470  0.00  0.00    -0.073 C 
BRANCH  19  20
ATOM     20  C   UNL     1       3.183  -2.206  -4.083  0.00  0.00    +0.017 C 
BRANCH  20  21
ATOM     21  C   UNL     1       2.749  -3.264  -5.064  0.00  0.00    -0.045 A 
ATOM     22  C   UNL     1       2.543  -4.561  -4.633  0.00  0.00    +0.007 A 
ATOM     23  C   UNL     1       2.146  -5.536  -5.529  0.00  0.00    +0.049 A 
ATOM     24  C   UNL     1       1.952  -5.213  -6.863  0.00  0.00    +0.161 A 
ATOM     25  C   UNL     1       2.158  -3.907  -7.296  0.00  0.00    +0.162 A 
ATOM     26  C   UNL     1       2.552  -2.934  -6.392  0.00  0.00    +0.053 A 
BRANCH  25  27
ATOM     27  O   UNL     1       1.969  -3.585  -8.604  0.00  0.00    -0.491 OA
ATOM     28  C   UNL     1       2.200  -2.225  -8.977  0.00  0.00    +0.277 C 
ENDBRANCH  25  27
BRANCH  24  29
ATOM     29  O   UNL     1       1.561  -6.171  -7.746  0.00  0.00    -0.491 OA
ATOM     30  C   UNL     1       1.368  -7.489  -7.230  0.00  0.00    +0.277 C 
ENDBRANCH  24  29
ENDBRANCH  20  21
ENDBRANCH  19  20
ENDBRANCH   1  19
BRANCH   1  31
ATOM     31  C   UNL     1       3.053   0.574  -3.232  0.00  0.00    -0.037 C 
BRANCH  31  32
ATOM     32  C   UNL     1       3.672   1.524  -2.239  0.00  0.00    +0.001 A 
ATOM     33  C   UNL     1       4.959   1.351  -1.850  0.00  0.00    +0.017 A 
ATOM     34  C   UNL     1       5.530   2.292  -0.884  0.00  0.00    -0.001 A 
ATOM     35  C   UNL     1       6.853   2.165  -0.447  0.00  0.00    +0.010 A 
ATOM     36  C   UNL     1       7.356   3.060   0.455  0.00  0.00    +0.004 A 
ATOM     37  C   UNL     1       6.566   4.093   0.942  0.00  0.00    -0.048 A 
ATOM     38  C   UNL     1       5.261   4.236   0.524  0.00  0.00    +0.029 A 
ATOM     39  C   UNL     1       4.727   3.338  -0.394  0.00  0.00    +0.049 A 
ATOM     40  N   UNL     1       3.424   3.458  -0.829  0.00  0.00    -0.322 N 
ATOM     41  H   UNL     1       2.872   4.180  -0.490  0.00  0.00    +0.169 HD
ATOM     42  C   UNL     1       2.910   2.593  -1.721  0.00  0.00    +0.251 A 
ATOM     43  O   UNL     1       1.756   2.733  -2.087  0.00  0.00    -0.268 OA
ATOM     44  C   UNL     1       7.142   5.067   1.936  0.00  0.00    +0.044 C 
ENDBRANCH  31  32
ENDBRANCH   1  31
TORSDOF 12
