REMARK  Name = ZINC33232630
REMARK  9 active torsions:
REMARK  status: ('A' for Active; 'I' for Inactive)
REMARK    1  A    between atoms: C_1  and  C_2
REMARK    2  A    between atoms: C_2  and  C_3
REMARK    3  A    between atoms: C_3  and  C_29
REMARK    4  A    between atoms: N_6  and  C_10
REMARK    5  A    between atoms: C_10  and  C_11
REMARK    6  A    between atoms: N_13  and  C_14
REMARK    7  A    between atoms: C_14  and  C_16
REMARK    8  A    between atoms: C_14  and  C_23
REMARK    9  A    between atoms: N_27  and  C_28
REMARK                            x       y       z     vdW  Elec       q    Type
REMARK                         _______ _______ _______ _____ _____    ______ ____
ROOT
ATOM      1  C   UNL     1       2.908   1.264  -1.439  0.00  0.00    +0.232 C 
ATOM      2  O   UNL     1       2.165   1.554  -2.352  0.00  0.00    -0.274 OA
ATOM      3  N   UNL     1       4.140   0.784  -1.699  0.00  0.00    -0.300 N 
ATOM      4  H   UNL     1       4.814   0.521  -0.870  0.00  0.00    +0.150 HD
ENDROOT
BRANCH   1   5
ATOM      5  C   UNL     1       2.453   1.438  -0.013  0.00  0.00    +0.213 C 
BRANCH   5   9
ATOM      6  C   UNL     1      -0.727   3.357   0.027  0.00  0.00    +0.138 C 
ATOM      7  C   UNL     1       0.787   3.284   0.012  0.00  0.00    +0.251 C 
ATOM      8  O   UNL     1       1.565   4.213   0.010  0.00  0.00    -0.272 OA
ATOM      9  N   UNL     1       1.087   1.970   0.002  0.00  0.00    -0.215 N 
ATOM     10  C   UNL     1      -0.014   1.211   0.009  0.00  0.00    +0.310 C 
ATOM     11  O   UNL     1       0.002  -0.004   0.002  0.00  0.00    -0.252 OA
ATOM     12  N   UNL     1      -1.143   1.944   0.018  0.00  0.00    -0.281 N 
ATOM     13  H   UNL     1      -2.212   1.685   0.019  0.00  0.00    +0.152 HD
BRANCH   6  14
ATOM     14  C   UNL     1      -1.236   4.066  -1.202  0.00  0.00    -0.015 A 
ATOM     15  C   UNL     1      -1.432   5.434  -1.179  0.00  0.00    +0.006 A 
ATOM     16  C   UNL     1      -1.894   6.084  -2.308  0.00  0.00    +0.000 A 
ATOM     17  C   UNL     1      -2.169   5.365  -3.457  0.00  0.00    +0.000 A 
ATOM     18  C   UNL     1      -1.979   3.997  -3.477  0.00  0.00    +0.000 A 
ATOM     19  C   UNL     1      -1.512   3.347  -2.350  0.00  0.00    +0.006 A 
ENDBRANCH   6  14
BRANCH   6  21
ATOM     20  C   UNL     1      -0.735   3.291   2.525  0.00  0.00    +0.007 C 
ATOM     21  C   UNL     1      -1.220   4.059   1.294  0.00  0.00    +0.037 C 
ENDBRANCH   6  21
ENDBRANCH   5   9
ENDBRANCH   1   5
BRANCH   3  22
ATOM     22  C   UNL     1       4.583   0.614  -3.085  0.00  0.00    +0.169 C 
BRANCH  22  23
ATOM     23  C   UNL     1       6.088   0.673  -3.143  0.00  0.00    -0.020 A 
ATOM     24  C   UNL     1       6.841   0.068  -2.154  0.00  0.00    +0.007 A 
ATOM     25  C   UNL     1       8.221   0.117  -2.209  0.00  0.00    +0.020 A 
ATOM     26  C   UNL     1       8.849   0.780  -3.248  0.00  0.00    +0.041 A 
ATOM     27  C   UNL     1       8.094   1.390  -4.235  0.00  0.00    +0.020 A 
ATOM     28  C   UNL     1       6.714   1.336  -4.181  0.00  0.00    +0.007 A 
ATOM     29 CL   UNL     1      10.582   0.848  -3.315  0.00  0.00    -0.084 Cl
ENDBRANCH  22  23
BRANCH  22  30
ATOM     30  C   UNL     1       4.112  -0.720  -3.603  0.00  0.00    +0.134 A 
ATOM     31  N   UNL     1       4.191  -1.855  -2.963  0.00  0.00    -0.238 NA
ATOM     32  C   UNL     1       3.674  -2.830  -3.726  0.00  0.00    +0.130 A 
ATOM     33  C   UNL     1       3.266  -2.279  -4.885  0.00  0.00    +0.106 A 
ATOM     34  N   UNL     1       3.543  -0.941  -4.808  0.00  0.00    -0.336 N 
ATOM     35  C   UNL     1       3.275   0.064  -5.839  0.00  0.00    +0.150 C 
ENDBRANCH  22  30
ENDBRANCH   3  22
TORSDOF 7
