REMARK  Name = ZINC28293024
REMARK  9 active torsions:
REMARK  status: ('A' for Active; 'I' for Inactive)
REMARK    1  A    between atoms: C_1  and  C_2
REMARK    2  A    between atoms: C_2  and  C_3
REMARK    3  A    between atoms: C_6  and  C_9
REMARK    4  A    between atoms: C_9  and  C_11
REMARK    5  A    between atoms: C_9  and  N_28
REMARK    6  A    between atoms: C_11  and  N_12
REMARK    7  A    between atoms: C_13  and  C_15
REMARK    8  A    between atoms: C_21  and  C_27
REMARK    9  A    between atoms: C_23  and  C_26
REMARK                            x       y       z     vdW  Elec       q    Type
REMARK                         _______ _______ _______ _____ _____    ______ ____
ROOT
ATOM      1  N   UNL     1       4.731   0.064   0.025  0.00  0.00    -0.310 N 
ATOM      2  C   UNL     1       4.809   1.408   0.084  0.00  0.00    +0.279 C 
ATOM      3  O   UNL     1       5.895   1.952   0.120  0.00  0.00    -0.267 OA
ATOM      4  H   UNL     1       3.748  -0.429  -0.008  0.00  0.00    +0.149 HD
ENDROOT
BRANCH   2   5
ATOM      5  C   UNL     1       3.571   2.222   0.105  0.00  0.00    +0.193 A 
ATOM      6  C   UNL     1       3.681   3.571   0.164  0.00  0.00    +0.103 A 
ATOM      7  C   UNL     1       2.453   4.381   0.184  0.00  0.00    +0.193 A 
ATOM      8  O   UNL     1       2.492   5.597   0.238  0.00  0.00    -0.287 OA
ATOM      9  C   UNL     1       1.173   3.649   0.138  0.00  0.00    +0.064 A 
ATOM     10  C   UNL     1      -0.048   4.323   0.151  0.00  0.00    +0.018 A 
ATOM     11  C   UNL     1      -1.214   3.611   0.106  0.00  0.00    -0.049 A 
ATOM     12  C   UNL     1      -1.189   2.224   0.042  0.00  0.00    +0.010 A 
ATOM     13  C   UNL     1       0.008   1.542   0.033  0.00  0.00    -0.007 A 
ATOM     14  C   UNL     1       1.207   2.245   0.078  0.00  0.00    +0.142 A 
ATOM     15  O   UNL     1       2.387   1.595   0.064  0.00  0.00    -0.450 OA
ATOM     16  C   UNL     1       0.018   0.036  -0.033  0.00  0.00    +0.047 C 
ATOM     17  C   UNL     1      -2.536   4.336   0.120  0.00  0.00    +0.044 C 
ENDBRANCH   2   5
BRANCH   1  18
ATOM     18  C   UNL     1       5.954  -0.742   0.004  0.00  0.00    +0.094 C 
BRANCH  18  19
ATOM     19  C   UNL     1       5.587  -2.225  -0.065  0.00  0.00    -0.020 C 
BRANCH  19  23
ATOM     20  C   UNL     1       9.145  -4.554  -0.475  0.00  0.00    -0.048 A 
ATOM     21  C   UNL     1       9.037  -3.337  -1.122  0.00  0.00    +0.004 A 
ATOM     22  C   UNL     1       7.886  -2.584  -0.989  0.00  0.00    +0.002 A 
ATOM     23  C   UNL     1       6.842  -3.047  -0.209  0.00  0.00    -0.059 A 
ATOM     24  C   UNL     1       6.952  -4.261   0.442  0.00  0.00    +0.002 A 
ATOM     25  C   UNL     1       8.102  -5.017   0.305  0.00  0.00    +0.004 A 
BRANCH  20  27
ATOM     26  C   UNL     1      11.390  -4.991   0.483  0.00  0.00    +0.009 C 
ATOM     27  C   UNL     1      10.400  -5.375  -0.619  0.00  0.00    +0.032 C 
ENDBRANCH  20  27
ENDBRANCH  19  23
BRANCH  19  28
ATOM     28  N   UNL     1       4.712  -2.460  -1.221  0.00  0.00    +0.385 N 
ATOM     29  C   UNL     1       5.446  -2.251  -2.495  0.00  0.00    -0.078 C 
ATOM     30  C   UNL     1       4.588  -3.024  -3.529  0.00  0.00    -0.020 C 
ATOM     31  C   UNL     1       4.125  -4.266  -2.734  0.00  0.00    -0.020 C 
ATOM     32  C   UNL     1       4.241  -3.862  -1.252  0.00  0.00    -0.078 C 
ATOM     33  H   UNL     1       3.875  -1.756  -1.110  0.00  0.00    -0.081 HD
ENDBRANCH  19  28
ENDBRANCH  18  19
ENDBRANCH   1  18
TORSDOF 6
