REMARK  Name = ZINC45190682
REMARK  10 active torsions:
REMARK  status: ('A' for Active; 'I' for Inactive)
REMARK    1  A    between atoms: C_1  and  C_2
REMARK    2  A    between atoms: N_5  and  C_11
REMARK    3  A    between atoms: C_7  and  C_10
REMARK    4  A    between atoms: C_18  and  C_30
REMARK    5  A    between atoms: N_19  and  C_20
REMARK    6  A    between atoms: C_20  and  C_21
REMARK    7  A    between atoms: C_21  and  N_22
REMARK    8  A    between atoms: N_22  and  C_23
REMARK    9  A    between atoms: C_23  and  C_24
REMARK   10  A    between atoms: C_32  and  C_36
REMARK                            x       y       z     vdW  Elec       q    Type
REMARK                         _______ _______ _______ _____ _____    ______ ____
ROOT
ATOM      1  C   UNL     1       3.298   0.601  -2.007  0.00  0.00    +0.058 A 
ATOM      2  C   UNL     1       3.448   1.976  -2.052  0.00  0.00    +0.025 A 
ATOM      3  C   UNL     1       3.947   2.591  -3.190  0.00  0.00    +0.004 A 
ATOM      4  C   UNL     1       4.300   1.843  -4.293  0.00  0.00    +0.028 A 
ATOM      5  C   UNL     1       4.157   0.461  -4.271  0.00  0.00    +0.071 A 
ATOM      6  C   UNL     1       3.659  -0.174  -3.121  0.00  0.00    +0.111 A 
ATOM      7  N   UNL     1       3.634  -1.504  -3.376  0.00  0.00    -0.226 NA
ATOM      8  C   UNL     1       4.083  -1.729  -4.586  0.00  0.00    +0.143 A 
ATOM      9  N   UNL     1       4.412  -0.542  -5.185  0.00  0.00    -0.325 N 
ENDROOT
BRANCH   1  13
ATOM     10  C   UNL     1       1.066   1.827   0.695  0.00  0.00    +0.039 C 
ATOM     11  C   UNL     1       0.936   0.303   0.685  0.00  0.00    +0.133 C 
ATOM     12  C   UNL     1       1.352  -0.238  -0.688  0.00  0.00    +0.136 C 
ATOM     13  N   UNL     1       2.796  -0.013  -0.857  0.00  0.00    -0.323 N 
ATOM     14  C   UNL     1       3.696  -0.454   0.220  0.00  0.00    +0.136 C 
ATOM     15  C   UNL     1       3.165   0.097   1.549  0.00  0.00    +0.133 C 
ATOM     16  O   UNL     1       1.786  -0.256   1.689  0.00  0.00    -0.371 OA
ATOM     17  C   UNL     1       3.967  -0.502   2.706  0.00  0.00    +0.039 C 
ENDBRANCH   1  13
BRANCH   8  18
ATOM     18  C   UNL     1       4.205  -3.062  -5.215  0.00  0.00    +0.037 A 
ATOM     19  C   UNL     1       5.063  -3.259  -6.300  0.00  0.00    +0.033 A 
ATOM     20  C   UNL     1       5.140  -4.539  -6.856  0.00  0.00    +0.070 A 
ATOM     21  C   UNL     1       4.362  -5.563  -6.310  0.00  0.00    +0.129 A 
ATOM     22  N   UNL     1       3.566  -5.334  -5.286  0.00  0.00    -0.261 NA
ATOM     23  C   UNL     1       3.468  -4.144  -4.729  0.00  0.00    +0.122 A 
BRANCH  20  24
ATOM     24  C   UNL     1       6.003  -4.796  -7.969  0.00  0.00    +0.101 C 
ATOM     25  N   UNL     1       6.688  -5.001  -8.853  0.00  0.00    -0.191 NA
ENDBRANCH  20  24
ENDBRANCH   8  18
BRANCH   9  26
ATOM     26  C   UNL     1       4.950  -0.370  -6.537  0.00  0.00    +0.105 C 
BRANCH  26  27
ATOM     27  C   UNL     1       6.478  -0.314  -6.475  0.00  0.00    -0.060 C 
BRANCH  27  28
ATOM     28  N   UNL     1       7.016  -0.142  -7.831  0.00  0.00    +0.383 N 
ATOM     29  H   UNL     1       6.731  -0.919  -8.408  0.00  0.00    -0.085 HD
ATOM     30  H   UNL     1       6.664   0.717  -8.226  0.00  0.00    -0.085 HD
BRANCH  28  31
ATOM     31  C   UNL     1       8.483  -0.088  -7.772  0.00  0.00    -0.047 C 
BRANCH  31  32
ATOM     32  C   UNL     1       9.036   0.088  -9.162  0.00  0.00    -0.064 A 
ATOM     33  C   UNL     1       9.333  -1.019  -9.934  0.00  0.00    +0.002 A 
ATOM     34  C   UNL     1       9.840  -0.857 -11.210  0.00  0.00    +0.000 A 
ATOM     35  C   UNL     1      10.050   0.413 -11.714  0.00  0.00    +0.000 A 
ATOM     36  C   UNL     1       9.752   1.521 -10.943  0.00  0.00    +0.000 A 
ATOM     37  C   UNL     1       9.241   1.358  -9.669  0.00  0.00    +0.002 A 
ENDBRANCH  31  32
ENDBRANCH  28  31
ENDBRANCH  27  28
ENDBRANCH  26  27
ENDBRANCH   9  26
TORSDOF 8
