REMARK  Name = ZINC20348644
REMARK  14 active torsions:
REMARK  status: ('A' for Active; 'I' for Inactive)
REMARK    1  A    between atoms: C_1  and  C_2
REMARK    2  A    between atoms: C_2  and  O_3
REMARK    3  A    between atoms: O_3  and  C_4
REMARK    4  A    between atoms: C_9  and  C_10
REMARK    5  A    between atoms: C_12  and  C_36
REMARK    6  A    between atoms: C_13  and  S_22
REMARK    7  A    between atoms: C_15  and  C_21
REMARK    8  A    between atoms: C_16  and  C_17
REMARK    9  A    between atoms: C_17  and  O_19
REMARK   10  A    between atoms: O_19  and  C_20
REMARK   11  A    between atoms: S_22  and  C_23
REMARK   12  A    between atoms: C_23  and  C_24
REMARK   13  A    between atoms: N_26  and  C_27
REMARK   14  A    between atoms: C_30  and  N_33
REMARK                            x       y       z     vdW  Elec       q    Type
REMARK                         _______ _______ _______ _____ _____    ______ ____
ROOT
ATOM      1  C   UNL     1      -0.089   5.345   0.040  0.00  0.00    +0.104 C 
ATOM      2  C   UNL     1      -0.784   5.849  -1.193  0.00  0.00    +0.069 C 
ATOM      3  C   UNL     1      -2.060   6.314  -1.142  0.00  0.00    +0.080 C 
ATOM      4  N   UNL     1      -2.748   6.340   0.050  0.00  0.00    -0.312 N 
ATOM      5  C   UNL     1      -2.073   6.248   1.236  0.00  0.00    +0.016 C 
ATOM      6  C   UNL     1      -0.811   5.787   1.280  0.00  0.00    +0.066 C 
ATOM      7  C   UNL     1      -2.753   6.671   2.512  0.00  0.00    +0.061 C 
ATOM      8  H   UNL     1      -3.844   6.436   0.051  0.00  0.00    +0.152 HD
ENDROOT
BRANCH   1  14
ATOM      9  C   UNL     1       1.176   3.180  -0.014  0.00  0.00    +0.125 A 
ATOM     10  C   UNL     1       1.213   1.793  -0.048  0.00  0.00    +0.046 A 
ATOM     11  C   UNL     1       0.035   1.073  -0.066  0.00  0.00    +0.004 A 
ATOM     12  C   UNL     1      -1.181   1.732  -0.055  0.00  0.00    +0.001 A 
ATOM     13  C   UNL     1      -1.220   3.113  -0.015  0.00  0.00    +0.008 A 
ATOM     14  C   UNL     1      -0.045   3.839   0.003  0.00  0.00    +0.007 A 
BRANCH   9  15
ATOM     15  O   UNL     1       2.334   3.892   0.004  0.00  0.00    -0.492 OA
BRANCH  15  17
ATOM     16  C   UNL     1       4.740   4.112   0.010  0.00  0.00    +0.048 C 
ATOM     17  C   UNL     1       3.553   3.147  -0.014  0.00  0.00    +0.225 C 
ENDBRANCH  15  17
ENDBRANCH   9  15
ENDBRANCH   1  14
BRANCH   6  18
ATOM     18  C   UNL     1      -0.147   5.718   2.526  0.00  0.00    +0.337 C 
ATOM     19  O   UNL     1       0.709   6.536   2.805  0.00  0.00    -0.245 OA
BRANCH  18  20
ATOM     20  O   UNL     1      -0.463   4.744   3.405  0.00  0.00    -0.465 OA
ATOM     21  C   UNL     1       0.249   4.734   4.644  0.00  0.00    +0.280 C 
ENDBRANCH  18  20
ENDBRANCH   6  18
BRANCH   2  22
ATOM     22  C   UNL     1      -0.088   5.842  -2.444  0.00  0.00    +0.098 C 
ATOM     23  N   UNL     1       0.464   5.836  -3.437  0.00  0.00    -0.191 NA
ENDBRANCH   2  22
BRANCH   3  24
ATOM     24  S   UNL     1      -2.841   6.887  -2.615  0.00  0.00    -0.100 S 
BRANCH  24  25
ATOM     25  C   UNL     1      -4.456   7.361  -1.950  0.00  0.00    +0.171 C 
BRANCH  25  26
ATOM     26  C   UNL     1      -5.320   7.896  -3.063  0.00  0.00    +0.227 C 
ATOM     27  O   UNL     1      -4.886   7.951  -4.194  0.00  0.00    -0.275 OA
ATOM     28  N   UNL     1      -6.574   8.313  -2.802  0.00  0.00    -0.285 N 
ATOM     29  H   UNL     1      -6.936   8.352  -1.764  0.00  0.00    +0.155 HD
BRANCH  28  30
ATOM     30  C   UNL     1      -7.418   8.695  -3.851  0.00  0.00    +0.034 A 
ATOM     31  C   UNL     1      -8.453   9.591  -3.621  0.00  0.00    +0.025 A 
ATOM     32  C   UNL     1      -9.280   9.970  -4.660  0.00  0.00    +0.034 A 
ATOM     33  C   UNL     1      -9.086   9.449  -5.926  0.00  0.00    +0.126 A 
ATOM     34  C   UNL     1      -8.059   8.552  -6.157  0.00  0.00    +0.034 A 
ATOM     35  C   UNL     1      -7.225   8.174  -5.124  0.00  0.00    +0.025 A 
BRANCH  33  36
ATOM     36  N   UNL     1      -9.978   9.853  -7.035  0.00  0.00    +0.056 N 
ATOM     37  O   UNL     1      -9.808   9.395  -8.151  0.00  0.00    -0.126 OA
ATOM     38  O   UNL     1     -10.883  10.643  -6.833  0.00  0.00    -0.126 OA
ENDBRANCH  33  36
ENDBRANCH  28  30
ENDBRANCH  25  26
ENDBRANCH  24  25
ENDBRANCH   3  24
TORSDOF 11
