REMARK  Name = ZINC36718726
REMARK  12 active torsions:
REMARK  status: ('A' for Active; 'I' for Inactive)
REMARK    1  A    between atoms: C_1  and  C_2
REMARK    2  A    between atoms: C_2  and  N_3
REMARK    3  A    between atoms: N_3  and  C_4
REMARK    4  A    between atoms: N_3  and  C_6
REMARK    5  A    between atoms: C_4  and  C_5
REMARK    6  A    between atoms: C_6  and  C_8
REMARK    7  A    between atoms: C_6  and  C_31
REMARK    8  A    between atoms: C_8  and  N_9
REMARK    9  A    between atoms: C_10  and  C_12
REMARK   10  A    between atoms: C_17  and  N_18
REMARK   11  A    between atoms: C_19  and  C_21
REMARK   12  A    between atoms: C_24  and  N_28
REMARK                            x       y       z     vdW  Elec       q    Type
REMARK                         _______ _______ _______ _____ _____    ______ ____
ROOT
ATOM      1  C   UNL     1      -1.050   2.707  -2.288  0.00  0.00    +0.058 A 
ATOM      2  C   UNL     1       0.329   2.542  -2.129  0.00  0.00    +0.015 A 
ATOM      3  C   UNL     1       1.199   3.448  -2.697  0.00  0.00    +0.001 A 
ATOM      4  C   UNL     1       0.714   4.523  -3.424  0.00  0.00    +0.002 A 
ATOM      5  C   UNL     1      -0.645   4.699  -3.589  0.00  0.00    +0.024 A 
ATOM      6  C   UNL     1      -1.537   3.793  -3.030  0.00  0.00    +0.046 A 
ENDROOT
BRANCH   1   8
ATOM      7  N   UNL     1      -1.522   0.763  -0.881  0.00  0.00    -0.313 N 
ATOM      8  C   UNL     1      -1.987   1.742  -1.683  0.00  0.00    +0.246 C 
ATOM      9  O   UNL     1      -3.178   1.828  -1.909  0.00  0.00    -0.270 OA
ATOM     10  H   UNL     1      -0.582   0.736  -0.644  0.00  0.00    +0.149 HD
BRANCH   7  11
ATOM     11  C   UNL     1      -2.437  -0.259  -0.366  0.00  0.00    +0.094 C 
BRANCH  11  12
ATOM     12  C   UNL     1      -1.688  -1.168   0.610  0.00  0.00    -0.020 C 
BRANCH  12  13
ATOM     13  C   UNL     1      -2.583  -2.309   1.021  0.00  0.00    -0.059 A 
ATOM     14  C   UNL     1      -3.608  -2.718   0.188  0.00  0.00    +0.002 A 
ATOM     15  C   UNL     1      -4.429  -3.765   0.564  0.00  0.00    +0.000 A 
ATOM     16  C   UNL     1      -4.225  -4.402   1.774  0.00  0.00    +0.000 A 
ATOM     17  C   UNL     1      -3.200  -3.993   2.607  0.00  0.00    +0.000 A 
ATOM     18  C   UNL     1      -2.377  -2.949   2.228  0.00  0.00    +0.002 A 
ENDBRANCH  12  13
BRANCH  12  19
ATOM     19  N   UNL     1      -0.484  -1.701  -0.041  0.00  0.00    +0.385 N 
ATOM     20  H   UNL     1       0.077  -0.937  -0.387  0.00  0.00    -0.081 HD
BRANCH  19  22
ATOM     21  C   UNL     1       0.829  -1.547   2.020  0.00  0.00    -0.017 C 
ATOM     22  C   UNL     1       0.295  -2.479   0.931  0.00  0.00    -0.081 C 
ENDBRANCH  19  22
BRANCH  19  23
ATOM     23  C   UNL     1      -0.876  -2.567  -1.161  0.00  0.00    -0.081 C 
ATOM     24  C   UNL     1      -1.016  -1.726  -2.432  0.00  0.00    -0.017 C 
ENDBRANCH  19  23
ENDBRANCH  12  19
ENDBRANCH  11  12
ENDBRANCH   7  11
ENDBRANCH   1   8
BRANCH   6  25
ATOM     25  N   UNL     1      -2.908   3.966  -3.199  0.00  0.00    -0.281 N 
ATOM     26  C   UNL     1      -3.387   4.456  -4.360  0.00  0.00    +0.250 C 
ATOM     27  O   UNL     1      -2.619   4.833  -5.223  0.00  0.00    -0.270 OA
ATOM     28  H   UNL     1      -3.518   3.734  -2.482  0.00  0.00    +0.155 HD
BRANCH  26  29
ATOM     29  C   UNL     1      -4.845   4.535  -4.582  0.00  0.00    +0.055 A 
ATOM     30  C   UNL     1      -5.730   4.109  -3.590  0.00  0.00    +0.017 A 
ATOM     31  C   UNL     1      -7.090   4.186  -3.804  0.00  0.00    +0.033 A 
ATOM     32  C   UNL     1      -7.580   4.684  -4.999  0.00  0.00    +0.128 A 
ATOM     33  C   UNL     1      -6.710   5.107  -5.987  0.00  0.00    +0.053 A 
ATOM     34  C   UNL     1      -5.345   5.043  -5.784  0.00  0.00    +0.055 A 
ATOM     35 CL   UNL     1      -4.254   5.583  -7.022  0.00  0.00    -0.083 Cl
BRANCH  32  36
ATOM     36  N   UNL     1      -9.041   4.762  -5.221  0.00  0.00    +0.056 N 
ATOM     37  O   UNL     1      -9.804   4.392  -4.359  0.00  0.00    -0.126 OA
ATOM     38  O   UNL     1      -9.472   5.196  -6.264  0.00  0.00    -0.126 OA
ENDBRANCH  32  36
ENDBRANCH  26  29
ENDBRANCH   6  25
TORSDOF 10
