REMARK  Name = ZINC21591306
REMARK  7 active torsions:
REMARK  status: ('A' for Active; 'I' for Inactive)
REMARK    1  A    between atoms: C_8  and  C_13
REMARK    2  A    between atoms: C_13  and  O_15
REMARK    3  A    between atoms: O_15  and  C_16
REMARK    4  A    between atoms: C_16  and  C_17
REMARK    5  A    between atoms: C_17  and  O_18
REMARK    6  A    between atoms: O_18  and  C_19
REMARK    7  A    between atoms: C_22  and  C_25
REMARK                            x       y       z     vdW  Elec       q    Type
REMARK                         _______ _______ _______ _____ _____    ______ ____
ROOT
ATOM      1  C   UNL     1       3.639  -0.752  -0.038  0.00  0.00    +0.356 C 
ATOM      2  O   UNL     1       4.710  -0.177  -0.045  0.00  0.00    -0.243 OA
ENDROOT
BRANCH   1  10
ATOM      3  C   UNL     1       0.031   4.242   0.025  0.00  0.00    +0.001 A 
ATOM      4  C   UNL     1      -1.179   3.561   0.033  0.00  0.00    +0.001 A 
ATOM      5  C   UNL     1      -1.212   2.183   0.031  0.00  0.00    +0.014 A 
ATOM      6  C   UNL     1      -0.018   1.466   0.010  0.00  0.00    +0.046 A 
ATOM      7  C   UNL     1       1.215   2.158   0.002  0.00  0.00    -0.011 A 
ATOM      8  C   UNL     1       1.225   3.554   0.010  0.00  0.00    +0.009 A 
ATOM      9  C   UNL     1       2.453   1.379  -0.015  0.00  0.00    +0.041 A 
ATOM     10  C   UNL     1       2.387   0.023  -0.021  0.00  0.00    +0.128 A 
ATOM     11  N   UNL     1       1.184  -0.650  -0.013  0.00  0.00    -0.316 N 
ATOM     12  H   UNL     1       1.170  -1.750  -0.018  0.00  0.00    +0.169 HD
ATOM     13  C   UNL     1       0.002  -0.004   0.002  0.00  0.00    +0.257 A 
ATOM     14  O   UNL     1      -1.041  -0.632   0.008  0.00  0.00    -0.267 OA
ENDBRANCH   1  10
BRANCH   1  15
ATOM     15  O   UNL     1       3.598  -2.099  -0.044  0.00  0.00    -0.457 OA
BRANCH  15  16
ATOM     16  C   UNL     1       4.870  -2.798  -0.061  0.00  0.00    +0.273 C 
BRANCH  16  17
ATOM     17  C   UNL     1       4.623  -4.308  -0.066  0.00  0.00    +0.270 C 
BRANCH  17  18
ATOM     18  O   UNL     1       3.972  -4.680  -1.283  0.00  0.00    -0.489 OA
BRANCH  18  19
ATOM     19  C   UNL     1       3.679  -5.995  -1.448  0.00  0.00    +0.121 A 
ATOM     20  C   UNL     1       4.018  -6.910  -0.459  0.00  0.00    +0.047 A 
ATOM     21  C   UNL     1       3.717  -8.244  -0.620  0.00  0.00    +0.022 A 
ATOM     22  C   UNL     1       3.080  -8.679  -1.786  0.00  0.00    +0.052 A 
ATOM     23  C   UNL     1       2.746  -7.756  -2.781  0.00  0.00    +0.022 A 
ATOM     24  C   UNL     1       3.046  -6.423  -2.609  0.00  0.00    +0.047 A 
BRANCH  22  25
ATOM     25  C   UNL     1       2.770 -10.066  -1.960  0.00  0.00    +0.099 C 
ATOM     26  N   UNL     1       2.524 -11.167  -2.098  0.00  0.00    -0.191 NA
ENDBRANCH  22  25
ENDBRANCH  18  19
ENDBRANCH  17  18
ENDBRANCH  16  17
ENDBRANCH  15  16
ENDBRANCH   1  15
TORSDOF 7
