REMARK  Name = ZINC36002019
REMARK  7 active torsions:
REMARK  status: ('A' for Active; 'I' for Inactive)
REMARK    1  A    between atoms: C_1  and  C_2
REMARK    2  A    between atoms: C_5  and  N_8
REMARK    3  A    between atoms: C_13  and  N_20
REMARK    4  A    between atoms: C_15  and  C_17
REMARK    5  A    between atoms: N_20  and  C_21
REMARK    6  A    between atoms: C_24  and  N_27
REMARK    7  A    between atoms: C_28  and  C_30
REMARK                            x       y       z     vdW  Elec       q    Type
REMARK                         _______ _______ _______ _____ _____    ______ ____
ROOT
ATOM      1  N   UNL     1       0.059  -4.171  -0.021  0.00  0.00    -0.214 N 
ATOM      2  C   UNL     1       0.705  -4.968   0.881  0.00  0.00    +0.168 A 
ATOM      3  C   UNL     1       0.455  -6.299   0.491  0.00  0.00    +0.079 A 
ATOM      4  C   UNL     1      -0.355  -6.246  -0.664  0.00  0.00    +0.148 A 
ATOM      5  N   UNL     1      -0.585  -4.996  -0.951  0.00  0.00    -0.172 NA
ATOM      6  C   UNL     1       1.014  -7.336   1.262  0.00  0.00    +0.133 A 
ATOM      7  N   UNL     1       1.749  -7.010   2.320  0.00  0.00    -0.216 NA
ATOM      8  C   UNL     1       1.956  -5.747   2.647  0.00  0.00    +0.137 A 
ATOM      9  N   UNL     1       1.455  -4.745   1.958  0.00  0.00    -0.212 NA
ENDROOT
BRANCH   1  14
ATOM     10  C   UNL     1      -0.018   1.503   0.010  0.00  0.00    +0.044 C 
ATOM     11  C   UNL     1       0.002  -0.004   0.002  0.00  0.00    -0.050 A 
ATOM     12  C   UNL     1       0.006  -0.687  -1.200  0.00  0.00    +0.005 A 
ATOM     13  C   UNL     1       0.025  -2.068  -1.211  0.00  0.00    +0.028 A 
ATOM     14  C   UNL     1       0.041  -2.771  -0.013  0.00  0.00    +0.068 A 
ATOM     15  C   UNL     1       0.037  -2.081   1.192  0.00  0.00    +0.028 A 
ATOM     16  C   UNL     1       0.023  -0.700   1.197  0.00  0.00    +0.005 A 
ENDBRANCH   1  14
BRANCH   8  17
ATOM     17  C   UNL     1       2.799  -5.442   3.859  0.00  0.00    +0.057 C 
ATOM     18  C   UNL     1       2.856  -3.988   4.332  0.00  0.00    +0.012 C 
ATOM     19  C   UNL     1       4.070  -4.618   3.646  0.00  0.00    +0.012 C 
ENDBRANCH   8  17
BRANCH   6  20
ATOM     20  N   UNL     1       0.802  -8.659   0.928  0.00  0.00    -0.326 N 
ATOM     21  H   UNL     1       0.263  -8.883   0.153  0.00  0.00    +0.148 HD
BRANCH  20  22
ATOM     22  C   UNL     1       1.391  -9.724   1.743  0.00  0.00    +0.072 C 
ATOM     23  C   UNL     1       2.825  -9.988   1.278  0.00  0.00    +0.024 C 
ATOM     24  C   UNL     1       2.813 -10.417  -0.191  0.00  0.00    +0.024 C 
ATOM     25  C   UNL     1       1.984 -11.694  -0.343  0.00  0.00    +0.073 C 
ATOM     26  C   UNL     1       0.551 -11.430   0.123  0.00  0.00    +0.024 C 
ATOM     27  C   UNL     1       0.562 -11.001   1.591  0.00  0.00    +0.024 C 
BRANCH  25  28
ATOM     28  N   UNL     1       1.973 -12.105  -1.749  0.00  0.00    -0.308 N 
ATOM     29  C   UNL     1       1.768 -13.397  -2.072  0.00  0.00    +0.251 C 
ATOM     30  O   UNL     1       1.591 -14.223  -1.195  0.00  0.00    -0.270 OA
ATOM     31  H   UNL     1       2.114 -11.447  -2.447  0.00  0.00    +0.149 HD
BRANCH  29  32
ATOM     32  C   UNL     1       1.756 -13.808  -3.479  0.00  0.00    +0.074 A 
ATOM     33  C   UNL     1       1.559 -15.069  -4.019  0.00  0.00    +0.021 A 
ATOM     34  C   UNL     1       1.605 -15.145  -5.391  0.00  0.00    +0.008 A 
ATOM     35  C   UNL     1       1.834 -14.016  -6.106  0.00  0.00    +0.046 A 
ATOM     36  S   UNL     1       1.985 -12.815  -4.941  0.00  0.00    -0.092 S 
ENDBRANCH  29  32
ENDBRANCH  25  28
ENDBRANCH  20  22
ENDBRANCH   6  20
TORSDOF 6
