REMARK  Name = ZINC39668868
REMARK  8 active torsions:
REMARK  status: ('A' for Active; 'I' for Inactive)
REMARK    1  A    between atoms: C_1  and  C_2
REMARK    2  A    between atoms: C_2  and  C_3
REMARK    3  A    between atoms: C_3  and  C_4
REMARK    4  A    between atoms: C_4  and  C_6
REMARK    5  A    between atoms: C_4  and  C_7
REMARK    6  A    between atoms: C_11  and  C_20
REMARK    7  A    between atoms: N_22  and  C_23
REMARK    8  A    between atoms: C_23  and  C_24
REMARK                            x       y       z     vdW  Elec       q    Type
REMARK                         _______ _______ _______ _____ _____    ______ ____
ROOT
ATOM      1  C   UNL     1       1.789  -2.745  -2.502  0.00  0.00    +0.218 C 
ATOM      2  O   UNL     1       2.452  -2.031  -3.224  0.00  0.00    -0.275 OA
ATOM      3  N   UNL     1       1.722  -4.070  -2.742  0.00  0.00    -0.300 N 
ATOM      4  C   UNL     1       0.886  -5.077  -2.046  0.00  0.00    +0.121 C 
ATOM      5  C   UNL     1       0.401  -6.023  -3.168  0.00  0.00    +0.100 C 
ATOM      6  C   UNL     1       1.443  -5.869  -4.289  0.00  0.00    -0.004 C 
ATOM      7  C   UNL     1       2.461  -4.847  -3.765  0.00  0.00    +0.115 C 
ATOM      8  C   UNL     1       0.780  -5.342  -5.558  0.00  0.00    -0.010 C 
ATOM      9  C   UNL     1       1.824  -5.252  -6.674  0.00  0.00    -0.082 C 
ATOM     10  N   UNL     1       2.401  -6.580  -6.915  0.00  0.00    +0.379 N 
ATOM     11  C   UNL     1       3.117  -7.040  -5.719  0.00  0.00    -0.082 C 
ATOM     12  C   UNL     1       2.127  -7.205  -4.562  0.00  0.00    -0.010 C 
ATOM     13  H   UNL     1       1.663  -7.231  -7.135  0.00  0.00    -0.086 HD
ATOM     14  H   UNL     1       3.044  -6.530  -7.691  0.00  0.00    -0.086 HD
ENDROOT
BRANCH   5  15
ATOM     15  C   UNL     1       0.365  -7.447  -2.674  0.00  0.00    +0.218 C 
ATOM     16  O   UNL     1       1.132  -7.808  -1.808  0.00  0.00    -0.275 OA
ATOM     17  N   UNL     1      -0.521  -8.318  -3.196  0.00  0.00    -0.312 N 
ATOM     18  H   UNL     1      -1.135  -8.029  -3.889  0.00  0.00    +0.149 HD
BRANCH  17  19
ATOM     19  C   UNL     1      -0.557  -9.702  -2.716  0.00  0.00    +0.140 C 
BRANCH  19  20
ATOM     20  C   UNL     1      -1.644 -10.474  -3.467  0.00  0.00    +0.165 C 
ATOM     21  C   UNL     1      -1.767 -11.857  -2.883  0.00  0.00    -0.014 A 
ATOM     22  C   UNL     1      -1.758 -12.001  -1.504  0.00  0.00    +0.006 A 
ATOM     23  C   UNL     1      -1.874 -13.252  -0.933  0.00  0.00    +0.000 A 
ATOM     24  C   UNL     1      -2.000 -14.368  -1.739  0.00  0.00    +0.000 A 
ATOM     25  C   UNL     1      -2.007 -14.227  -3.113  0.00  0.00    +0.004 A 
ATOM     26  C   UNL     1      -1.888 -12.971  -3.687  0.00  0.00    -0.040 A 
ATOM     27  C   UNL     1      -1.887 -12.857  -5.190  0.00  0.00    +0.063 C 
ATOM     28  C   UNL     1      -2.167 -11.410  -5.599  0.00  0.00    +0.165 C 
ATOM     29  O   UNL     1      -1.298 -10.554  -4.849  0.00  0.00    -0.370 OA
ENDBRANCH  19  20
ENDBRANCH  17  19
ENDBRANCH   5  15
BRANCH   1  30
ATOM     30  C   UNL     1       1.040  -2.151  -1.336  0.00  0.00    +0.072 C 
ATOM     31  C   UNL     1      -0.355  -1.720  -1.793  0.00  0.00    +0.017 C 
BRANCH  30  32
ATOM     32  C   UNL     1       1.802  -0.935  -0.807  0.00  0.00    +0.012 C 
BRANCH  32  34
ATOM     33  C   UNL     1       1.872   0.810   0.980  0.00  0.00    +0.004 C 
ATOM     34  C   UNL     1       1.110  -0.407   0.451  0.00  0.00    -0.003 C 
ENDBRANCH  32  34
ENDBRANCH  30  32
ENDBRANCH   1  30
TORSDOF 6
