REMARK  Name = ZINC08956099
REMARK  6 active torsions:
REMARK  status: ('A' for Active; 'I' for Inactive)
REMARK    1  A    between atoms: C_1  and  C_2
REMARK    2  A    between atoms: C_5  and  S_8
REMARK    3  A    between atoms: S_8  and  N_11
REMARK    4  A    between atoms: N_11  and  C_12
REMARK    5  A    between atoms: C_17  and  C_18
REMARK    6  A    between atoms: C_24  and  C_31
REMARK                            x       y       z     vdW  Elec       q    Type
REMARK                         _______ _______ _______ _____ _____    ______ ____
ROOT
ATOM      1  C   UNL     1      -4.724   2.494  -0.134  0.00  0.00    +0.060 A 
ATOM      2  C   UNL     1      -5.741   3.440  -0.188  0.00  0.00    +0.025 A 
ATOM      3  C   UNL     1      -5.434   4.775  -0.350  0.00  0.00    +0.002 A 
ATOM      4  C   UNL     1      -4.114   5.185  -0.454  0.00  0.00    +0.001 A 
ATOM      5  C   UNL     1      -3.093   4.263  -0.396  0.00  0.00    +0.015 A 
ATOM      6  C   UNL     1      -3.386   2.906  -0.233  0.00  0.00    +0.059 A 
ENDROOT
BRANCH   6   7
ATOM      7  C   UNL     1      -2.298   1.914  -0.171  0.00  0.00    +0.252 C 
ATOM      8  O   UNL     1      -2.558   0.735  -0.029  0.00  0.00    -0.270 OA
ATOM      9  N   UNL     1      -1.015   2.314  -0.273  0.00  0.00    -0.261 N 
ATOM     10  C   UNL     1       0.007   1.382  -0.215  0.00  0.00    +0.166 A 
ATOM     11  N   UNL     1       1.303   1.575  -0.300  0.00  0.00    -0.224 NA
ATOM     12  C   UNL     1       2.193   0.562  -0.232  0.00  0.00    +0.085 A 
ATOM     13  C   UNL     1       3.603   0.632  -0.309  0.00  0.00    -0.006 A 
ATOM     14  C   UNL     1       4.368  -0.503  -0.222  0.00  0.00    +0.046 A 
ATOM     15  C   UNL     1       3.790  -1.755  -0.056  0.00  0.00    +0.021 A 
ATOM     16  C   UNL     1       2.414  -1.860   0.024  0.00  0.00    +0.019 A 
ATOM     17  C   UNL     1       1.641  -0.729  -0.062  0.00  0.00    +0.041 A 
ATOM     18  S   UNL     1      -0.102  -0.391  -0.014  0.00  0.00    -0.052 S 
ATOM     19 CL   UNL     1       6.096  -0.372  -0.322  0.00  0.00    -0.083 Cl
ATOM     20  C   UNL     1       4.274   1.970  -0.489  0.00  0.00    +0.047 C 
ATOM     21  H   UNL     1      -0.808   3.255  -0.386  0.00  0.00    +0.157 HD
ENDBRANCH   6   7
BRANCH   1  22
ATOM     22  N   UNL     1      -5.031   1.149   0.024  0.00  0.00    -0.216 N 
ATOM     23  H   UNL     1      -4.451   0.578   0.552  0.00  0.00    +0.174 HD
BRANCH  22  24
ATOM     24  S   UNL     1      -6.386   0.519  -0.690  0.00  0.00    +0.072 S 
ATOM     25  O   UNL     1      -6.351  -0.883  -0.460  0.00  0.00    -0.150 OA
ATOM     26  O   UNL     1      -7.476   1.332  -0.280  0.00  0.00    -0.150 OA
BRANCH  24  31
ATOM     27  C   UNL     1      -5.794   1.304  -6.643  0.00  0.00    +0.044 C 
ATOM     28  C   UNL     1      -5.942   1.108  -5.157  0.00  0.00    -0.050 A 
ATOM     29  C   UNL     1      -5.469  -0.047  -4.561  0.00  0.00    +0.005 A 
ATOM     30  C   UNL     1      -5.604  -0.227  -3.197  0.00  0.00    +0.029 A 
ATOM     31  C   UNL     1      -6.213   0.748  -2.429  0.00  0.00    +0.109 A 
ATOM     32  C   UNL     1      -6.691   1.900  -3.025  0.00  0.00    +0.029 A 
ATOM     33  C   UNL     1      -6.551   2.082  -4.388  0.00  0.00    +0.005 A 
ENDBRANCH  24  31
ENDBRANCH  22  24
ENDBRANCH   1  22
TORSDOF 4
