REMARK  Name = ZINC27232602
REMARK  7 active torsions:
REMARK  status: ('A' for Active; 'I' for Inactive)
REMARK    1  A    between atoms: C_1  and  C_2
REMARK    2  A    between atoms: C_5  and  N_9
REMARK    3  A    between atoms: C_10  and  N_32
REMARK    4  A    between atoms: C_11  and  C_26
REMARK    5  A    between atoms: C_12  and  C_14
REMARK    6  A    between atoms: C_14  and  S_15
REMARK    7  A    between atoms: S_15  and  C_16
REMARK                            x       y       z     vdW  Elec       q    Type
REMARK                         _______ _______ _______ _____ _____    ______ ____
ROOT
ATOM      1  N   UNL     1       0.875   5.668   0.629  0.00  0.00    -0.218 N 
ATOM      2  C   UNL     1       0.701   4.380   1.030  0.00  0.00    +0.128 A 
ATOM      3  C   UNL     1       1.169   3.569   0.010  0.00  0.00    +0.045 A 
ATOM      4  C   UNL     1       1.636   4.414  -1.016  0.00  0.00    +0.083 A 
ATOM      5  N   UNL     1       1.454   5.653  -0.645  0.00  0.00    -0.168 NA
ENDROOT
BRANCH   1  10
ATOM      6  C   UNL     1      -0.508  10.300   3.603  0.00  0.00    +0.045 C 
ATOM      7  C   UNL     1      -0.141   9.070   2.814  0.00  0.00    -0.032 A 
ATOM      8  C   UNL     1       0.982   9.078   2.006  0.00  0.00    +0.007 A 
ATOM      9  C   UNL     1       1.321   7.952   1.282  0.00  0.00    +0.028 A 
ATOM     10  C   UNL     1       0.533   6.811   1.364  0.00  0.00    +0.069 A 
ATOM     11  C   UNL     1      -0.597   6.807   2.170  0.00  0.00    +0.048 A 
ATOM     12  C   UNL     1      -0.928   7.935   2.898  0.00  0.00    +0.046 A 
ATOM     13 CL   UNL     1      -2.337   7.930   3.912  0.00  0.00    -0.083 Cl
ENDBRANCH   1  10
BRANCH   3  14
ATOM     14  C   UNL     1       1.183   2.087   0.002  0.00  0.00    -0.013 A 
ATOM     15  C   UNL     1      -0.017   1.376   0.010  0.00  0.00    +0.008 A 
ATOM     16  C   UNL     1       0.002  -0.004   0.002  0.00  0.00    +0.001 A 
ATOM     17  C   UNL     1       1.208  -0.682  -0.014  0.00  0.00    +0.000 A 
ATOM     18  C   UNL     1       2.401   0.018  -0.021  0.00  0.00    +0.001 A 
ATOM     19  C   UNL     1       2.395   1.398  -0.013  0.00  0.00    +0.008 A 
ENDBRANCH   3  14
BRANCH   2  20
ATOM     20  N   UNL     1       0.155   3.958   2.234  0.00  0.00    -0.343 N 
ATOM     21  H   UNL     1       0.064   2.883   2.450  0.00  0.00    +0.144 HD
ATOM     22  H   UNL     1      -0.185   4.698   2.973  0.00  0.00    +0.144 HD
ENDBRANCH   2  20
BRANCH   4  23
ATOM     23  C   UNL     1       2.240   3.964  -2.321  0.00  0.00    +0.135 C 
BRANCH  23  24
ATOM     24  S   UNL     1       0.932   3.774  -3.558  0.00  0.00    -0.082 S 
BRANCH  24  25
ATOM     25  C   UNL     1       1.893   3.257  -4.942  0.00  0.00    +0.168 A 
ATOM     26  N   UNL     1       1.393   2.966  -6.179  0.00  0.00    -0.333 N 
ATOM     27  H   UNL     1       0.312   3.047  -6.369  0.00  0.00    +0.168 HD
ATOM     28  C   UNL     1       2.463   2.602  -6.979  0.00  0.00    +0.067 A 
ATOM     29  C   UNL     1       2.584   2.208  -8.303  0.00  0.00    +0.028 A 
ATOM     30  C   UNL     1       3.827   1.904  -8.819  0.00  0.00    +0.002 A 
ATOM     31  C   UNL     1       4.959   1.991  -8.022  0.00  0.00    +0.002 A 
ATOM     32  C   UNL     1       4.858   2.381  -6.705  0.00  0.00    +0.030 A 
ATOM     33  C   UNL     1       3.606   2.691  -6.167  0.00  0.00    +0.090 A 
ATOM     34  N   UNL     1       3.194   3.100  -4.939  0.00  0.00    -0.222 NA
ENDBRANCH  24  25
ENDBRANCH  23  24
ENDBRANCH   4  23
TORSDOF 6
