REMARK  Name = ZINC39631298
REMARK  11 active torsions:
REMARK  status: ('A' for Active; 'I' for Inactive)
REMARK    1  A    between atoms: C_1  and  C_2
REMARK    2  A    between atoms: C_2  and  C_4
REMARK    3  A    between atoms: C_2  and  N_11
REMARK    4  A    between atoms: C_4  and  C_5
REMARK    5  A    between atoms: C_5  and  C_6
REMARK    6  A    between atoms: C_6  and  C_7
REMARK    7  A    between atoms: C_7  and  C_8
REMARK    8  A    between atoms: C_7  and  C_9
REMARK    9  A    between atoms: C_7  and  O_10
REMARK   10  A    between atoms: C_12  and  C_14
REMARK   11  A    between atoms: C_25  and  C_27
REMARK                            x       y       z     vdW  Elec       q    Type
REMARK                         _______ _______ _______ _____ _____    ______ ____
ROOT
ATOM      1  C   UNL     1       0.627  -1.308   3.391  0.00  0.00    +0.100 C 
ATOM      2  C   UNL     1       1.089  -2.780   3.303  0.00  0.00    +0.121 C 
ATOM      3  N   UNL     1       0.959  -3.296   4.686  0.00  0.00    -0.296 N 
ATOM      4  C   UNL     1      -0.296  -2.689   5.190  0.00  0.00    +0.115 C 
ATOM      5  C   UNL     1      -0.281  -1.252   4.631  0.00  0.00    -0.004 C 
ATOM      6  C   UNL     1       0.293  -0.289   5.665  0.00  0.00    -0.010 C 
ATOM      7  C   UNL     1      -0.656  -0.207   6.863  0.00  0.00    -0.082 C 
ATOM      8  N   UNL     1      -1.975   0.255   6.414  0.00  0.00    +0.379 N 
ATOM      9  C   UNL     1      -2.561  -0.724   5.490  0.00  0.00    -0.082 C 
ATOM     10  C   UNL     1      -1.692  -0.828   4.234  0.00  0.00    -0.010 C 
ATOM     11  C   UNL     1       1.794  -4.130   5.338  0.00  0.00    +0.247 C 
ATOM     12  O   UNL     1       1.504  -4.536   6.447  0.00  0.00    -0.270 OA
ATOM     13  H   UNL     1      -2.581   0.366   7.213  0.00  0.00    -0.086 HD
ATOM     14  H   UNL     1      -1.877   1.142   5.944  0.00  0.00    -0.086 HD
ENDROOT
BRANCH  11  15
ATOM     15  C   UNL     1       3.061  -4.551   4.706  0.00  0.00    +0.045 A 
ATOM     16  C   UNL     1       3.061  -5.053   3.399  0.00  0.00    +0.014 A 
ATOM     17  C   UNL     1       4.241  -5.446   2.807  0.00  0.00    +0.001 A 
ATOM     18  C   UNL     1       5.440  -5.349   3.496  0.00  0.00    +0.012 A 
ATOM     19  C   UNL     1       5.461  -4.853   4.795  0.00  0.00    +0.031 A 
ATOM     20  C   UNL     1       4.267  -4.444   5.409  0.00  0.00    +0.006 A 
ATOM     21  C   UNL     1       4.578  -3.955   6.776  0.00  0.00    -0.006 A 
ATOM     22  C   UNL     1       3.769  -3.452   7.786  0.00  0.00    +0.009 A 
ATOM     23  C   UNL     1       4.328  -3.060   8.992  0.00  0.00    +0.001 A 
ATOM     24  C   UNL     1       5.690  -3.166   9.199  0.00  0.00    +0.001 A 
ATOM     25  C   UNL     1       6.511  -3.667   8.201  0.00  0.00    +0.012 A 
ATOM     26  C   UNL     1       5.963  -4.064   6.988  0.00  0.00    +0.030 A 
ATOM     27  C   UNL     1       6.565  -4.638   5.761  0.00  0.00    +0.194 C 
ATOM     28  O   UNL     1       7.742  -4.874   5.577  0.00  0.00    -0.287 OA
ENDBRANCH  11  15
BRANCH   1  30
ATOM     29  N   UNL     1      -0.256   0.371   1.804  0.00  0.00    -0.312 N 
ATOM     30  C   UNL     1      -0.146  -0.926   2.156  0.00  0.00    +0.218 C 
ATOM     31  O   UNL     1      -0.670  -1.785   1.478  0.00  0.00    -0.275 OA
ATOM     32  H   UNL     1       0.162   1.058   2.346  0.00  0.00    +0.149 HD
BRANCH  29  34
ATOM     33  C   UNL     1      -2.494   0.862   0.948  0.00  0.00    +0.028 C 
ATOM     34  C   UNL     1      -1.009   0.742   0.603  0.00  0.00    +0.070 C 
BRANCH  34  35
ATOM     35  C   UNL     1      -0.498   2.085   0.076  0.00  0.00    +0.022 C 
BRANCH  35  36
ATOM     36  C   UNL     1       0.953   1.933  -0.386  0.00  0.00    +0.005 C 
BRANCH  36  37
ATOM     37  C   UNL     1       1.464   3.276  -0.912  0.00  0.00    +0.034 C 
BRANCH  37  38
ATOM     38  C   UNL     1       2.914   3.124  -1.374  0.00  0.00    +0.061 C 
ATOM     39  C   UNL     1       2.988   2.078  -2.488  0.00  0.00    +0.041 C 
ATOM     40  C   UNL     1       3.425   4.466  -1.901  0.00  0.00    +0.041 C 
BRANCH  38  41
ATOM     41  O   UNL     1       3.723   2.705  -0.273  0.00  0.00    -0.389 OA
ATOM     42  H   UNL     1       3.724   3.322   0.471  0.00  0.00    +0.210 HD
ENDBRANCH  38  41
ENDBRANCH  37  38
ENDBRANCH  36  37
ENDBRANCH  35  36
ENDBRANCH  34  35
ENDBRANCH  29  34
ENDBRANCH   1  30
TORSDOF 8
