REMARK  Name = ZINC20895517
REMARK  8 active torsions:
REMARK  status: ('A' for Active; 'I' for Inactive)
REMARK    1  A    between atoms: C_1  and  C_2
REMARK    2  A    between atoms: C_9  and  N_15
REMARK    3  A    between atoms: C_10  and  C_11
REMARK    4  A    between atoms: C_11  and  O_13
REMARK    5  A    between atoms: O_13  and  C_14
REMARK    6  A    between atoms: C_16  and  C_18
REMARK    7  A    between atoms: C_18  and  N_19
REMARK    8  A    between atoms: C_27  and  C_29
REMARK                            x       y       z     vdW  Elec       q    Type
REMARK                         _______ _______ _______ _____ _____    ______ ____
ROOT
ATOM      1  N   UNL     1      -3.759  -0.175   0.035  0.00  0.00    -0.278 N 
ATOM      2  C   UNL     1      -4.713   0.777   0.049  0.00  0.00    +0.236 C 
ATOM      3  O   UNL     1      -4.400   1.949   0.052  0.00  0.00    -0.274 OA
ATOM      4  H   UNL     1      -4.042  -1.238   0.032  0.00  0.00    +0.155 HD
ENDROOT
BRANCH   1  12
ATOM      5  C   UNL     1       3.670   2.273  -0.115  0.00  0.00    +0.008 C 
ATOM      6  C   UNL     1       2.408   1.454  -0.392  0.00  0.00    -0.009 C 
ATOM      7  C   UNL     1       2.440   0.167   0.437  0.00  0.00    +0.008 C 
ATOM      8  C   UNL     1       1.319  -0.771  -0.014  0.00  0.00    +0.037 C 
ATOM      9  C   UNL     1       0.002  -0.004   0.002  0.00  0.00    -0.021 A 
ATOM     10  C   UNL     1      -0.016   1.346   0.009  0.00  0.00    -0.004 A 
ATOM     11  S   UNL     1      -1.734   1.776   0.020  0.00  0.00    -0.077 S 
ATOM     12  C   UNL     1      -2.420   0.185   0.025  0.00  0.00    +0.086 A 
ATOM     13  C   UNL     1      -1.304  -0.641   0.010  0.00  0.00    +0.091 A 
ATOM     14  C   UNL     1       1.166   2.266   0.003  0.00  0.00    +0.046 C 
BRANCH  13  15
ATOM     15  C   UNL     1      -1.439  -2.099   0.002  0.00  0.00    +0.342 C 
ATOM     16  O   UNL     1      -1.485  -2.711   1.052  0.00  0.00    -0.245 OA
BRANCH  15  17
ATOM     17  O   UNL     1      -1.511  -2.764  -1.170  0.00  0.00    -0.464 OA
ATOM     18  C   UNL     1      -1.643  -4.208  -1.101  0.00  0.00    +0.280 C 
ENDBRANCH  15  17
ENDBRANCH  13  15
ENDBRANCH   1  12
BRANCH   2  19
ATOM     19  C   UNL     1      -6.168   0.385   0.060  0.00  0.00    +0.214 C 
BRANCH  19  20
ATOM     20  N   UNL     1      -6.998   1.592   0.074  0.00  0.00    -0.215 N 
ATOM     21  C   UNL     1      -7.439   2.223  -1.035  0.00  0.00    +0.247 C 
ATOM     22  O   UNL     1      -7.231   1.911  -2.188  0.00  0.00    -0.273 OA
ATOM     23  C   UNL     1      -8.246   3.399  -0.536  0.00  0.00    +0.115 C 
ATOM     24  C   UNL     1      -9.693   3.286  -1.002  0.00  0.00    +0.035 C 
ATOM     25  C   UNL     1     -10.499   4.471  -0.464  0.00  0.00    +0.003 C 
ATOM     26  C   UNL     1      -9.884   5.777  -0.970  0.00  0.00    +0.000 C 
ATOM     27  C   UNL     1      -8.441   5.887  -0.474  0.00  0.00    +0.006 C 
ATOM     28  C   UNL     1      -7.626   4.708  -1.013  0.00  0.00    +0.018 C 
ATOM     29  C   UNL     1      -6.188   4.807  -0.501  0.00  0.00    +0.010 C 
ATOM     30  N   UNL     1      -8.165   3.293   0.926  0.00  0.00    -0.285 N 
ATOM     31  C   UNL     1      -7.420   2.202   1.188  0.00  0.00    +0.310 C 
ATOM     32  O   UNL     1      -7.156   1.817   2.311  0.00  0.00    -0.252 OA
ATOM     33  H   UNL     1      -8.669   4.037   1.560  0.00  0.00    +0.151 HD
ENDBRANCH  19  20
ENDBRANCH   2  19
TORSDOF 5
