REMARK  Name = ZINC08149174
REMARK  8 active torsions:
REMARK  status: ('A' for Active; 'I' for Inactive)
REMARK    1  A    between atoms: C_1  and  C_2
REMARK    2  A    between atoms: C_5  and  N_8
REMARK    3  A    between atoms: N_8  and  S_9
REMARK    4  A    between atoms: S_9  and  C_12
REMARK    5  A    between atoms: C_15  and  N_21
REMARK    6  A    between atoms: C_16  and  N_18
REMARK    7  A    between atoms: N_21  and  C_22
REMARK    8  A    between atoms: C_25  and  O_28
REMARK                            x       y       z     vdW  Elec       q    Type
REMARK                         _______ _______ _______ _____ _____    ______ ____
ROOT
ATOM      1  C   UNL     1       0.182  -3.406   4.561  0.00  0.00    +0.108 A 
ATOM      2  C   UNL     1       1.037  -4.270   3.901  0.00  0.00    +0.030 A 
ATOM      3  C   UNL     1       2.391  -4.245   4.170  0.00  0.00    +0.027 A 
ATOM      4  C   UNL     1       2.895  -3.350   5.105  0.00  0.00    +0.058 A 
ATOM      5  C   UNL     1       2.034  -2.483   5.767  0.00  0.00    +0.149 A 
ATOM      6  C   UNL     1       0.681  -2.510   5.489  0.00  0.00    +0.063 A 
ENDROOT
BRANCH   1   7
ATOM      7  S   UNL     1      -1.545  -3.442   4.214  0.00  0.00    +0.059 S 
ATOM      8  O   UNL     1      -2.199  -2.906   5.356  0.00  0.00    -0.153 OA
ATOM      9  O   UNL     1      -1.831  -4.739   3.710  0.00  0.00    -0.153 OA
BRANCH   7  10
ATOM     10  N   UNL     1      -1.817  -2.380   2.973  0.00  0.00    -0.187 NA
ATOM     11  H   UNL     1      -2.355  -1.587   3.121  0.00  0.00    +0.148 HD
BRANCH  10  16
ATOM     12  C   UNL     1      -1.370   1.595   0.766  0.00  0.00    +0.007 C 
ATOM     13  C   UNL     1      -1.129   0.093   0.599  0.00  0.00    -0.014 C 
ATOM     14  C   UNL     1      -2.457  -0.655   0.736  0.00  0.00    +0.005 C 
ATOM     15  C   UNL     1      -2.215  -2.156   0.570  0.00  0.00    +0.020 C 
ATOM     16  C   UNL     1      -1.244  -2.639   1.649  0.00  0.00    +0.077 C 
ATOM     17  C   UNL     1       0.084  -1.891   1.512  0.00  0.00    +0.020 C 
ATOM     18  C   UNL     1      -0.158  -0.390   1.679  0.00  0.00    +0.005 C 
ENDBRANCH  10  16
ENDBRANCH   7  10
ENDBRANCH   1   7
BRANCH   5  19
ATOM     19  N   UNL     1       2.567  -1.529   6.764  0.00  0.00    +0.058 N 
ATOM     20  O   UNL     1       3.466  -1.862   7.500  0.00  0.00    -0.126 OA
ATOM     21  O   UNL     1       2.102  -0.415   6.844  0.00  0.00    -0.126 OA
ENDBRANCH   5  19
BRANCH   4  22
ATOM     22  N   UNL     1       4.264  -3.322   5.380  0.00  0.00    -0.339 N 
ATOM     23  H   UNL     1       4.626  -2.643   5.971  0.00  0.00    +0.146 HD
BRANCH  22  24
ATOM     24  C   UNL     1       5.153  -4.317   4.776  0.00  0.00    +0.071 C 
ATOM     25  C   UNL     1       5.156  -5.585   5.633  0.00  0.00    +0.025 C 
ATOM     26  C   UNL     1       5.650  -5.247   7.041  0.00  0.00    +0.033 C 
ATOM     27  C   UNL     1       7.070  -4.682   6.962  0.00  0.00    +0.115 C 
ATOM     28  C   UNL     1       7.067  -3.414   6.105  0.00  0.00    +0.033 C 
ATOM     29  C   UNL     1       6.572  -3.752   4.697  0.00  0.00    +0.025 C 
BRANCH  27  30
ATOM     30  O   UNL     1       7.531  -4.367   8.277  0.00  0.00    -0.392 OA
ATOM     31  H   UNL     1       8.427  -4.003   8.303  0.00  0.00    +0.210 HD
ENDBRANCH  27  30
ENDBRANCH  22  24
ENDBRANCH   4  22
TORSDOF 7
