REMARK  Name = ZINC12833319
REMARK  13 active torsions:
REMARK  status: ('A' for Active; 'I' for Inactive)
REMARK    1  A    between atoms: C_1  and  C_2
REMARK    2  A    between atoms: C_2  and  C_3
REMARK    3  A    between atoms: C_3  and  C_4
REMARK    4  A    between atoms: C_3  and  C_5
REMARK    5  A    between atoms: C_3  and  N_6
REMARK    6  A    between atoms: C_7  and  C_11
REMARK    7  A    between atoms: C_11  and  N_60
REMARK    8  A    between atoms: C_12  and  C_13
REMARK    9  A    between atoms: C_12  and  N_60
REMARK   10  A    between atoms: C_18  and  C_19
REMARK   11  A    between atoms: C_18  and  N_60
REMARK   12  A    between atoms: C_24  and  O_31
REMARK   13  A    between atoms: O_31  and  C_32
REMARK                            x       y       z     vdW  Elec       q    Type
REMARK                         _______ _______ _______ _____ _____    ______ ____
ROOT
ATOM      1  N   UNL     1       2.135   1.145   9.161  0.00  0.00    +0.390 N 
ATOM      2  H   UNL     1       1.746   2.095   9.155  0.00  0.00    -0.080 HD
ENDROOT
BRANCH   1   3
ATOM      3  C   UNL     1       2.539   0.800  10.540  0.00  0.00    +0.001 C 
BRANCH   3   5
ATOM      4  N   UNL     1       1.101   2.103  12.195  0.00  0.00    -0.226 N 
ATOM      5  C   UNL     1       1.363   1.007  11.459  0.00  0.00    +0.136 A 
ATOM      6  N   UNL     1       0.398   0.153  11.700  0.00  0.00    -0.115 NA
ATOM      7  N   UNL     1      -0.416   0.698  12.537  0.00  0.00    -0.023 NA
ATOM      8  N   UNL     1       0.004   1.877  12.835  0.00  0.00    -0.043 NA
BRANCH   4   9
ATOM      9  C   UNL     1       1.908   3.324  12.255  0.00  0.00    +0.061 C 
ATOM     10  C   UNL     1       3.263   3.009  12.893  0.00  0.00    +0.036 C 
ATOM     11  C   UNL     1       2.124   3.863  10.839  0.00  0.00    +0.036 C 
BRANCH   9  13
ATOM     12  C   UNL     1       1.973   5.684  13.072  0.00  0.00    +0.006 C 
ATOM     13  C   UNL     1       1.181   4.376  13.095  0.00  0.00    +0.026 C 
ENDBRANCH   9  13
ENDBRANCH   4   9
ENDBRANCH   3   5
ENDBRANCH   1   3
BRANCH   1  14
ATOM     14  C   UNL     1       3.309   1.100   8.264  0.00  0.00    -0.035 C 
BRANCH  14  15
ATOM     15  C   UNL     1       4.178   2.299   8.544  0.00  0.00    -0.027 A 
ATOM     16  C   UNL     1       5.226   2.414   9.396  0.00  0.00    +0.009 A 
ATOM     17  C   UNL     1       5.886   3.625   9.487  0.00  0.00    +0.008 A 
ATOM     18  C   UNL     1       5.459   4.665   8.730  0.00  0.00    +0.045 A 
ATOM     19  S   UNL     1       4.089   3.939   7.845  0.00  0.00    -0.103 S 
ENDBRANCH  14  15
ENDBRANCH   1  14
BRANCH   1  20
ATOM     20  C   UNL     1       1.101   0.200   8.687  0.00  0.00    -0.036 C 
BRANCH  20  21
ATOM     21  C   UNL     1       0.551   0.700   7.376  0.00  0.00    +0.001 A 
ATOM     22  C   UNL     1       1.049   0.221   6.207  0.00  0.00    +0.017 A 
ATOM     23  C   UNL     1       0.494   0.726   4.952  0.00  0.00    -0.001 A 
ATOM     24  C   UNL     1       0.968   0.269   3.716  0.00  0.00    +0.013 A 
ATOM     25  C   UNL     1       0.427   0.754   2.562  0.00  0.00    +0.046 A 
ATOM     26  C   UNL     1      -0.587   1.710   2.601  0.00  0.00    +0.122 A 
ATOM     27  C   UNL     1      -1.069   2.174   3.813  0.00  0.00    +0.072 A 
ATOM     28  C   UNL     1      -0.535   1.688   4.999  0.00  0.00    +0.053 A 
ATOM     29  N   UNL     1      -0.997   2.133   6.220  0.00  0.00    -0.322 N 
ATOM     30  H   UNL     1      -1.704   2.795   6.250  0.00  0.00    +0.169 HD
ATOM     31  C   UNL     1      -0.479   1.662   7.368  0.00  0.00    +0.251 A 
ATOM     32  O   UNL     1      -0.912   2.078   8.429  0.00  0.00    -0.268 OA
BRANCH  26  33
ATOM     33  O   UNL     1      -1.110   2.185   1.442  0.00  0.00    -0.495 OA
ATOM     34  C   UNL     1      -0.569   1.666   0.226  0.00  0.00    +0.277 C 
ENDBRANCH  26  33
ENDBRANCH  20  21
ENDBRANCH   1  20
TORSDOF 9
