REMARK  Name = ZINC13500106
REMARK  11 active torsions:
REMARK  status: ('A' for Active; 'I' for Inactive)
REMARK    1  A    between atoms: C_1  and  C_2
REMARK    2  A    between atoms: C_2  and  C_3
REMARK    3  A    between atoms: C_3  and  C_4
REMARK    4  A    between atoms: C_4  and  C_6
REMARK    5  A    between atoms: C_4  and  N_70
REMARK    6  A    between atoms: N_10  and  C_11
REMARK    7  A    between atoms: C_11  and  C_12
REMARK    8  A    between atoms: C_18  and  C_19
REMARK    9  A    between atoms: C_18  and  N_70
REMARK   10  A    between atoms: C_25  and  C_31
REMARK   11  A    between atoms: C_32  and  N_70
REMARK                            x       y       z     vdW  Elec       q    Type
REMARK                         _______ _______ _______ _____ _____    ______ ____
ROOT
ATOM      1  N   UNL     1       5.309   4.855   1.393  0.00  0.00    +0.391 N 
ATOM      2  H   UNL     1       5.136   3.914   1.766  0.00  0.00    -0.080 HD
ENDROOT
BRANCH   1   3
ATOM      3  C   UNL     1       4.504   5.831   2.157  0.00  0.00    -0.067 C 
ATOM      4  C   UNL     1       4.797   7.274   1.698  0.00  0.00    -0.015 C 
ATOM      5  C   UNL     1       4.745   8.105   3.004  0.00  0.00    -0.002 C 
ATOM      6  C   UNL     1       5.396   7.157   4.041  0.00  0.00    -0.002 C 
ATOM      7  C   UNL     1       4.884   5.756   3.646  0.00  0.00    -0.015 C 
ENDBRANCH   1   3
BRANCH   1   8
ATOM      8  C   UNL     1       6.747   5.169   1.532  0.00  0.00    +0.003 C 
BRANCH   8   9
ATOM      9  C   UNL     1       7.170   6.170   0.488  0.00  0.00    +0.138 A 
ATOM     10  N   UNL     1       6.919   6.114  -0.797  0.00  0.00    -0.115 NA
ATOM     11  N   UNL     1       7.446   7.151  -1.352  0.00  0.00    -0.023 NA
ATOM     12  N   UNL     1       8.027   7.866  -0.453  0.00  0.00    -0.044 NA
ATOM     13  N   UNL     1       7.875   7.298   0.695  0.00  0.00    -0.228 N 
BRANCH  13  14
ATOM     14  C   UNL     1       8.378   7.786   1.981  0.00  0.00    +0.178 C 
BRANCH  14  15
ATOM     15  C   UNL     1       9.780   7.226   2.226  0.00  0.00    +0.140 C 
ATOM     16  C   UNL     1      10.272   7.641   3.630  0.00  0.00    +0.035 C 
ATOM     17  C   UNL     1      11.771   7.954   3.374  0.00  0.00    +0.031 C 
ATOM     18  C   UNL     1      11.710   8.535   1.939  0.00  0.00    +0.160 C 
ATOM     19  O   UNL     1      10.695   7.771   1.269  0.00  0.00    -0.375 OA
ENDBRANCH  14  15
ENDBRANCH  13  14
ENDBRANCH   8   9
BRANCH   8  20
ATOM     20  C   UNL     1       7.548   3.877   1.354  0.00  0.00    -0.008 C 
BRANCH  20  22
ATOM     21  C   UNL     1       8.090   1.662   2.375  0.00  0.00    +0.004 C 
ATOM     22  C   UNL     1       7.201   2.903   2.482  0.00  0.00    -0.005 C 
ENDBRANCH  20  22
ENDBRANCH   8  20
ENDBRANCH   1   8
BRANCH   1  23
ATOM     23  C   UNL     1       4.921   4.886  -0.033  0.00  0.00    -0.036 C 
BRANCH  23  24
ATOM     24  C   UNL     1       3.584   4.208  -0.185  0.00  0.00    +0.001 A 
ATOM     25  C   UNL     1       2.454   4.953  -0.262  0.00  0.00    +0.017 A 
ATOM     26  C   UNL     1       1.170   4.264  -0.409  0.00  0.00    -0.001 A 
ATOM     27  C   UNL     1      -0.029   4.979  -0.493  0.00  0.00    +0.010 A 
ATOM     28  C   UNL     1      -1.210   4.307  -0.630  0.00  0.00    +0.001 A 
ATOM     29  C   UNL     1      -1.230   2.920  -0.693  0.00  0.00    +0.005 A 
ATOM     30  C   UNL     1      -0.061   2.195  -0.606  0.00  0.00    -0.026 A 
ATOM     31  C   UNL     1       1.153   2.858  -0.466  0.00  0.00    +0.052 A 
ATOM     32  N   UNL     1       2.338   2.158  -0.383  0.00  0.00    -0.322 N 
ATOM     33  H   UNL     1       2.325   1.189  -0.422  0.00  0.00    +0.169 HD
ATOM     34  C   UNL     1       3.512   2.800  -0.248  0.00  0.00    +0.251 A 
ATOM     35  O   UNL     1       4.540   2.149  -0.178  0.00  0.00    -0.268 OA
ATOM     36  C   UNL     1      -0.099   0.690  -0.669  0.00  0.00    +0.046 C 
ENDBRANCH  23  24
ENDBRANCH   1  23
TORSDOF 9
