REMARK  Name = ZINC52072921
REMARK  4 active torsions:
REMARK  status: ('A' for Active; 'I' for Inactive)
REMARK    1  A    between atoms: C_3  and  N_9
REMARK    2  A    between atoms: C_6  and  C_7
REMARK    3  A    between atoms: N_9  and  C_10
REMARK    4  A    between atoms: C_16  and  C_18
REMARK                            x       y       z     vdW  Elec       q    Type
REMARK                         _______ _______ _______ _____ _____    ______ ____
ROOT
ATOM      1  C   UNL     1       4.662   2.872  -1.143  0.00  0.00    +0.075 C 
ATOM      2  C   UNL     1       4.131   3.775  -2.259  0.00  0.00    +0.041 C 
ATOM      3  C   UNL     1       3.804   5.155  -1.682  0.00  0.00    +0.109 C 
ATOM      4  N   UNL     1       4.996   5.677  -1.000  0.00  0.00    -0.301 N 
ATOM      5  C   UNL     1       5.641   4.849   0.029  0.00  0.00    +0.109 C 
ATOM      6  C   UNL     1       5.947   3.472  -0.568  0.00  0.00    +0.041 C 
ATOM      7  C   UNL     1       5.489   6.892  -1.312  0.00  0.00    +0.219 C 
ATOM      8  O   UNL     1       4.997   7.532  -2.217  0.00  0.00    -0.275 OA
ENDROOT
BRANCH   7   9
ATOM      9  C   UNL     1       6.651   7.456  -0.536  0.00  0.00    +0.075 C 
ATOM     10  C   UNL     1       6.141   8.088   0.760  0.00  0.00    +0.013 C 
ATOM     11  C   UNL     1       7.322   8.660   1.547  0.00  0.00    +0.001 C 
ATOM     12  C   UNL     1       8.030   9.724   0.705  0.00  0.00    +0.000 C 
ATOM     13  C   UNL     1       8.540   9.091  -0.591  0.00  0.00    +0.001 C 
ATOM     14  C   UNL     1       7.359   8.519  -1.379  0.00  0.00    +0.013 C 
ENDBRANCH   7   9
BRANCH   1  15
ATOM     15  N   UNL     1       4.945   1.541  -1.685  0.00  0.00    -0.326 N 
ATOM     16  H   UNL     1       5.842   1.316  -1.976  0.00  0.00    +0.148 HD
BRANCH  15  19
ATOM     17  C   UNL     1       1.643   0.005  -1.457  0.00  0.00    +0.024 A 
ATOM     18  C   UNL     1       2.644   0.935  -1.360  0.00  0.00    +0.045 A 
ATOM     19  C   UNL     1       3.930   0.602  -1.781  0.00  0.00    +0.119 A 
ATOM     20  N   UNL     1       4.196  -0.600  -2.273  0.00  0.00    -0.239 NA
ATOM     21  C   UNL     1       3.263  -1.523  -2.384  0.00  0.00    +0.131 A 
ATOM     22  C   UNL     1       1.953  -1.259  -1.982  0.00  0.00    +0.070 A 
BRANCH  22  23
ATOM     23  C   UNL     1       0.939  -2.263  -2.102  0.00  0.00    +0.101 C 
ATOM     24  N   UNL     1       0.135  -3.060  -2.197  0.00  0.00    -0.191 NA
ENDBRANCH  22  23
ENDBRANCH  15  19
ENDBRANCH   1  15
TORSDOF 4
