REMARK  Name = ZINC06149566
REMARK  13 active torsions:
REMARK  status: ('A' for Active; 'I' for Inactive)
REMARK    1  A    between atoms: C_1  and  C_2
REMARK    2  A    between atoms: C_2  and  C_3
REMARK    3  A    between atoms: C_3  and  C_4
REMARK    4  A    between atoms: C_3  and  C_5
REMARK    5  A    between atoms: C_3  and  N_6
REMARK    6  A    between atoms: C_7  and  C_11
REMARK    7  A    between atoms: C_11  and  C_13
REMARK    8  A    between atoms: C_11  and  N_69
REMARK    9  A    between atoms: C_18  and  C_25
REMARK   10  A    between atoms: C_26  and  C_27
REMARK   11  A    between atoms: C_26  and  N_69
REMARK   12  A    between atoms: C_34  and  C_35
REMARK   13  A    between atoms: C_34  and  N_69
REMARK                            x       y       z     vdW  Elec       q    Type
REMARK                         _______ _______ _______ _____ _____    ______ ____
ROOT
ATOM      1  C   UNL     1       1.225   1.435   0.246  0.00  0.00    +0.040 C 
ENDROOT
BRANCH   1   2
ATOM      2  C   UNL     1       2.644   1.925   0.121  0.00  0.00    +0.011 A 
ATOM      3  C   UNL     1       3.667   1.035   0.099  0.00  0.00    +0.017 A 
ATOM      4  C   UNL     1       5.034   1.544  -0.024  0.00  0.00    -0.001 A 
ATOM      5  C   UNL     1       6.130   0.675  -0.053  0.00  0.00    +0.010 A 
ATOM      6  C   UNL     1       7.393   1.181  -0.169  0.00  0.00    +0.004 A 
ATOM      7  C   UNL     1       7.600   2.551  -0.258  0.00  0.00    -0.048 A 
ATOM      8  C   UNL     1       6.535   3.426  -0.232  0.00  0.00    +0.029 A 
ATOM      9  C   UNL     1       5.240   2.934  -0.114  0.00  0.00    +0.049 A 
ATOM     10  N   UNL     1       4.157   3.786  -0.086  0.00  0.00    -0.322 N 
ATOM     11  H   UNL     1       4.304   4.773  -0.147  0.00  0.00    +0.169 HD
ATOM     12  C   UNL     1       2.904   3.309   0.021  0.00  0.00    +0.251 A 
ATOM     13  O   UNL     1       1.970   4.092   0.038  0.00  0.00    -0.268 OA
ATOM     14  C   UNL     1       9.002   3.087  -0.385  0.00  0.00    +0.044 C 
ENDBRANCH   1   2
BRANCH   1  16
ATOM     15  N   UNL     1       0.434   1.166   2.656  0.00  0.00    -0.225 N 
ATOM     16  C   UNL     1       0.643   1.909   1.554  0.00  0.00    +0.143 A 
ATOM     17  N   UNL     1       0.248   3.125   1.839  0.00  0.00    -0.115 NA
ATOM     18  N   UNL     1      -0.188   3.128   3.051  0.00  0.00    -0.023 NA
ATOM     19  N   UNL     1      -0.074   1.946   3.549  0.00  0.00    -0.043 NA
BRANCH  15  20
ATOM     20  C   UNL     1       0.729  -0.261   2.813  0.00  0.00    +0.061 C 
ATOM     21  C   UNL     1      -0.138  -1.070   1.847  0.00  0.00    +0.036 C 
ATOM     22  C   UNL     1       2.207  -0.513   2.506  0.00  0.00    +0.036 C 
BRANCH  20  24
ATOM     23  C   UNL     1       0.735  -2.179   4.415  0.00  0.00    +0.006 C 
ATOM     24  C   UNL     1       0.427  -0.689   4.251  0.00  0.00    +0.026 C 
ENDBRANCH  20  24
ENDBRANCH  15  20
ENDBRANCH   1  16
BRANCH   1  25
ATOM     25  N   UNL     1       0.424   1.992  -0.864  0.00  0.00    +0.397 N 
ATOM     26  H   UNL     1       0.409   3.016  -0.783  0.00  0.00    -0.079 HD
BRANCH  25  27
ATOM     27  C   UNL     1      -0.963   1.485  -0.790  0.00  0.00    -0.039 C 
BRANCH  27  28
ATOM     28  C   UNL     1      -1.720   2.296   0.229  0.00  0.00    -0.046 A 
ATOM     29  C   UNL     1      -2.069   1.732   1.441  0.00  0.00    +0.003 A 
ATOM     30  C   UNL     1      -2.759   2.477   2.378  0.00  0.00    +0.000 A 
ATOM     31  C   UNL     1      -3.110   3.785   2.099  0.00  0.00    +0.001 A 
ATOM     32  C   UNL     1      -2.766   4.349   0.886  0.00  0.00    +0.020 A 
ATOM     33  C   UNL     1      -2.070   3.605  -0.051  0.00  0.00    +0.042 A 
ATOM     34 CL   UNL     1      -1.638   4.313  -1.576  0.00  0.00    -0.083 Cl
ENDBRANCH  27  28
ENDBRANCH  25  27
BRANCH  25  35
ATOM     35  C   UNL     1       1.030   1.621  -2.160  0.00  0.00    -0.001 C 
BRANCH  35  36
ATOM     36  C   UNL     1       0.425   2.481  -3.240  0.00  0.00    +0.089 A 
ATOM     37  C   UNL     1       0.930   3.641  -3.696  0.00  0.00    +0.042 A 
ATOM     38  C   UNL     1       0.049   4.104  -4.700  0.00  0.00    +0.041 A 
ATOM     39  C   UNL     1      -0.941   3.199  -4.798  0.00  0.00    +0.195 A 
ATOM     40  O   UNL     1      -0.705   2.215  -3.915  0.00  0.00    -0.470 OA
ENDBRANCH  35  36
ENDBRANCH  25  35
ENDBRANCH   1  25
TORSDOF 9
