REMARK  Name = ZINC23619791
REMARK  8 active torsions:
REMARK  status: ('A' for Active; 'I' for Inactive)
REMARK    1  A    between atoms: C_1  and  C_2
REMARK    2  A    between atoms: C_3  and  C_31
REMARK    3  A    between atoms: C_7  and  S_18
REMARK    4  A    between atoms: C_9  and  C_11
REMARK    5  A    between atoms: C_11  and  N_12
REMARK    6  A    between atoms: S_18  and  C_19
REMARK    7  A    between atoms: N_24  and  C_25
REMARK    8  A    between atoms: C_25  and  C_26
REMARK                            x       y       z     vdW  Elec       q    Type
REMARK                         _______ _______ _______ _____ _____    ______ ____
ROOT
ATOM      1  C   UNL     1       9.437   0.212   0.665  0.00  0.00    +0.045 C 
ATOM      2  C   UNL     1       8.399   0.974   1.449  0.00  0.00    -0.029 A 
ATOM      3  C   UNL     1       8.642   2.230   1.852  0.00  0.00    -0.008 A 
ATOM      4  S   UNL     1       7.150   2.685   2.717  0.00  0.00    -0.074 S 
ATOM      5  C   UNL     1       6.242   1.176   2.513  0.00  0.00    +0.113 A 
ATOM      6  C   UNL     1       7.126   0.358   1.776  0.00  0.00    +0.043 A 
ATOM      7  C   UNL     1       6.638  -0.942   1.466  0.00  0.00    +0.115 A 
ATOM      8  N   UNL     1       5.430  -1.293   1.878  0.00  0.00    -0.227 NA
ATOM      9  C   UNL     1       4.654  -0.471   2.561  0.00  0.00    +0.115 A 
ATOM     10  N   UNL     1       5.051   0.746   2.878  0.00  0.00    -0.227 NA
ATOM     11  C   UNL     1       9.880   3.060   1.628  0.00  0.00    +0.052 C 
ENDROOT
BRANCH   9  12
ATOM     12  C   UNL     1       3.287  -0.937   2.993  0.00  0.00    -0.001 C 
BRANCH  12  13
ATOM     13  N   UNL     1       2.305  -0.605   1.952  0.00  0.00    +0.384 N 
ATOM     14  C   UNL     1       1.013  -1.247   2.223  0.00  0.00    -0.078 C 
ATOM     15  C   UNL     1       0.062  -1.000   1.050  0.00  0.00    -0.019 C 
ATOM     16  C   UNL     1      -0.126   0.508   0.860  0.00  0.00    -0.004 C 
ATOM     17  C   UNL     1       1.241   1.159   0.627  0.00  0.00    -0.019 C 
ATOM     18  C   UNL     1       2.157   0.850   1.813  0.00  0.00    -0.078 C 
ATOM     19  H   UNL     1       2.679  -0.997   0.994  0.00  0.00    -0.081 HD
ENDBRANCH  12  13
ENDBRANCH   9  12
BRANCH   7  20
ATOM     20  S   UNL     1       7.632  -2.074   0.552  0.00  0.00    -0.041 S 
BRANCH  20  21
ATOM     21  C   UNL     1       6.540  -3.455   0.484  0.00  0.00    +0.166 A 
ATOM     22  N   UNL     1       5.329  -3.588   0.988  0.00  0.00    -0.133 NA
ATOM     23  N   UNL     1       4.640  -4.766   0.813  0.00  0.00    -0.125 NA
ATOM     24  C   UNL     1       5.199  -5.761   0.152  0.00  0.00    +0.183 A 
ATOM     25  S   UNL     1       6.782  -5.052  -0.278  0.00  0.00    -0.024 S 
ATOM     26  N   UNL     1       4.693  -7.023  -0.133  0.00  0.00    -0.315 N 
ATOM     27  H   UNL     1       5.299  -7.743  -0.703  0.00  0.00    +0.148 HD
BRANCH  26  28
ATOM     28  C   UNL     1       3.352  -7.395   0.325  0.00  0.00    +0.178 C 
BRANCH  28  29
ATOM     29  C   UNL     1       3.045  -8.805  -0.112  0.00  0.00    +0.122 A 
ATOM     30  C   UNL     1       3.309  -9.921   0.592  0.00  0.00    +0.046 A 
ATOM     31  C   UNL     1       2.858 -11.011  -0.187  0.00  0.00    +0.041 A 
ATOM     32  C   UNL     1       2.347 -10.496  -1.320  0.00  0.00    +0.195 A 
ATOM     33  O   UNL     1       2.457  -9.159  -1.266  0.00  0.00    -0.466 OA
ENDBRANCH  28  29
ENDBRANCH  26  28
ENDBRANCH  20  21
ENDBRANCH   7  20
TORSDOF 6
