REMARK  Name = ZINC39686643
REMARK  11 active torsions:
REMARK  status: ('A' for Active; 'I' for Inactive)
REMARK    1  A    between atoms: C_1  and  C_2
REMARK    2  A    between atoms: C_2  and  C_4
REMARK    3  A    between atoms: C_2  and  N_13
REMARK    4  A    between atoms: C_4  and  C_5
REMARK    5  A    between atoms: C_10  and  O_11
REMARK    6  A    between atoms: O_11  and  C_12
REMARK    7  A    between atoms: C_14  and  C_16
REMARK    8  A    between atoms: C_27  and  C_29
REMARK    9  A    between atoms: C_32  and  O_39
REMARK   10  A    between atoms: C_33  and  C_35
REMARK   11  A    between atoms: O_39  and  C_40
REMARK                            x       y       z     vdW  Elec       q    Type
REMARK                         _______ _______ _______ _____ _____    ______ ____
ROOT
ATOM      1  C   UNL     1       0.566  -0.427  -3.527  0.00  0.00    +0.100 C 
ATOM      2  C   UNL     1       1.784   0.339  -4.091  0.00  0.00    +0.121 C 
ATOM      3  N   UNL     1       1.672   0.191  -5.561  0.00  0.00    -0.296 N 
ATOM      4  C   UNL     1       0.220   0.315  -5.835  0.00  0.00    +0.115 C 
ATOM      5  C   UNL     1      -0.458  -0.440  -4.675  0.00  0.00    -0.004 C 
ATOM      6  C   UNL     1      -1.734   0.280  -4.252  0.00  0.00    -0.010 C 
ATOM      7  C   UNL     1      -2.759   0.204  -5.387  0.00  0.00    -0.082 C 
ATOM      8  N   UNL     1      -3.046  -1.202  -5.696  0.00  0.00    +0.379 N 
ATOM      9  C   UNL     1      -1.833  -1.864  -6.191  0.00  0.00    -0.082 C 
ATOM     10  C   UNL     1      -0.769  -1.875  -5.089  0.00  0.00    -0.010 C 
ATOM     11  C   UNL     1       2.666  -0.012  -6.449  0.00  0.00    +0.247 C 
ATOM     12  O   UNL     1       3.798  -0.222  -6.057  0.00  0.00    -0.270 OA
ATOM     13  H   UNL     1      -3.365  -1.670  -4.861  0.00  0.00    -0.086 HD
ATOM     14  H   UNL     1      -3.765  -1.250  -6.401  0.00  0.00    -0.086 HD
ENDROOT
BRANCH  11  15
ATOM     15  C   UNL     1       2.380   0.020  -7.896  0.00  0.00    +0.038 A 
ATOM     16  C   UNL     1       1.238   0.671  -8.371  0.00  0.00    +0.016 A 
ATOM     17  C   UNL     1       0.976   0.699  -9.722  0.00  0.00    +0.047 A 
ATOM     18  C   UNL     1       1.844   0.081 -10.614  0.00  0.00    +0.132 A 
ATOM     19  C   UNL     1       2.980  -0.569 -10.146  0.00  0.00    +0.097 A 
ATOM     20  C   UNL     1       3.253  -0.597  -8.796  0.00  0.00    +0.029 A 
BRANCH  19  21
ATOM     21  C   UNL     1       3.918  -1.238 -11.117  0.00  0.00    +0.421 C 
ATOM     22  F   UNL     1       4.980  -1.819 -10.415  0.00  0.00    -0.166 F 
ATOM     23  F   UNL     1       3.228  -2.230 -11.823  0.00  0.00    -0.166 F 
ATOM     24  F   UNL     1       4.417  -0.288 -12.015  0.00  0.00    -0.166 F 
ENDBRANCH  19  21
BRANCH  18  25
ATOM     25  O   UNL     1       1.581   0.110 -11.945  0.00  0.00    -0.495 OA
ATOM     26  C   UNL     1       0.396   0.794 -12.358  0.00  0.00    +0.277 C 
ENDBRANCH  18  25
ENDBRANCH  11  15
BRANCH   1  28
ATOM     27  N   UNL     1      -0.350  -0.405  -1.230  0.00  0.00    -0.312 N 
ATOM     28  C   UNL     1       0.003   0.291  -2.329  0.00  0.00    +0.218 C 
ATOM     29  O   UNL     1      -0.134   1.496  -2.353  0.00  0.00    -0.275 OA
ATOM     30  H   UNL     1      -0.241  -1.368  -1.210  0.00  0.00    +0.149 HD
BRANCH  27  32
ATOM     31  C   UNL     1       0.249   0.808   0.808  0.00  0.00    +0.028 C 
ATOM     32  C   UNL     1      -0.898   0.294  -0.065  0.00  0.00    +0.074 C 
BRANCH  32  33
ATOM     33  C   UNL     1      -1.764  -0.671   0.748  0.00  0.00    +0.060 C 
BRANCH  33  34
ATOM     34  C   UNL     1      -2.961  -1.081  -0.070  0.00  0.00    -0.004 A 
ATOM     35  C   UNL     1      -4.158  -0.404   0.067  0.00  0.00    +0.007 A 
ATOM     36  C   UNL     1      -5.256  -0.781  -0.683  0.00  0.00    +0.000 A 
ATOM     37  C   UNL     1      -5.161  -1.835  -1.572  0.00  0.00    +0.004 A 
ATOM     38  C   UNL     1      -3.967  -2.515  -1.714  0.00  0.00    +0.046 A 
ATOM     39  C   UNL     1      -2.861  -2.136  -0.966  0.00  0.00    +0.123 A 
BRANCH  39  40
ATOM     40  O   UNL     1      -1.684  -2.799  -1.107  0.00  0.00    -0.495 OA
ATOM     41  C   UNL     1      -1.654  -3.875  -2.048  0.00  0.00    +0.277 C 
ENDBRANCH  39  40
ENDBRANCH  33  34
ENDBRANCH  32  33
ENDBRANCH  27  32
ENDBRANCH   1  28
TORSDOF 8
