REMARK  Name = ZINC12573959
REMARK  7 active torsions:
REMARK  status: ('A' for Active; 'I' for Inactive)
REMARK    1  A    between atoms: C_4  and  O_24
REMARK    2  A    between atoms: C_5  and  C_7
REMARK    3  A    between atoms: C_7  and  N_8
REMARK    4  A    between atoms: C_9  and  C_11
REMARK    5  A    between atoms: C_11  and  C_12
REMARK    6  A    between atoms: C_19  and  N_52
REMARK    7  A    between atoms: O_24  and  C_25
REMARK                            x       y       z     vdW  Elec       q    Type
REMARK                         _______ _______ _______ _____ _____    ______ ____
ROOT
ATOM      1  N   UNL     1       1.651  -1.252  -3.712  0.00  0.00    -0.311 N 
ATOM      2  C   UNL     1       2.973  -1.504  -3.636  0.00  0.00    +0.212 C 
ATOM      3  O   UNL     1       3.411  -2.566  -4.024  0.00  0.00    -0.276 OA
ATOM      4  H   UNL     1       1.301  -0.402  -3.402  0.00  0.00    +0.149 HD
ENDROOT
BRANCH   1   5
ATOM      5  C   UNL     1       0.744  -2.261  -4.263  0.00  0.00    +0.143 C 
BRANCH   5  10
ATOM      6  C   UNL     1      -2.828  -1.645  -3.206  0.00  0.00    +0.001 A 
ATOM      7  C   UNL     1      -3.263  -0.771  -4.185  0.00  0.00    +0.004 A 
ATOM      8  C   UNL     1      -2.401  -0.373  -5.189  0.00  0.00    +0.046 A 
ATOM      9  C   UNL     1      -1.102  -0.859  -5.219  0.00  0.00    +0.135 A 
ATOM     10  C   UNL     1      -0.668  -1.735  -4.236  0.00  0.00    +0.012 A 
ATOM     11  C   UNL     1      -1.532  -2.127  -3.231  0.00  0.00    +0.009 A 
BRANCH   9  12
ATOM     12  O   UNL     1      -0.254  -0.472  -6.208  0.00  0.00    -0.405 OA
BRANCH  12  13
ATOM     13  C   UNL     1      -0.769   0.432  -7.188  0.00  0.00    +0.575 C 
ATOM     14  F   UNL     1      -1.179   1.614  -6.561  0.00  0.00    -0.133 F 
ATOM     15  F   UNL     1       0.229   0.723  -8.124  0.00  0.00    -0.133 F 
ATOM     16  F   UNL     1      -1.860  -0.155  -7.837  0.00  0.00    -0.133 F 
ENDBRANCH  12  13
ENDBRANCH   9  12
ENDBRANCH   5  10
ENDBRANCH   1   5
BRANCH   2  17
ATOM     17  C   UNL     1       3.907  -0.465  -3.070  0.00  0.00    +0.089 C 
BRANCH  17  18
ATOM     18  C   UNL     1       5.322  -1.041  -2.989  0.00  0.00    +0.028 C 
ATOM     19  C   UNL     1       5.816  -1.344  -4.375  0.00  0.00    +0.200 C 
ATOM     20  O   UNL     1       5.604  -0.539  -5.257  0.00  0.00    -0.278 OA
ATOM     21  N   UNL     1       6.481  -2.465  -4.677  0.00  0.00    -0.318 N 
ATOM     22  C   UNL     1       6.756  -3.513  -3.699  0.00  0.00    +0.085 C 
ATOM     23  C   UNL     1       6.600  -2.960  -2.281  0.00  0.00    -0.058 C 
ATOM     24  H   UNL     1       6.794  -2.587  -5.587  0.00  0.00    +0.149 HD
ATOM     25  N   UNL     1       5.290  -2.284  -2.196  0.00  0.00    +0.390 N 
ATOM     26  H   UNL     1       4.566  -2.906  -2.575  0.00  0.00    -0.080 HD
BRANCH  25  27
ATOM     27  C   UNL     1       4.968  -1.975  -0.783  0.00  0.00    -0.067 C 
ATOM     28  C   UNL     1       6.101  -1.157  -0.129  0.00  0.00    -0.015 C 
ATOM     29  C   UNL     1       6.173  -1.700   1.320  0.00  0.00    -0.002 C 
ATOM     30  C   UNL     1       5.918  -3.216   1.130  0.00  0.00    -0.002 C 
ATOM     31  C   UNL     1       4.852  -3.284   0.017  0.00  0.00    -0.015 C 
ENDBRANCH  25  27
ENDBRANCH  17  18
ENDBRANCH   2  17
TORSDOF 7
