REMARK  Name = ZINC17090771
REMARK  7 active torsions:
REMARK  status: ('A' for Active; 'I' for Inactive)
REMARK    1  A    between atoms: C_1  and  C_2
REMARK    2  A    between atoms: C_2  and  C_3
REMARK    3  A    between atoms: C_10  and  N_18
REMARK    4  A    between atoms: C_11  and  C_12
REMARK    5  A    between atoms: N_14  and  C_15
REMARK    6  A    between atoms: C_19  and  C_21
REMARK    7  A    between atoms: C_27  and  C_29
REMARK                            x       y       z     vdW  Elec       q    Type
REMARK                         _______ _______ _______ _____ _____    ______ ____
ROOT
ATOM      1  C   UNL     1      -3.393   1.711   6.272  0.00  0.00    -0.006 C 
ATOM      2  C   UNL     1      -2.010   1.908   5.644  0.00  0.00    +0.008 C 
ATOM      3  C   UNL     1      -1.953   1.213   4.282  0.00  0.00    +0.037 C 
ATOM      4  C   UNL     1      -3.135   1.682   3.443  0.00  0.00    -0.023 A 
ATOM      5  C   UNL     1      -4.209   2.264   4.019  0.00  0.00    -0.004 A 
ATOM      6  S   UNL     1      -5.300   2.632   2.673  0.00  0.00    -0.077 S 
ATOM      7  C   UNL     1      -4.342   2.026   1.363  0.00  0.00    +0.084 A 
ATOM      8  C   UNL     1      -3.204   1.548   1.998  0.00  0.00    +0.069 A 
ATOM      9  C   UNL     1      -4.418   2.533   5.477  0.00  0.00    +0.046 C 
ENDROOT
BRANCH   8  10
ATOM     10  C   UNL     1      -2.111   0.934   1.238  0.00  0.00    +0.247 C 
ATOM     11  O   UNL     1      -2.111  -0.265   1.032  0.00  0.00    -0.270 OA
ATOM     12  N   UNL     1      -1.105   1.699   0.767  0.00  0.00    -0.308 N 
ATOM     13  H   UNL     1      -1.106   2.655   0.931  0.00  0.00    +0.149 HD
BRANCH  12  14
ATOM     14  C   UNL     1      -0.013   1.086   0.008  0.00  0.00    +0.073 C 
ATOM     15  C   UNL     1       0.460   1.806  -1.256  0.00  0.00    +0.024 C 
ATOM     16  C   UNL     1       1.335   1.811  -0.001  0.00  0.00    +0.024 C 
ENDBRANCH  12  14
ENDBRANCH   8  10
BRANCH   7  17
ATOM     17  N   UNL     1      -4.640   2.019   0.009  0.00  0.00    -0.279 N 
ATOM     18  C   UNL     1      -5.806   2.535  -0.427  0.00  0.00    +0.222 C 
ATOM     19  O   UNL     1      -6.596   3.004   0.365  0.00  0.00    -0.275 OA
ATOM     20  H   UNL     1      -4.009   1.644  -0.625  0.00  0.00    +0.155 HD
BRANCH  18  21
ATOM     21  C   UNL     1      -6.130   2.527  -1.899  0.00  0.00    +0.093 C 
ATOM     22  C   UNL     1      -6.161   1.086  -2.412  0.00  0.00    +0.040 C 
ATOM     23  C   UNL     1      -6.742   1.042  -3.796  0.00  0.00    -0.030 C 
ATOM     24  C   UNL     1      -7.428   2.003  -4.326  0.00  0.00    -0.030 C 
ATOM     25  C   UNL     1      -7.736   3.299  -3.633  0.00  0.00    +0.042 C 
ATOM     26  C   UNL     1      -7.511   3.157  -2.126  0.00  0.00    +0.118 C 
BRANCH  26  27
ATOM     27  C   UNL     1      -7.561   4.516  -1.476  0.00  0.00    +0.360 C 
ATOM     28  O   UNL     1      -6.593   4.941  -0.890  0.00  0.00    -0.246 OA
ATOM     29  O   UNL     1      -8.680   5.254  -1.549  0.00  0.00    -0.246 OA
ENDBRANCH  26  27
ENDBRANCH  18  21
ENDBRANCH   7  17
BRANCH   1  31
ATOM     30  C   UNL     1      -4.712   1.877   8.386  0.00  0.00    +0.004 C 
ATOM     31  C   UNL     1      -3.368   2.189   7.725  0.00  0.00    +0.000 C 
ENDBRANCH   1  31
TORSDOF 6
