REMARK  Name = ZINC39671903
REMARK  5 active torsions:
REMARK  status: ('A' for Active; 'I' for Inactive)
REMARK    1  A    between atoms: C_6  and  C_10
REMARK    2  A    between atoms: C_10  and  N_11
REMARK    3  A    between atoms: C_12  and  C_14
REMARK    4  A    between atoms: C_25  and  C_27
REMARK    5  A    between atoms: C_30  and  C_33
REMARK                            x       y       z     vdW  Elec       q    Type
REMARK                         _______ _______ _______ _____ _____    ______ ____
ROOT
ATOM      1  C   UNL     1       4.569  -5.541   3.652  0.00  0.00    +0.100 C 
ATOM      2  C   UNL     1       3.069  -5.728   3.975  0.00  0.00    +0.121 C 
ATOM      3  N   UNL     1       2.800  -7.158   3.692  0.00  0.00    -0.296 N 
ATOM      4  C   UNL     1       4.007  -7.865   4.184  0.00  0.00    +0.115 C 
ATOM      5  C   UNL     1       5.181  -6.945   3.794  0.00  0.00    -0.004 C 
ATOM      6  C   UNL     1       5.783  -7.395   2.466  0.00  0.00    -0.010 C 
ATOM      7  C   UNL     1       6.435  -8.769   2.647  0.00  0.00    -0.082 C 
ATOM      8  N   UNL     1       7.478  -8.686   3.677  0.00  0.00    +0.379 N 
ATOM      9  C   UNL     1       6.877  -8.342   4.971  0.00  0.00    -0.082 C 
ATOM     10  C   UNL     1       6.243  -6.951   4.889  0.00  0.00    -0.010 C 
ATOM     11  C   UNL     1       1.706  -7.694   3.116  0.00  0.00    +0.247 C 
ATOM     12  O   UNL     1       0.849  -6.970   2.648  0.00  0.00    -0.270 OA
ATOM     13  H   UNL     1       7.947  -9.576   3.751  0.00  0.00    -0.086 HD
ATOM     14  H   UNL     1       8.147  -7.976   3.419  0.00  0.00    -0.086 HD
ENDROOT
BRANCH  11  15
ATOM     15  C   UNL     1       1.548  -9.162   3.054  0.00  0.00    +0.037 A 
ATOM     16  C   UNL     1       2.259  -9.982   3.932  0.00  0.00    +0.013 A 
ATOM     17  C   UNL     1       2.107 -11.351   3.869  0.00  0.00    +0.013 A 
ATOM     18  C   UNL     1       1.252 -11.913   2.937  0.00  0.00    +0.055 A 
ATOM     19  C   UNL     1       0.544 -11.107   2.064  0.00  0.00    +0.013 A 
ATOM     20  C   UNL     1       0.682  -9.735   2.120  0.00  0.00    +0.013 A 
BRANCH  18  21
ATOM     21  C   UNL     1       1.091 -13.410   2.874  0.00  0.00    +0.417 C 
ATOM     22  F   UNL     1       0.050 -13.804   3.722  0.00  0.00    -0.166 F 
ATOM     23  F   UNL     1       0.792 -13.792   1.561  0.00  0.00    -0.166 F 
ATOM     24  F   UNL     1       2.280 -14.025   3.279  0.00  0.00    -0.166 F 
ENDBRANCH  18  21
ENDBRANCH  11  15
BRANCH   1  26
ATOM     25  N   UNL     1       5.860  -4.361   1.904  0.00  0.00    -0.309 N 
ATOM     26  C   UNL     1       4.742  -5.032   2.245  0.00  0.00    +0.219 C 
ATOM     27  O   UNL     1       3.877  -5.227   1.418  0.00  0.00    -0.275 OA
ATOM     28  H   UNL     1       6.553  -4.205   2.565  0.00  0.00    +0.149 HD
BRANCH  25  29
ATOM     29  C   UNL     1       6.029  -3.866   0.535  0.00  0.00    +0.161 C 
BRANCH  29  35
ATOM     30  C   UNL     1      10.931  -0.420   0.330  0.00  0.00    +0.005 A 
ATOM     31  C   UNL     1      11.526  -1.600  -0.148  0.00  0.00    +0.018 A 
ATOM     32  C   UNL     1      10.792  -2.724  -0.289  0.00  0.00    +0.092 A 
ATOM     33  N   UNL     1       9.465  -2.731   0.029  0.00  0.00    -0.306 N 
ATOM     34  C   UNL     1       8.508  -3.708  -0.017  0.00  0.00    +0.117 A 
ATOM     35  C   UNL     1       7.354  -3.156   0.418  0.00  0.00    +0.077 A 
ATOM     36  N   UNL     1       7.582  -1.877   0.726  0.00  0.00    -0.231 NA
ATOM     37  C   UNL     1       8.857  -1.596   0.498  0.00  0.00    +0.138 A 
ATOM     38  C   UNL     1       9.610  -0.414   0.651  0.00  0.00    +0.047 A 
ENDBRANCH  29  35
ENDBRANCH  25  29
ENDBRANCH   1  26
TORSDOF 5
