REMARK  Name = ZINC50424429
REMARK  4 active torsions:
REMARK  status: ('A' for Active; 'I' for Inactive)
REMARK    1  A    between atoms: C_6  and  C_7
REMARK    2  A    between atoms: C_7  and  C_13
REMARK    3  A    between atoms: C_19  and  C_22
REMARK    4  A    between atoms: N_24  and  C_25
REMARK                            x       y       z     vdW  Elec       q    Type
REMARK                         _______ _______ _______ _____ _____    ______ ____
ROOT
ATOM      1  C   UNL     1      -1.312  -0.774   0.010  0.00  0.00    +0.072 C 
ATOM      2  C   UNL     1      -1.135  -1.547  -1.298  0.00  0.00    +0.021 C 
ATOM      3  C   UNL     1      -2.278  -2.550  -1.456  0.00  0.00    +0.001 C 
ATOM      4  C   UNL     1      -3.613  -1.803  -1.482  0.00  0.00    +0.000 C 
ATOM      5  C   UNL     1      -3.790  -1.030  -0.174  0.00  0.00    +0.001 C 
ATOM      6  C   UNL     1      -2.646  -0.026  -0.016  0.00  0.00    +0.021 C 
ENDROOT
BRANCH   1  12
ATOM      7  C   UNL     1      -0.446   1.571   0.114  0.00  0.00    +0.008 A 
ATOM      8  C   UNL     1       0.585   2.483   0.256  0.00  0.00    +0.050 A 
ATOM      9  C   UNL     1       1.881   2.037   0.451  0.00  0.00    +0.166 A 
ATOM     10  C   UNL     1       2.144   0.670   0.504  0.00  0.00    +0.167 A 
ATOM     11  C   UNL     1       1.107  -0.237   0.360  0.00  0.00    +0.054 A 
ATOM     12  C   UNL     1      -0.185   0.215   0.166  0.00  0.00    -0.029 A 
ATOM     13  O   UNL     1       3.483   0.491   0.703  0.00  0.00    -0.453 OA
ATOM     14  C   UNL     1       4.094   1.749   0.363  0.00  0.00    +0.466 C 
ATOM     15  O   UNL     1       3.055   2.714   0.617  0.00  0.00    -0.453 OA
ENDBRANCH   1  12
BRANCH   1  16
ATOM     16  C   UNL     1      -1.298  -1.737   1.169  0.00  0.00    +0.226 C 
ATOM     17  O   UNL     1      -1.297  -2.932   0.964  0.00  0.00    -0.275 OA
ATOM     18  N   UNL     1      -1.288  -1.270   2.433  0.00  0.00    -0.300 N 
ATOM     19  C   UNL     1      -1.388   0.171   2.700  0.00  0.00    +0.108 C 
ATOM     20  C   UNL     1      -2.542   0.412   3.678  0.00  0.00    +0.020 C 
ATOM     21  C   UNL     1      -2.334  -0.446   4.928  0.00  0.00    +0.016 C 
ATOM     22  C   UNL     1      -2.333  -1.926   4.539  0.00  0.00    +0.092 C 
ATOM     23  C   UNL     1      -1.182  -2.194   3.571  0.00  0.00    +0.120 C 
BRANCH  22  24
ATOM     24  C   UNL     1      -2.161  -2.771   5.775  0.00  0.00    +0.218 C 
ATOM     25  O   UNL     1      -1.209  -3.516   5.873  0.00  0.00    -0.275 OA
ATOM     26  N   UNL     1      -3.065  -2.698   6.772  0.00  0.00    -0.312 N 
ATOM     27  H   UNL     1      -3.826  -2.101   6.694  0.00  0.00    +0.149 HD
BRANCH  26  28
ATOM     28  C   UNL     1      -2.898  -3.519   7.973  0.00  0.00    +0.073 C 
ATOM     29  C   UNL     1      -4.140  -4.221   8.527  0.00  0.00    +0.024 C 
ATOM     30  C   UNL     1      -3.547  -3.020   9.266  0.00  0.00    +0.024 C 
ENDBRANCH  26  28
ENDBRANCH  22  24
ENDBRANCH   1  16
TORSDOF 4
