REMARK  Name = ZINC44699243
REMARK  16 active torsions:
REMARK  status: ('A' for Active; 'I' for Inactive)
REMARK    1  A    between atoms: C_1  and  C_2
REMARK    2  A    between atoms: C_2  and  O_4
REMARK    3  A    between atoms: O_4  and  C_5
REMARK    4  A    between atoms: C_5  and  C_6
REMARK    5  A    between atoms: C_8  and  O_36
REMARK    6  A    between atoms: C_10  and  O_32
REMARK    7  A    between atoms: C_12  and  O_28
REMARK    8  A    between atoms: C_14  and  O_17
REMARK    9  A    between atoms: O_17  and  C_18
REMARK   10  A    between atoms: C_21  and  N_25
REMARK   11  A    between atoms: O_28  and  C_29
REMARK   12  A    between atoms: C_29  and  C_31
REMARK   13  A    between atoms: O_32  and  C_33
REMARK   14  A    between atoms: C_33  and  C_35
REMARK   15  A    between atoms: O_36  and  C_37
REMARK   16  A    between atoms: C_37  and  C_39
REMARK                            x       y       z     vdW  Elec       q    Type
REMARK                         _______ _______ _______ _____ _____    ______ ____
ROOT
ATOM      1  C   UNL     1       0.015  -2.673  -2.514  0.00  0.00    +0.204 C 
ATOM      2  C   UNL     1       0.161  -4.196  -2.446  0.00  0.00    +0.253 C 
ATOM      3  C   UNL     1       0.094  -4.771  -3.864  0.00  0.00    +0.266 C 
ATOM      4  C   UNL     1      -1.224  -4.343  -4.515  0.00  0.00    +0.289 C 
ATOM      5  C   UNL     1      -1.317  -2.815  -4.504  0.00  0.00    +0.353 C 
ATOM      6  O   UNL     1      -1.217  -2.343  -3.158  0.00  0.00    -0.328 OA
ENDROOT
BRANCH   1   7
ATOM      7  C   UNL     1       0.020  -2.096  -1.097  0.00  0.00    +0.267 C 
BRANCH   7   8
ATOM      8  O   UNL     1       0.000  -0.669  -1.164  0.00  0.00    -0.462 OA
BRANCH   8  10
ATOM      9  C   UNL     1      -0.018   1.503   0.010  0.00  0.00    +0.136 C 
ATOM     10  C   UNL     1       0.002  -0.004   0.002  0.00  0.00    +0.304 C 
ATOM     11  O   UNL     1       0.020  -0.614   1.045  0.00  0.00    -0.251 OA
ENDBRANCH   8  10
ENDBRANCH   7   8
ENDBRANCH   1   7
BRANCH   5  12
ATOM     12  O   UNL     1      -0.251  -2.267  -5.281  0.00  0.00    -0.458 OA
BRANCH  12  13
ATOM     13  C   UNL     1      -0.248  -0.919  -5.461  0.00  0.00    +0.142 A 
ATOM     14  C   UNL     1      -1.247  -0.141  -4.896  0.00  0.00    +0.049 A 
ATOM     15  C   UNL     1      -1.242   1.229  -5.079  0.00  0.00    +0.036 A 
ATOM     16  C   UNL     1      -0.242   1.824  -5.826  0.00  0.00    +0.128 A 
ATOM     17  C   UNL     1       0.755   1.051  -6.391  0.00  0.00    +0.056 A 
ATOM     18  C   UNL     1       0.758  -0.319  -6.206  0.00  0.00    +0.085 A 
ATOM     19 CL   UNL     1       2.014  -1.289  -6.910  0.00  0.00    -0.080 Cl
BRANCH  16  20
ATOM     20  N   UNL     1      -0.239   3.291  -6.021  0.00  0.00    +0.056 N 
ATOM     21  O   UNL     1      -1.111   3.968  -5.528  0.00  0.00    -0.126 OA
ATOM     22  O   UNL     1       0.635   3.812  -6.674  0.00  0.00    -0.126 OA
ENDBRANCH  16  20
ENDBRANCH  12  13
ENDBRANCH   5  12
BRANCH   4  23
ATOM     23  O   UNL     1      -2.320  -4.895  -3.783  0.00  0.00    -0.451 OA
BRANCH  23  24
ATOM     24  C   UNL     1      -3.438  -5.168  -4.473  0.00  0.00    +0.305 C 
ATOM     25  O   UNL     1      -3.485  -4.946  -5.660  0.00  0.00    -0.251 OA
ATOM     26  C   UNL     1      -4.636  -5.752  -3.768  0.00  0.00    +0.136 C 
ENDBRANCH  23  24
ENDBRANCH   4  23
BRANCH   3  27
ATOM     27  O   UNL     1       1.192  -4.277  -4.633  0.00  0.00    -0.454 OA
BRANCH  27  28
ATOM     28  C   UNL     1       1.662  -5.072  -5.607  0.00  0.00    +0.304 C 
ATOM     29  O   UNL     1       1.157  -6.153  -5.800  0.00  0.00    -0.251 OA
ATOM     30  C   UNL     1       2.818  -4.618  -6.459  0.00  0.00    +0.136 C 
ENDBRANCH  27  28
ENDBRANCH   3  27
BRANCH   2  31
ATOM     31  O   UNL     1      -0.897  -4.742  -1.657  0.00  0.00    -0.455 OA
BRANCH  31  32
ATOM     32  C   UNL     1      -0.673  -4.867  -0.339  0.00  0.00    +0.304 C 
ATOM     33  O   UNL     1       0.386  -4.522   0.129  0.00  0.00    -0.251 OA
ATOM     34  C   UNL     1      -1.744  -5.435   0.557  0.00  0.00    +0.136 C 
ENDBRANCH  31  32
ENDBRANCH   2  31
TORSDOF 12
