REMARK  Name = ZINC40019654
REMARK  17 active torsions:
REMARK  status: ('A' for Active; 'I' for Inactive)
REMARK    1  A    between atoms: C_1  and  C_2
REMARK    2  A    between atoms: C_2  and  C_3
REMARK    3  A    between atoms: C_3  and  C_4
REMARK    4  A    between atoms: C_4  and  N_5
REMARK    5  A    between atoms: N_5  and  C_6
REMARK    6  A    between atoms: N_5  and  C_10
REMARK    7  A    between atoms: C_6  and  C_7
REMARK    8  A    between atoms: C_7  and  C_8
REMARK    9  A    between atoms: C_8  and  C_9
REMARK   10  A    between atoms: C_10  and  C_11
REMARK   11  A    between atoms: C_11  and  C_12
REMARK   12  A    between atoms: C_12  and  N_13
REMARK   13  A    between atoms: C_14  and  C_33
REMARK   14  A    between atoms: C_16  and  C_21
REMARK   15  A    between atoms: C_21  and  C_23
REMARK   16  A    between atoms: C_36  and  C_39
REMARK   17  A    between atoms: C_39  and  C_40
REMARK                            x       y       z     vdW  Elec       q    Type
REMARK                         _______ _______ _______ _____ _____    ______ ____
ROOT
ATOM      1  N   UNL     1      -2.505  -6.477  -3.758  0.00  0.00    -0.284 N 
ATOM      2  C   UNL     1      -3.625  -6.782  -2.859  0.00  0.00    +0.145 C 
ATOM      3  C   UNL     1      -4.777  -7.192  -3.746  0.00  0.00    +0.076 C 
ATOM      4  C   UNL     1      -4.333  -7.120  -5.022  0.00  0.00    +0.249 C 
ATOM      5  C   UNL     1      -2.925  -6.670  -5.021  0.00  0.00    +0.288 C 
ATOM      6  O   UNL     1      -2.246  -6.503  -6.015  0.00  0.00    -0.266 OA
ATOM      7  O   UNL     1      -5.063  -7.409  -6.124  0.00  0.00    -0.282 OA
ENDROOT
BRANCH   2   8
ATOM      8  C   UNL     1      -3.994  -5.559  -2.059  0.00  0.00    -0.022 A 
ATOM      9  C   UNL     1      -4.204  -4.352  -2.699  0.00  0.00    +0.006 A 
ATOM     10  C   UNL     1      -4.543  -3.231  -1.964  0.00  0.00    +0.004 A 
ATOM     11  C   UNL     1      -4.673  -3.317  -0.591  0.00  0.00    -0.048 A 
ATOM     12  C   UNL     1      -4.465  -4.525   0.049  0.00  0.00    +0.004 A 
ATOM     13  C   UNL     1      -4.130  -5.647  -0.686  0.00  0.00    +0.006 A 
BRANCH  11  14
ATOM     14  C   UNL     1      -5.042  -2.095   0.209  0.00  0.00    +0.032 C 
ATOM     15  C   UNL     1      -6.565  -2.003   0.327  0.00  0.00    +0.009 C 
ENDBRANCH  11  14
ENDBRANCH   2   8
BRANCH   3  16
ATOM     16  C   UNL     1      -6.118  -7.592  -3.308  0.00  0.00    +0.195 C 
ATOM     17  O   UNL     1      -7.079  -6.895  -3.577  0.00  0.00    -0.287 OA
BRANCH  16  18
ATOM     18  C   UNL     1      -6.303  -8.839  -2.540  0.00  0.00    +0.026 A 
ATOM     19  C   UNL     1      -5.206  -9.661  -2.263  0.00  0.00    +0.015 A 
ATOM     20  C   UNL     1      -5.381 -10.824  -1.548  0.00  0.00    +0.050 A 
ATOM     21  C   UNL     1      -6.647 -11.186  -1.098  0.00  0.00    +0.162 A 
ATOM     22  C   UNL     1      -7.743 -10.371  -1.369  0.00  0.00    +0.163 A 
ATOM     23  C   UNL     1      -7.573  -9.200  -2.083  0.00  0.00    +0.061 A 
ATOM     24  O   UNL     1      -8.987 -10.707  -0.928  0.00  0.00    -0.485 OA
ATOM     25  C   UNL     1      -9.182 -12.069  -0.531  0.00  0.00    +0.270 C 
ATOM     26  C   UNL     1      -8.003 -12.483   0.360  0.00  0.00    +0.270 C 
ATOM     27  O   UNL     1      -6.796 -12.341  -0.397  0.00  0.00    -0.485 OA
ENDBRANCH  16  18
ENDBRANCH   3  16
BRANCH   1  28
ATOM     28  C   UNL     1      -1.169  -6.034  -3.352  0.00  0.00    +0.107 C 
BRANCH  28  29
ATOM     29  C   UNL     1      -1.139  -4.506  -3.276  0.00  0.00    +0.000 C 
BRANCH  29  30
ATOM     30  C   UNL     1       0.256  -4.044  -2.852  0.00  0.00    -0.077 C 
BRANCH  30  31
ATOM     31  N   UNL     1       0.285  -2.577  -2.780  0.00  0.00    +0.380 N 
ATOM     32  H   UNL     1      -0.015  -2.191  -3.662  0.00  0.00    -0.082 HD
BRANCH  31  33
ATOM     33  C   UNL     1      -0.616  -2.122  -1.713  0.00  0.00    -0.079 C 
BRANCH  33  34
ATOM     34  C   UNL     1      -0.693  -0.594  -1.728  0.00  0.00    -0.019 C 
BRANCH  34  36
ATOM     35  C   UNL     1      -1.807   1.403  -0.721  0.00  0.00    +0.004 C 
ATOM     36  C   UNL     1      -1.730  -0.125  -0.706  0.00  0.00    -0.005 C 
ENDBRANCH  34  36
ENDBRANCH  33  34
ENDBRANCH  31  33
BRANCH  31  37
ATOM     37  C   UNL     1       1.654  -2.128  -2.490  0.00  0.00    -0.079 C 
BRANCH  37  38
ATOM     38  C   UNL     1       2.565  -2.477  -3.668  0.00  0.00    -0.019 C 
BRANCH  38  39
ATOM     39  C   UNL     1       3.959  -1.895  -3.424  0.00  0.00    -0.005 C 
ATOM     40  C   UNL     1       4.871  -2.244  -4.602  0.00  0.00    +0.004 C 
ENDBRANCH  38  39
ENDBRANCH  37  38
ENDBRANCH  31  37
ENDBRANCH  30  31
ENDBRANCH  29  30
ENDBRANCH  28  29
ENDBRANCH   1  28
TORSDOF 14
