REMARK  Name = ZINC36205514
REMARK  11 active torsions:
REMARK  status: ('A' for Active; 'I' for Inactive)
REMARK    1  A    between atoms: C_1  and  C_2
REMARK    2  A    between atoms: C_2  and  O_3
REMARK    3  A    between atoms: O_3  and  C_4
REMARK    4  A    between atoms: C_4  and  C_5
REMARK    5  A    between atoms: C_5  and  C_7
REMARK    6  A    between atoms: C_5  and  O_33
REMARK    7  A    between atoms: C_7  and  N_8
REMARK    8  A    between atoms: N_8  and  C_9
REMARK    9  A    between atoms: N_8  and  C_27
REMARK   10  A    between atoms: C_9  and  C_10
REMARK   11  A    between atoms: C_16  and  C_21
REMARK                            x       y       z     vdW  Elec       q    Type
REMARK                         _______ _______ _______ _____ _____    ______ ____
ROOT
ATOM      1  C   UNL     1       2.446  -5.620  -4.033  0.00  0.00    -0.003 C 
ENDROOT
BRANCH   1   2
ATOM      2  C   UNL     1       3.099  -5.961  -5.348  0.00  0.00    +0.094 A 
ATOM      3  N   UNL     1       3.166  -7.259  -5.742  0.00  0.00    -0.312 N 
ATOM      4  H   UNL     1       2.793  -7.949  -5.172  0.00  0.00    +0.170 HD
ATOM      5  C   UNL     1       3.740  -7.606  -6.909  0.00  0.00    +0.260 A 
ATOM      6  O   UNL     1       3.791  -8.775  -7.249  0.00  0.00    -0.267 OA
ATOM      7  C   UNL     1       4.288  -6.581  -7.745  0.00  0.00    +0.080 A 
ATOM      8  C   UNL     1       4.951  -6.702  -9.037  0.00  0.00    +0.004 A 
ATOM      9  C   UNL     1       5.393  -5.577  -9.650  0.00  0.00    +0.056 A 
ATOM     10  S   UNL     1       4.937  -4.282  -8.514  0.00  0.00    -0.076 S 
ATOM     11  C   UNL     1       4.172  -5.270  -7.255  0.00  0.00    +0.116 A 
ATOM     12  N   UNL     1       3.585  -5.004  -6.091  0.00  0.00    -0.229 NA
BRANCH   8  13
ATOM     13  C   UNL     1       5.139  -8.029  -9.669  0.00  0.00    -0.017 A 
ATOM     14  C   UNL     1       5.686  -9.082  -8.936  0.00  0.00    +0.008 A 
ATOM     15  C   UNL     1       5.858 -10.316  -9.529  0.00  0.00    +0.001 A 
ATOM     16  C   UNL     1       5.490 -10.510 -10.848  0.00  0.00    +0.000 A 
ATOM     17  C   UNL     1       4.947  -9.469 -11.581  0.00  0.00    +0.001 A 
ATOM     18  C   UNL     1       4.765  -8.232 -10.996  0.00  0.00    +0.008 A 
ENDBRANCH   8  13
ENDBRANCH   1   2
BRANCH   1  19
ATOM     19  N   UNL     1       2.638  -4.191  -3.748  0.00  0.00    +0.388 N 
ATOM     20  H   UNL     1       2.615  -3.670  -4.611  0.00  0.00    -0.081 HD
BRANCH  19  21
ATOM     21  C   UNL     1       3.937  -3.994  -3.090  0.00  0.00    -0.068 C 
ATOM     22  C   UNL     1       3.941  -4.716  -1.742  0.00  0.00    -0.015 C 
ATOM     23  C   UNL     1       5.294  -4.510  -1.057  0.00  0.00    -0.002 C 
ATOM     24  C   UNL     1       6.405  -5.077  -1.943  0.00  0.00    -0.000 C 
ATOM     25  C   UNL     1       6.401  -4.354  -3.291  0.00  0.00    -0.002 C 
ATOM     26  C   UNL     1       5.048  -4.560  -3.976  0.00  0.00    -0.015 C 
ENDBRANCH  19  21
BRANCH  19  27
ATOM     27  C   UNL     1       1.565  -3.720  -2.862  0.00  0.00    -0.044 C 
BRANCH  27  28
ATOM     28  C   UNL     1       1.691  -2.208  -2.667  0.00  0.00    +0.124 C 
BRANCH  28  29
ATOM     29  O   UNL     1       1.580  -1.554  -3.933  0.00  0.00    -0.391 OA
ATOM     30  H   UNL     1       0.741  -1.714  -4.386  0.00  0.00    +0.210 HD
ENDBRANCH  28  29
BRANCH  28  31
ATOM     31  C   UNL     1       0.576  -1.718  -1.741  0.00  0.00    +0.189 C 
BRANCH  31  32
ATOM     32  O   UNL     1       0.762  -0.329  -1.465  0.00  0.00    -0.378 OA
BRANCH  32  34
ATOM     33  C   UNL     1       0.066   1.715  -0.379  0.00  0.00    +0.034 C 
ATOM     34  C   UNL     1      -0.231   0.231  -0.603  0.00  0.00    +0.156 C 
ENDBRANCH  32  34
ENDBRANCH  31  32
ENDBRANCH  28  31
ENDBRANCH  27  28
ENDBRANCH  19  27
ENDBRANCH   1  19
TORSDOF 10
