REMARK  Name = ZINC11880648
REMARK  14 active torsions:
REMARK  status: ('A' for Active; 'I' for Inactive)
REMARK    1  A    between atoms: C_1  and  C_2
REMARK    2  A    between atoms: C_7  and  C_8
REMARK    3  A    between atoms: C_8  and  C_9
REMARK    4  A    between atoms: C_9  and  C_21
REMARK    5  A    between atoms: N_12  and  C_16
REMARK    6  A    between atoms: C_16  and  C_17
REMARK    7  A    between atoms: C_17  and  C_18
REMARK    8  A    between atoms: C_18  and  N_74
REMARK    9  A    between atoms: C_19  and  N_74
REMARK   10  A    between atoms: C_20  and  N_74
REMARK   11  A    between atoms: C_27  and  C_29
REMARK   12  A    between atoms: C_30  and  C_31
REMARK   13  A    between atoms: C_31  and  C_32
REMARK   14  A    between atoms: C_31  and  C_33
REMARK                            x       y       z     vdW  Elec       q    Type
REMARK                         _______ _______ _______ _____ _____    ______ ____
ROOT
ATOM      1  C   UNL     1      -2.425   3.799   1.380  0.00  0.00    +0.119 C 
ATOM      2  C   UNL     1      -2.402   2.472   2.113  0.00  0.00    +0.247 C 
ATOM      3  O   UNL     1      -3.099   1.504   1.897  0.00  0.00    -0.273 OA
ATOM      4  N   UNL     1      -1.446   2.593   3.055  0.00  0.00    -0.224 N 
ATOM      5  C   UNL     1      -0.867   3.799   3.019  0.00  0.00    +0.309 C 
ATOM      6  O   UNL     1       0.022   4.144   3.772  0.00  0.00    -0.252 OA
ATOM      7  N   UNL     1      -1.383   4.590   2.057  0.00  0.00    -0.284 N 
ATOM      8  H   UNL     1      -1.120   5.500   1.849  0.00  0.00    +0.151 HD
ENDROOT
BRANCH   1   9
ATOM      9  C   UNL     1      -3.792   4.471   1.526  0.00  0.00    +0.025 C 
ATOM     10  C   UNL     1      -3.764   5.837   0.836  0.00  0.00    +0.025 C 
ATOM     11  C   UNL     1      -5.144   6.492   0.954  0.00  0.00    +0.108 C 
ATOM     12  N   UNL     1      -5.525   6.540   2.373  0.00  0.00    -0.298 N 
ATOM     13  C   UNL     1      -5.497   5.296   3.154  0.00  0.00    +0.108 C 
ATOM     14  C   UNL     1      -4.113   4.654   3.011  0.00  0.00    +0.025 C 
ATOM     15  C   UNL     1      -5.892   7.703   2.946  0.00  0.00    +0.239 C 
ATOM     16  O   UNL     1      -6.292   7.715   4.095  0.00  0.00    -0.271 OA
BRANCH  15  17
ATOM     17  C   UNL     1      -5.811   8.957   2.182  0.00  0.00    +0.063 C 
ATOM     18  C   UNL     1      -6.070  10.117   2.779  0.00  0.00    -0.019 C 
BRANCH  18  19
ATOM     19  C   UNL     1      -5.986  11.402   1.997  0.00  0.00    +0.006 C 
ATOM     20  C   UNL     1      -7.348  12.098   2.012  0.00  0.00    +0.011 C 
ATOM     21  C   UNL     1      -4.938  12.319   2.632  0.00  0.00    +0.011 C 
ENDBRANCH  18  19
ENDBRANCH  15  17
ENDBRANCH   1   9
BRANCH   1  22
ATOM     22  C   UNL     1      -2.078   3.603  -0.097  0.00  0.00    +0.071 C 
BRANCH  22  29
ATOM     23  C   UNL     1      -1.619   0.773  -0.453  0.00  0.00    +0.044 C 
ATOM     24  C   UNL     1      -0.451   1.724  -0.388  0.00  0.00    -0.047 A 
ATOM     25  C   UNL     1       0.840   1.240  -0.492  0.00  0.00    +0.003 A 
ATOM     26  C   UNL     1       1.911   2.113  -0.438  0.00  0.00    +0.000 A 
ATOM     27  C   UNL     1       1.691   3.468  -0.274  0.00  0.00    +0.000 A 
ATOM     28  C   UNL     1       0.400   3.950  -0.164  0.00  0.00    +0.004 A 
ATOM     29  C   UNL     1      -0.671   3.078  -0.218  0.00  0.00    -0.042 A 
ENDBRANCH  22  29
ENDBRANCH   1  22
BRANCH   4  30
ATOM     30  C   UNL     1      -1.085   1.535   4.002  0.00  0.00    +0.116 C 
BRANCH  30  31
ATOM     31  C   UNL     1       0.022   0.667   3.399  0.00  0.00    +0.001 C 
BRANCH  31  32
ATOM     32  C   UNL     1       0.399  -0.438   4.388  0.00  0.00    -0.078 C 
BRANCH  32  35
ATOM     33  C   UNL     1       2.705  -0.504   3.652  0.00  0.00    -0.097 C 
ATOM     34  C   UNL     1       1.686  -2.476   4.619  0.00  0.00    -0.097 C 
ATOM     35  N   UNL     1       1.453  -1.280   3.784  0.00  0.00    +0.376 N 
ATOM     36  H   UNL     1       1.147  -1.579   2.850  0.00  0.00    -0.083 HD
ENDBRANCH  32  35
ENDBRANCH  31  32
ENDBRANCH  30  31
ENDBRANCH   4  30
TORSDOF 9
