REMARK  Name = ZINC04236199
REMARK  4 active torsions:
REMARK  status: ('A' for Active; 'I' for Inactive)
REMARK    1  A    between atoms: C_3  and  C_9
REMARK    2  A    between atoms: C_6  and  C_7
REMARK    3  A    between atoms: N_11  and  C_12
REMARK    4  A    between atoms: N_30  and  C_31
REMARK                            x       y       z     vdW  Elec       q    Type
REMARK                         _______ _______ _______ _____ _____    ______ ____
ROOT
ATOM      1  C   UNL     1      -1.304   1.998  -0.086  0.00  0.00    +0.099 A 
ATOM      2  C   UNL     1      -1.266   3.363  -0.172  0.00  0.00    +0.030 A 
ATOM      3  C   UNL     1      -0.030   4.011  -0.087  0.00  0.00    +0.024 A 
ATOM      4  C   UNL     1       1.117   3.299   0.074  0.00  0.00    +0.027 A 
ATOM      5  N   UNL     1       1.091   1.944   0.085  0.00  0.00    -0.310 N 
ATOM      6  C   UNL     1      -0.097   1.290   0.070  0.00  0.00    +0.273 A 
ATOM      7  O   UNL     1      -0.119   0.075   0.189  0.00  0.00    -0.266 OA
ATOM      8  C   UNL     1       2.300   1.120   0.074  0.00  0.00    +0.130 C 
ATOM      9  C   UNL     1       3.528   1.887   0.531  0.00  0.00    +0.027 C 
ATOM     10  C   UNL     1       3.591   3.239  -0.180  0.00  0.00    +0.018 C 
ATOM     11  C   UNL     1       2.395   4.080   0.275  0.00  0.00    +0.054 C 
ATOM     12  C   UNL     1       2.543   4.356   1.781  0.00  0.00    +0.119 C 
ATOM     13  N   UNL     1       2.570   3.053   2.465  0.00  0.00    -0.285 N 
ATOM     14  C   UNL     1       3.565   2.060   2.042  0.00  0.00    +0.114 C 
ATOM     15  C   UNL     1       1.700   2.778   3.457  0.00  0.00    +0.302 C 
ATOM     16  O   UNL     1       0.942   3.640   3.858  0.00  0.00    -0.253 OA
ATOM     17  N   UNL     1       1.670   1.547   4.005  0.00  0.00    -0.296 N 
ATOM     18  H   UNL     1       2.323   0.881   3.737  0.00  0.00    +0.151 HD
ENDROOT
BRANCH  17  19
ATOM     19  C   UNL     1       0.653   1.215   5.005  0.00  0.00    +0.074 C 
ATOM     20  C   UNL     1       1.133   1.659   6.388  0.00  0.00    +0.022 C 
ATOM     21  C   UNL     1       0.070   1.312   7.433  0.00  0.00    +0.002 C 
ATOM     22  C   UNL     1      -0.167  -0.200   7.436  0.00  0.00    +0.000 C 
ATOM     23  C   UNL     1      -0.647  -0.644   6.053  0.00  0.00    +0.002 C 
ATOM     24  C   UNL     1       0.415  -0.297   5.009  0.00  0.00    +0.022 C 
ENDBRANCH  17  19
BRANCH   1  27
ATOM     25  C   UNL     1      -2.727   0.378  -1.095  0.00  0.00    +0.248 C 
ATOM     26  O   UNL     1      -1.885   0.187  -1.950  0.00  0.00    -0.270 OA
ATOM     27  N   UNL     1      -2.526   1.315  -0.147  0.00  0.00    -0.277 N 
ATOM     28  H   UNL     1      -3.226   1.516   0.492  0.00  0.00    +0.155 HD
BRANCH  25  31
ATOM     29  C   UNL     1      -5.343  -2.130  -2.076  0.00  0.00    +0.019 A 
ATOM     30  C   UNL     1      -4.182  -1.389  -2.076  0.00  0.00    +0.014 A 
ATOM     31  C   UNL     1      -3.974  -0.418  -1.094  0.00  0.00    +0.037 A 
ATOM     32  C   UNL     1      -4.939  -0.203  -0.108  0.00  0.00    +0.014 A 
ATOM     33  C   UNL     1      -6.102  -0.940  -0.111  0.00  0.00    +0.019 A 
ATOM     34  C   UNL     1      -6.311  -1.911  -1.093  0.00  0.00    +0.052 A 
BRANCH  34  35
ATOM     35  C   UNL     1      -7.518  -2.683  -1.092  0.00  0.00    +0.099 C 
ATOM     36  N   UNL     1      -8.475  -3.294  -1.091  0.00  0.00    -0.191 NA
ENDBRANCH  34  35
ENDBRANCH  25  31
ENDBRANCH   1  27
TORSDOF 4
