REMARK  Name = ZINC61713533
REMARK  3 active torsions:
REMARK  status: ('A' for Active; 'I' for Inactive)
REMARK    1  A    between atoms: C_9  and  C_11
REMARK    2  A    between atoms: C_14  and  C_16
REMARK    3  A    between atoms: C_16  and  N_20
REMARK                            x       y       z     vdW  Elec       q    Type
REMARK                         _______ _______ _______ _____ _____    ______ ____
ROOT
ATOM      1  C   UNL     1       5.985   0.927  -0.049  0.00  0.00    +0.113 A 
ATOM      2  C   UNL     1       6.789  -0.178  -0.169  0.00  0.00    +0.078 A 
ATOM      3  S   UNL     1       8.404   0.581  -0.121  0.00  0.00    -0.081 S 
ATOM      4  C   UNL     1       7.907   2.181   0.043  0.00  0.00    +0.068 A 
ATOM      5  N   UNL     1       6.603   2.097   0.049  0.00  0.00    -0.242 NA
ENDROOT
BRANCH   1  14
ATOM      6  C   UNL     1      -0.017   1.384   0.010  0.00  0.00    +0.019 A 
ATOM      7  C   UNL     1       1.159   2.104   0.002  0.00  0.00    +0.048 A 
ATOM      8  C   UNL     1       2.379   1.442  -0.013  0.00  0.00    +0.136 A 
ATOM      9  C   UNL     1       2.399   0.035  -0.021  0.00  0.00    +0.022 A 
ATOM     10  C   UNL     1       1.202  -0.682  -0.013  0.00  0.00    +0.027 A 
ATOM     11  C   UNL     1       0.002  -0.004   0.002  0.00  0.00    +0.019 A 
ATOM     12 BR   UNL     1      -1.625  -0.968   0.013  0.00  0.00    -0.050 Br
ATOM     13  C   UNL     1       3.814  -0.341  -0.036  0.00  0.00    +0.060 A 
ATOM     14  C   UNL     1       4.512   0.821  -0.036  0.00  0.00    +0.155 A 
ATOM     15  O   UNL     1       3.660   1.865  -0.023  0.00  0.00    -0.453 OA
ENDBRANCH   1  14
BRANCH   4  16
ATOM     16  C   UNL     1       8.763   3.416   0.150  0.00  0.00    -0.021 C 
ATOM     17  C   UNL     1       9.085   3.819   1.599  0.00  0.00    -0.006 C 
ATOM     18  C   UNL     1      10.503   4.156   1.107  0.00  0.00    -0.002 C 
ATOM     19  C   UNL     1      10.266   3.142  -0.024  0.00  0.00    -0.006 C 
BRANCH  16  20
ATOM     20  N   UNL     1       8.268   4.526  -0.676  0.00  0.00    +0.386 N 
ATOM     21  H   UNL     1       7.286   4.668  -0.495  0.00  0.00    -0.089 HD
ATOM     22  H   UNL     1       8.777   5.367  -0.448  0.00  0.00    -0.089 HD
ATOM     23  H   UNL     1       8.402   4.306  -1.651  0.00  0.00    -0.089 HD
ENDBRANCH  16  20
ENDBRANCH   4  16
TORSDOF 3
