REMARK  Name = ZINC39667466
REMARK  10 active torsions:
REMARK  status: ('A' for Active; 'I' for Inactive)
REMARK    1  A    between atoms: C_1  and  C_2
REMARK    2  A    between atoms: C_6  and  C_9
REMARK    3  A    between atoms: C_7  and  C_8
REMARK    4  A    between atoms: C_9  and  N_10
REMARK    5  A    between atoms: C_11  and  C_13
REMARK    6  A    between atoms: C_24  and  C_26
REMARK    7  A    between atoms: C_28  and  O_34
REMARK    8  A    between atoms: C_30  and  O_32
REMARK    9  A    between atoms: O_32  and  C_33
REMARK   10  A    between atoms: O_34  and  C_35
REMARK                            x       y       z     vdW  Elec       q    Type
REMARK                         _______ _______ _______ _____ _____    ______ ____
ROOT
ATOM      1  C   UNL     1      -2.462  -3.150   5.041  0.00  0.00    +0.100 C 
ATOM      2  C   UNL     1      -3.243  -1.855   5.353  0.00  0.00    +0.121 C 
ATOM      3  N   UNL     1      -4.043  -2.180   6.558  0.00  0.00    -0.296 N 
ATOM      4  C   UNL     1      -3.135  -3.005   7.391  0.00  0.00    +0.115 C 
ATOM      5  C   UNL     1      -2.392  -3.902   6.381  0.00  0.00    -0.004 C 
ATOM      6  C   UNL     1      -0.939  -4.086   6.809  0.00  0.00    -0.010 C 
ATOM      7  C   UNL     1      -0.894  -4.887   8.113  0.00  0.00    -0.082 C 
ATOM      8  N   UNL     1      -1.534  -6.192   7.911  0.00  0.00    +0.379 N 
ATOM      9  C   UNL     1      -2.955  -6.008   7.591  0.00  0.00    -0.082 C 
ATOM     10  C   UNL     1      -3.088  -5.255   6.265  0.00  0.00    -0.010 C 
ATOM     11  C   UNL     1      -5.309  -1.811   6.833  0.00  0.00    +0.247 C 
ATOM     12  O   UNL     1      -5.973  -1.239   5.990  0.00  0.00    -0.270 OA
ATOM     13  H   UNL     1      -1.079  -6.675   7.151  0.00  0.00    -0.086 HD
ATOM     14  H   UNL     1      -1.449  -6.741   8.754  0.00  0.00    -0.086 HD
ENDROOT
BRANCH  11  15
ATOM     15  C   UNL     1      -5.892  -2.102   8.161  0.00  0.00    +0.044 A 
ATOM     16  C   UNL     1      -5.058  -2.347   9.252  0.00  0.00    +0.059 A 
ATOM     17  C   UNL     1      -5.608  -2.618  10.494  0.00  0.00    +0.124 A 
ATOM     18  C   UNL     1      -6.986  -2.646  10.654  0.00  0.00    +0.091 A 
ATOM     19  C   UNL     1      -7.819  -2.403   9.571  0.00  0.00    +0.124 A 
ATOM     20  C   UNL     1      -7.277  -2.125   8.327  0.00  0.00    +0.059 A 
BRANCH  19  21
ATOM     21  O   UNL     1      -9.168  -2.432   9.733  0.00  0.00    -0.495 OA
ATOM     22  C   UNL     1      -9.658  -2.719  11.044  0.00  0.00    +0.277 C 
ENDBRANCH  19  21
BRANCH  17  23
ATOM     23  O   UNL     1      -4.797  -2.857  11.558  0.00  0.00    -0.495 OA
ATOM     24  C   UNL     1      -5.431  -3.130  12.809  0.00  0.00    +0.277 C 
ENDBRANCH  17  23
ENDBRANCH  11  15
BRANCH   1  26
ATOM     25  N   UNL     1      -0.452  -3.648   3.687  0.00  0.00    -0.311 N 
ATOM     26  C   UNL     1      -1.075  -2.822   4.551  0.00  0.00    +0.218 C 
ATOM     27  O   UNL     1      -0.519  -1.814   4.934  0.00  0.00    -0.275 OA
ATOM     28  H   UNL     1      -0.897  -4.454   3.381  0.00  0.00    +0.149 HD
BRANCH  25  29
ATOM     29  C   UNL     1       0.896  -3.328   3.211  0.00  0.00    +0.139 C 
BRANCH  29  35
ATOM     30  C   UNL     1       0.890  -5.379  -1.354  0.00  0.00    +0.044 C 
ATOM     31  C   UNL     1       1.358  -5.384   0.078  0.00  0.00    -0.047 A 
ATOM     32  C   UNL     1       2.214  -6.375   0.523  0.00  0.00    +0.003 A 
ATOM     33  C   UNL     1       2.643  -6.380   1.837  0.00  0.00    +0.001 A 
ATOM     34  C   UNL     1       2.216  -5.394   2.707  0.00  0.00    +0.005 A 
ATOM     35  C   UNL     1       1.361  -4.403   2.262  0.00  0.00    -0.027 A 
ATOM     36  C   UNL     1       0.936  -4.396   0.947  0.00  0.00    -0.043 A 
ATOM     37  C   UNL     1       0.007  -3.312   0.461  0.00  0.00    +0.044 C 
ENDBRANCH  29  35
ENDBRANCH  25  29
ENDBRANCH   1  26
TORSDOF 6
