REMARK  Name = ZINC06702818
REMARK  9 active torsions:
REMARK  status: ('A' for Active; 'I' for Inactive)
REMARK    1  A    between atoms: C_1  and  C_2
REMARK    2  A    between atoms: C_5  and  S_8
REMARK    3  A    between atoms: S_8  and  N_11
REMARK    4  A    between atoms: C_14  and  C_17
REMARK    5  A    between atoms: N_19  and  C_20
REMARK    6  A    between atoms: C_22  and  C_28
REMARK    7  A    between atoms: C_22  and  C_29
REMARK    8  A    between atoms: C_24  and  C_26
REMARK    9  A    between atoms: C_24  and  C_27
REMARK                            x       y       z     vdW  Elec       q    Type
REMARK                         _______ _______ _______ _____ _____    ______ ____
ROOT
ATOM      1  N   UNL     1       1.581  -5.830  -0.381  0.00  0.00    -0.177 NA
ATOM      2  C   UNL     1       2.352  -6.007  -1.619  0.00  0.00    +0.110 C 
ATOM      3  C   UNL     1       3.082  -7.353  -1.557  0.00  0.00    +0.030 C 
ATOM      4  C   UNL     1       3.921  -7.416  -0.279  0.00  0.00    +0.077 C 
ATOM      5  C   UNL     1       3.005  -7.307   0.941  0.00  0.00    +0.030 C 
ATOM      6  C   UNL     1       2.276  -5.955   0.908  0.00  0.00    +0.110 C 
ENDROOT
BRANCH   4   7
ATOM      7  C   UNL     1       4.667  -8.725  -0.232  0.00  0.00    +0.216 C 
ATOM      8  O   UNL     1       4.539  -9.528  -1.132  0.00  0.00    -0.276 OA
ATOM      9  N   UNL     1       5.476  -9.002   0.810  0.00  0.00    -0.312 N 
ATOM     10  H   UNL     1       5.577  -8.360   1.529  0.00  0.00    +0.149 HD
BRANCH   9  11
ATOM     11  C   UNL     1       6.202 -10.277   0.856  0.00  0.00    +0.070 C 
ATOM     12  C   UNL     1       7.525 -10.130   0.102  0.00  0.00    +0.009 C 
ATOM     13  C   UNL     1       8.299 -11.446   0.150  0.00  0.00    -0.072 C 
ATOM     14  N   UNL     1       8.484 -11.923   1.513  0.00  0.00    +0.386 N 
ATOM     15  C   UNL     1       7.327 -11.915   2.394  0.00  0.00    -0.072 C 
ATOM     16  C   UNL     1       6.516 -10.627   2.310  0.00  0.00    +0.009 C 
ATOM     17  C   UNL     1       7.849 -12.034   3.846  0.00  0.00    -0.010 C 
ATOM     18  C   UNL     1       6.418 -13.122   2.147  0.00  0.00    -0.010 C 
ATOM     19  C   UNL     1       9.700 -11.177  -0.444  0.00  0.00    -0.010 C 
ATOM     20  C   UNL     1       7.623 -12.490  -0.738  0.00  0.00    -0.010 C 
ATOM     21  H   UNL     1       8.852 -12.877   1.472  0.00  0.00    -0.084 HD
ATOM     22  H   UNL     1       9.225 -11.368   1.949  0.00  0.00    -0.084 HD
ENDBRANCH   9  11
ENDBRANCH   4   7
BRANCH   1  23
ATOM     23  S   UNL     1      -0.039  -5.490  -0.437  0.00  0.00    +0.061 S 
ATOM     24  O   UNL     1      -0.587  -5.917   0.803  0.00  0.00    -0.153 OA
ATOM     25  O   UNL     1      -0.512  -5.974  -1.686  0.00  0.00    -0.153 OA
BRANCH  23  30
ATOM     26  C   UNL     1      -0.598   0.516  -0.592  0.00  0.00    +0.044 C 
ATOM     27  C   UNL     1      -0.458  -0.984  -0.553  0.00  0.00    -0.050 A 
ATOM     28  C   UNL     1      -0.357  -1.700  -1.732  0.00  0.00    +0.005 A 
ATOM     29  C   UNL     1      -0.229  -3.076  -1.696  0.00  0.00    +0.029 A 
ATOM     30  C   UNL     1      -0.201  -3.736  -0.482  0.00  0.00    +0.105 A 
ATOM     31  C   UNL     1      -0.301  -3.021   0.696  0.00  0.00    +0.029 A 
ATOM     32  C   UNL     1      -0.425  -1.644   0.661  0.00  0.00    +0.005 A 
ENDBRANCH  23  30
ENDBRANCH   1  23
TORSDOF 4
