REMARK  Name = ZINC09326632
REMARK  7 active torsions:
REMARK  status: ('A' for Active; 'I' for Inactive)
REMARK    1  A    between atoms: C_4  and  N_30
REMARK    2  A    between atoms: C_5  and  N_7
REMARK    3  A    between atoms: C_8  and  C_10
REMARK    4  A    between atoms: C_10  and  S_11
REMARK    5  A    between atoms: S_11  and  C_12
REMARK    6  A    between atoms: N_15  and  C_19
REMARK    7  A    between atoms: C_19  and  C_20
REMARK                            x       y       z     vdW  Elec       q    Type
REMARK                         _______ _______ _______ _____ _____    ______ ____
ROOT
ATOM      1  C   UNL     1      -7.283   0.162   0.591  0.00  0.00    +0.108 A 
ATOM      2  C   UNL     1      -8.464  -0.614   0.689  0.00  0.00    +0.004 A 
ATOM      3  C   UNL     1      -9.655   0.013   0.687  0.00  0.00    +0.030 A 
ATOM      4  N   UNL     1      -9.687   1.377   0.567  0.00  0.00    -0.292 N 
ATOM      5  C   UNL     1      -8.550   2.085   0.467  0.00  0.00    +0.350 A 
ATOM      6  O   UNL     1      -8.604   3.299   0.361  0.00  0.00    -0.244 OA
ATOM      7  N   UNL     1      -7.364   1.480   0.480  0.00  0.00    -0.186 NA
ATOM      8  C   UNL     1     -10.965  -0.716   0.812  0.00  0.00    +0.054 C 
ATOM      9  C   UNL     1     -10.786  -2.201   0.499  0.00  0.00    +0.006 C 
ATOM     10  C   UNL     1      -9.614  -2.732   1.332  0.00  0.00    +0.005 C 
ATOM     11  C   UNL     1      -8.325  -2.108   0.800  0.00  0.00    +0.039 C 
ENDROOT
BRANCH   1  12
ATOM     12  S   UNL     1      -5.707  -0.626   0.608  0.00  0.00    -0.096 S 
BRANCH  12  13
ATOM     13  C   UNL     1      -4.631   0.820   0.450  0.00  0.00    +0.171 C 
BRANCH  13  15
ATOM     14  N   UNL     1      -2.205   1.288   0.332  0.00  0.00    -0.283 N 
ATOM     15  C   UNL     1      -3.191   0.376   0.442  0.00  0.00    +0.227 C 
ATOM     16  O   UNL     1      -2.919  -0.802   0.535  0.00  0.00    -0.275 OA
ATOM     17  H   UNL     1      -2.418   2.235   0.335  0.00  0.00    +0.155 HD
BRANCH  14  22
ATOM     18  C   UNL     1       0.744  -0.701  -0.597  0.00  0.00    +0.002 A 
ATOM     19  C   UNL     1       1.756   0.045  -0.018  0.00  0.00    +0.002 A 
ATOM     20  C   UNL     1       1.455   1.204   0.672  0.00  0.00    +0.034 A 
ATOM     21  C   UNL     1       0.143   1.616   0.795  0.00  0.00    +0.147 A 
ATOM     22  C   UNL     1      -0.875   0.871   0.215  0.00  0.00    +0.064 A 
ATOM     23  C   UNL     1      -0.569  -0.291  -0.482  0.00  0.00    +0.025 A 
BRANCH  21  24
ATOM     24  N   UNL     1      -0.178   2.855   1.539  0.00  0.00    +0.058 N 
ATOM     25  O   UNL     1       0.703   3.462   2.121  0.00  0.00    -0.126 OA
ATOM     26  O   UNL     1      -1.323   3.270   1.566  0.00  0.00    -0.126 OA
ENDBRANCH  21  24
ENDBRANCH  14  22
ENDBRANCH  13  15
ENDBRANCH  12  13
ENDBRANCH   1  12
BRANCH   4  27
ATOM     27  C   UNL     1     -10.976   2.072   0.548  0.00  0.00    +0.161 C 
BRANCH  27  28
ATOM     28  C   UNL     1     -11.337   2.501   1.947  0.00  0.00    -0.025 A 
ATOM     29  C   UNL     1     -12.154   1.713   2.743  0.00  0.00    +0.025 A 
ATOM     30  C   UNL     1     -12.459   2.137   4.022  0.00  0.00    +0.111 A 
ATOM     31  N   UNL     1     -11.991   3.280   4.484  0.00  0.00    -0.263 NA
ATOM     32  C   UNL     1     -11.216   4.057   3.753  0.00  0.00    +0.111 A 
ATOM     33  C   UNL     1     -10.864   3.696   2.467  0.00  0.00    +0.025 A 
ENDBRANCH  27  28
ENDBRANCH   4  27
TORSDOF 7
