REMARK  Name = ZINC05173121
REMARK  9 active torsions:
REMARK  status: ('A' for Active; 'I' for Inactive)
REMARK    1  A    between atoms: C_1  and  C_2
REMARK    2  A    between atoms: C_2  and  C_3
REMARK    3  A    between atoms: C_2  and  C_4
REMARK    4  A    between atoms: C_4  and  C_5
REMARK    5  A    between atoms: N_7  and  C_8
REMARK    6  A    between atoms: C_8  and  C_10
REMARK    7  A    between atoms: C_8  and  N_14
REMARK    8  A    between atoms: N_14  and  C_15
REMARK    9  A    between atoms: C_18  and  N_21
REMARK                            x       y       z     vdW  Elec       q    Type
REMARK                         _______ _______ _______ _____ _____    ______ ____
ROOT
ATOM      1  C   UNL     1      -0.439  -0.122   5.093  0.00  0.00    +0.210 C 
ENDROOT
BRANCH   1   4
ATOM      2  C   UNL     1      -0.433  -0.399   2.673  0.00  0.00    +0.215 C 
ATOM      3  O   UNL     1      -1.448   0.264   2.624  0.00  0.00    -0.276 OA
ATOM      4  N   UNL     1       0.151  -0.650   3.861  0.00  0.00    -0.294 N 
ATOM      5  H   UNL     1       0.962  -1.180   3.900  0.00  0.00    +0.151 HD
BRANCH   2   6
ATOM      6  C   UNL     1       0.173  -0.942   1.405  0.00  0.00    +0.098 C 
BRANCH   6   8
ATOM      7  C   UNL     1      -0.628   1.006   0.061  0.00  0.00    +0.008 C 
ATOM      8  C   UNL     1      -0.679  -0.516   0.208  0.00  0.00    -0.008 C 
ATOM      9  C   UNL     1      -0.136  -1.169  -1.064  0.00  0.00    +0.008 C 
ENDBRANCH   6   8
ENDBRANCH   2   6
ENDBRANCH   1   4
BRANCH   1  10
ATOM     10  C   UNL     1      -0.455  -1.217   6.161  0.00  0.00    +0.225 C 
ATOM     11 CL   UNL     1       1.232  -1.763   6.488  0.00  0.00    -0.080 Cl
ATOM     12 CL   UNL     1      -1.181  -0.567   7.678  0.00  0.00    -0.080 Cl
ATOM     13 CL   UNL     1      -1.435  -2.613   5.576  0.00  0.00    -0.080 Cl
ENDBRANCH   1  10
BRANCH   1  14
ATOM     14  N   UNL     1       0.358   1.012   5.569  0.00  0.00    -0.323 N 
ATOM     15  H   UNL     1       1.212   0.857   6.003  0.00  0.00    +0.148 HD
BRANCH  14  16
ATOM     16  C   UNL     1      -0.112   2.316   5.399  0.00  0.00    +0.029 A 
ATOM     17  C   UNL     1      -1.281   2.547   4.683  0.00  0.00    +0.025 A 
ATOM     18  C   UNL     1      -1.743   3.838   4.517  0.00  0.00    +0.034 A 
ATOM     19  C   UNL     1      -1.044   4.900   5.061  0.00  0.00    +0.126 A 
ATOM     20  C   UNL     1       0.119   4.674   5.774  0.00  0.00    +0.034 A 
ATOM     21  C   UNL     1       0.584   3.385   5.949  0.00  0.00    +0.025 A 
BRANCH  19  22
ATOM     22  N   UNL     1      -1.542   6.282   4.880  0.00  0.00    +0.056 N 
ATOM     23  O   UNL     1      -2.559   6.481   4.257  0.00  0.00    -0.126 OA
ATOM     24  O   UNL     1      -0.933   7.211   5.356  0.00  0.00    -0.126 OA
ENDBRANCH  19  22
ENDBRANCH  14  16
ENDBRANCH   1  14
TORSDOF 7
