REMARK  Name = ZINC21369700
REMARK  14 active torsions:
REMARK  status: ('A' for Active; 'I' for Inactive)
REMARK    1  A    between atoms: C_1  and  C_2
REMARK    2  A    between atoms: C_2  and  O_3
REMARK    3  A    between atoms: O_3  and  C_4
REMARK    4  A    between atoms: C_7  and  S_10
REMARK    5  A    between atoms: S_10  and  N_13
REMARK    6  A    between atoms: N_13  and  C_14
REMARK    7  A    between atoms: C_19  and  C_20
REMARK    8  A    between atoms: C_20  and  O_22
REMARK    9  A    between atoms: O_22  and  C_23
REMARK   10  A    between atoms: C_23  and  C_24
REMARK   11  A    between atoms: N_26  and  C_27
REMARK   12  A    between atoms: C_27  and  C_29
REMARK   13  A    between atoms: C_27  and  C_30
REMARK   14  A    between atoms: C_35  and  C_36
REMARK                            x       y       z     vdW  Elec       q    Type
REMARK                         _______ _______ _______ _____ _____    ______ ____
ROOT
ATOM      1  C   UNL     1       5.773  -8.236   3.752  0.00  0.00    +0.062 A 
ATOM      2  C   UNL     1       5.573  -9.540   4.190  0.00  0.00    +0.025 A 
ATOM      3  C   UNL     1       4.375 -10.176   3.942  0.00  0.00    +0.002 A 
ATOM      4  C   UNL     1       3.363  -9.524   3.255  0.00  0.00    +0.001 A 
ATOM      5  C   UNL     1       3.540  -8.230   2.817  0.00  0.00    +0.017 A 
ATOM      6  C   UNL     1       4.750  -7.573   3.056  0.00  0.00    +0.081 A 
ENDROOT
BRANCH   1   7
ATOM      7  N   UNL     1       6.978  -7.593   4.002  0.00  0.00    -0.215 N 
ATOM      8  H   UNL     1       6.992  -6.515   4.218  0.00  0.00    +0.174 HD
BRANCH   7   9
ATOM      9  S   UNL     1       8.395  -8.450   3.974  0.00  0.00    +0.072 S 
ATOM     10  O   UNL     1       9.444  -7.505   4.131  0.00  0.00    -0.150 OA
ATOM     11  O   UNL     1       8.223  -9.550   4.857  0.00  0.00    -0.150 OA
BRANCH   9  15
ATOM     12  C   UNL     1       8.829 -10.185  -0.186  0.00  0.00    +0.121 A 
ATOM     13  C   UNL     1       9.351  -8.933   0.102  0.00  0.00    +0.047 A 
ATOM     14  C   UNL     1       9.218  -8.406   1.372  0.00  0.00    +0.032 A 
ATOM     15  C   UNL     1       8.564  -9.125   2.355  0.00  0.00    +0.109 A 
ATOM     16  C   UNL     1       8.047 -10.376   2.072  0.00  0.00    +0.032 A 
ATOM     17  C   UNL     1       8.173 -10.905   0.802  0.00  0.00    +0.047 A 
BRANCH  12  18
ATOM     18  O   UNL     1       8.958 -10.706  -1.435  0.00  0.00    -0.492 OA
BRANCH  18  20
ATOM     19  C   UNL     1       8.639 -12.417  -3.112  0.00  0.00    +0.048 C 
ATOM     20  C   UNL     1       8.396 -12.000  -1.660  0.00  0.00    +0.225 C 
ENDBRANCH  18  20
ENDBRANCH  12  18
ENDBRANCH   9  15
ENDBRANCH   7   9
ENDBRANCH   1   7
BRANCH   6  21
ATOM     21  C   UNL     1       4.949  -6.191   2.585  0.00  0.00    +0.341 C 
ATOM     22  O   UNL     1       6.001  -5.622   2.799  0.00  0.00    -0.245 OA
BRANCH  21  23
ATOM     23  O   UNL     1       3.964  -5.559   1.917  0.00  0.00    -0.452 OA
BRANCH  23  24
ATOM     24  C   UNL     1       4.230  -4.199   1.484  0.00  0.00    +0.328 C 
BRANCH  24  25
ATOM     25  C   UNL     1       3.024  -3.658   0.759  0.00  0.00    +0.251 C 
ATOM     26  O   UNL     1       2.038  -4.351   0.622  0.00  0.00    -0.272 OA
ATOM     27  N   UNL     1       3.042  -2.405   0.264  0.00  0.00    -0.306 N 
ATOM     28  H   UNL     1       3.936  -1.777   0.389  0.00  0.00    +0.149 HD
BRANCH  27  29
ATOM     29  C   UNL     1       1.870  -1.879  -0.440  0.00  0.00    +0.100 C 
ATOM     30  C   UNL     1       1.924  -2.303  -1.909  0.00  0.00    +0.033 C 
BRANCH  29  31
ATOM     31  C   UNL     1       1.863  -0.374  -0.351  0.00  0.00    -0.025 A 
ATOM     32  C   UNL     1       3.049   0.312  -0.164  0.00  0.00    +0.006 A 
ATOM     33  C   UNL     1       3.043   1.692  -0.082  0.00  0.00    +0.000 A 
ATOM     34  C   UNL     1       1.852   2.385  -0.188  0.00  0.00    +0.000 A 
ATOM     35  C   UNL     1       0.667   1.699  -0.377  0.00  0.00    +0.004 A 
ATOM     36  C   UNL     1       0.673   0.319  -0.459  0.00  0.00    -0.046 A 
ATOM     37  C   UNL     1      -0.619  -0.429  -0.664  0.00  0.00    +0.044 C 
ENDBRANCH  29  31
ENDBRANCH  27  29
ENDBRANCH  24  25
ENDBRANCH  23  24
ENDBRANCH  21  23
ENDBRANCH   6  21
TORSDOF 11
