REMARK  Name = ZINC36499082
REMARK  14 active torsions:
REMARK  status: ('A' for Active; 'I' for Inactive)
REMARK    1  A    between atoms: C_1  and  C_2
REMARK    2  A    between atoms: C_2  and  C_3
REMARK    3  A    between atoms: C_3  and  C_4
REMARK    4  A    between atoms: C_3  and  C_6
REMARK    5  A    between atoms: C_4  and  C_5
REMARK    6  A    between atoms: C_6  and  C_8
REMARK    7  A    between atoms: C_6  and  N_22
REMARK    8  A    between atoms: N_10  and  C_11
REMARK    9  A    between atoms: C_11  and  S_12
REMARK   10  A    between atoms: S_12  and  C_15
REMARK   11  A    between atoms: C_18  and  C_21
REMARK   12  A    between atoms: N_22  and  C_23
REMARK   13  A    between atoms: C_23  and  C_24
REMARK   14  A    between atoms: C_29  and  C_31
REMARK                            x       y       z     vdW  Elec       q    Type
REMARK                         _______ _______ _______ _____ _____    ______ ____
ROOT
ATOM      1  C   UNL     1      -0.612   1.221  -2.842  0.00  0.00    +0.166 C 
ENDROOT
BRANCH   1   2
ATOM      2  C   UNL     1      -0.104   0.126  -3.744  0.00  0.00    +0.235 C 
ATOM      3  O   UNL     1      -0.675  -0.944  -3.780  0.00  0.00    -0.274 OA
ATOM      4  N   UNL     1       0.984   0.336  -4.511  0.00  0.00    -0.295 N 
ATOM      5  H   UNL     1       1.472   1.171  -4.442  0.00  0.00    +0.150 HD
BRANCH   4   6
ATOM      6  C   UNL     1       1.429  -0.698  -5.449  0.00  0.00    +0.278 C 
BRANCH   6   7
ATOM      7  S   UNL     1       0.635  -0.436  -7.059  0.00  0.00    +0.013 S 
ATOM      8  O   UNL     1       1.205  -1.301  -8.032  0.00  0.00    -0.168 OA
ATOM      9  O   UNL     1      -0.774  -0.351  -6.902  0.00  0.00    -0.168 OA
BRANCH   7  10
ATOM     10  C   UNL     1       1.132   1.182  -7.551  0.00  0.00    +0.090 A 
ATOM     11  C   UNL     1       0.426   2.285  -7.109  0.00  0.00    +0.027 A 
ATOM     12  C   UNL     1       0.815   3.554  -7.495  0.00  0.00    +0.005 A 
ATOM     13  C   UNL     1       1.911   3.720  -8.321  0.00  0.00    -0.050 A 
ATOM     14  C   UNL     1       2.617   2.616  -8.762  0.00  0.00    +0.005 A 
ATOM     15  C   UNL     1       2.231   1.348  -8.373  0.00  0.00    +0.027 A 
ATOM     16  C   UNL     1       2.334   5.103  -8.742  0.00  0.00    +0.044 C 
ENDBRANCH   7  10
ENDBRANCH   6   7
ENDBRANCH   4   6
ENDBRANCH   1   2
BRANCH   1  17
ATOM     17  N   UNL     1       0.336   2.338  -2.848  0.00  0.00    -0.278 N 
ATOM     18  C   UNL     1      -0.108   3.597  -3.031  0.00  0.00    +0.248 C 
ATOM     19  O   UNL     1      -1.297   3.840  -2.958  0.00  0.00    -0.270 OA
BRANCH  18  20
ATOM     20  C   UNL     1       0.852   4.684  -3.321  0.00  0.00    +0.038 A 
ATOM     21  C   UNL     1       2.211   4.507  -3.060  0.00  0.00    +0.013 A 
ATOM     22  C   UNL     1       3.102   5.524  -3.333  0.00  0.00    +0.002 A 
ATOM     23  C   UNL     1       2.651   6.719  -3.865  0.00  0.00    +0.020 A 
ATOM     24  C   UNL     1       1.303   6.902  -4.127  0.00  0.00    +0.042 A 
ATOM     25  C   UNL     1       0.402   5.889  -3.863  0.00  0.00    +0.033 A 
ATOM     26 CL   UNL     1       0.747   8.404  -4.795  0.00  0.00    -0.084 Cl
ENDBRANCH  18  20
BRANCH  17  27
ATOM     27  C   UNL     1       1.766   2.086  -2.654  0.00  0.00    +0.183 C 
BRANCH  27  28
ATOM     28  C   UNL     1       2.190   2.607  -1.305  0.00  0.00    +0.122 A 
ATOM     29  C   UNL     1       2.513   1.855  -0.238  0.00  0.00    +0.046 A 
ATOM     30  C   UNL     1       2.846   2.747   0.807  0.00  0.00    +0.041 A 
ATOM     31  C   UNL     1       2.707   3.992   0.315  0.00  0.00    +0.195 A 
ATOM     32  O   UNL     1       2.314   3.900  -0.966  0.00  0.00    -0.466 OA
ENDBRANCH  27  28
ENDBRANCH  17  27
ENDBRANCH   1  17
BRANCH   1  33
ATOM     33  C   UNL     1      -0.756   0.682  -1.417  0.00  0.00    +0.018 C 
BRANCH  33  35
ATOM     34  C   UNL     1       0.400  -1.508  -1.748  0.00  0.00    +0.004 C 
ATOM     35  C   UNL     1       0.480  -0.145  -1.057  0.00  0.00    +0.002 C 
ENDBRANCH  33  35
BRANCH  33  36
ATOM     36  C   UNL     1      -0.889   1.852  -0.440  0.00  0.00    +0.002 C 
ATOM     37  C   UNL     1      -2.175   2.624  -0.740  0.00  0.00    +0.004 C 
ENDBRANCH  33  36
ENDBRANCH   1  33
TORSDOF 11
