REMARK  Name = ZINC08264570
REMARK  11 active torsions:
REMARK  status: ('A' for Active; 'I' for Inactive)
REMARK    1  A    between atoms: C_1  and  C_2
REMARK    2  A    between atoms: C_2  and  O_3
REMARK    3  A    between atoms: O_3  and  C_4
REMARK    4  A    between atoms: C_7  and  C_13
REMARK    5  A    between atoms: C_9  and  N_10
REMARK    6  A    between atoms: N_15  and  N_16
REMARK    7  A    between atoms: N_16  and  C_17
REMARK    8  A    between atoms: C_17  and  N_19
REMARK    9  A    between atoms: N_19  and  C_20
REMARK   10  A    between atoms: C_25  and  C_30
REMARK   11  A    between atoms: C_27  and  C_29
REMARK                            x       y       z     vdW  Elec       q    Type
REMARK                         _______ _______ _______ _____ _____    ______ ____
ROOT
ATOM      1  C   UNL     1       0.060  -4.250  -0.021  0.00  0.00    +0.260 C 
ATOM      2  O   UNL     1      -0.985  -4.872  -0.014  0.00  0.00    -0.269 OA
ATOM      3  N   UNL     1       1.236  -4.908  -0.035  0.00  0.00    -0.231 N 
ATOM      4  H   UNL     1       2.069  -4.412  -0.041  0.00  0.00    +0.173 HD
ENDROOT
BRANCH   1   8
ATOM      5  C   UNL     1       0.002  -0.004   0.002  0.00  0.00    +0.151 A 
ATOM      6  C   UNL     1       1.216  -0.681  -0.013  0.00  0.00    +0.049 A 
ATOM      7  C   UNL     1       1.239  -2.057  -0.021  0.00  0.00    +0.017 A 
ATOM      8  C   UNL     1       0.040  -2.774  -0.013  0.00  0.00    +0.041 A 
ATOM      9  C   UNL     1      -1.179  -2.091   0.002  0.00  0.00    +0.049 A 
ATOM     10  C   UNL     1      -1.193  -0.713   0.015  0.00  0.00    +0.168 A 
BRANCH  10  11
ATOM     11  N   UNL     1      -2.483   0.012   0.038  0.00  0.00    +0.060 N 
ATOM     12  O   UNL     1      -3.531  -0.609   0.050  0.00  0.00    -0.126 OA
ATOM     13  O   UNL     1      -2.497   1.230   0.045  0.00  0.00    -0.126 OA
ENDBRANCH  10  11
BRANCH   5  14
ATOM     14  O   UNL     1      -0.016   1.353   0.009  0.00  0.00    -0.490 OA
BRANCH  14  16
ATOM     15  C   UNL     1       1.027   3.533   0.011  0.00  0.00    +0.048 C 
ATOM     16  C   UNL     1       1.248   2.019   0.001  0.00  0.00    +0.226 C 
ENDBRANCH  14  16
ENDBRANCH   5  14
ENDBRANCH   1   8
BRANCH   3  17
ATOM     17  N   UNL     1       1.255  -6.309  -0.042  0.00  0.00    -0.246 N 
ATOM     18  H   UNL     1       0.421  -6.805  -0.037  0.00  0.00    +0.172 HD
BRANCH  17  19
ATOM     19  C   UNL     1       2.431  -6.967  -0.057  0.00  0.00    +0.147 C 
ATOM     20  S   UNL     1       2.454  -8.679  -0.066  0.00  0.00    -0.017 S 
BRANCH  19  21
ATOM     21  N   UNL     1       3.589  -6.277  -0.064  0.00  0.00    -0.322 N 
ATOM     22  H   UNL     1       3.576  -5.307  -0.059  0.00  0.00    +0.148 HD
BRANCH  21  23
ATOM     23  C   UNL     1       4.867  -6.992  -0.080  0.00  0.00    +0.075 C 
ATOM     24  C   UNL     1       5.238  -7.344  -1.522  0.00  0.00    +0.022 C 
ATOM     25  C   UNL     1       6.573  -8.091  -1.538  0.00  0.00    +0.002 C 
ATOM     26  C   UNL     1       7.662  -7.202  -0.934  0.00  0.00    +0.003 C 
ATOM     27  C   UNL     1       7.292  -6.850   0.508  0.00  0.00    -0.009 C 
ATOM     28  C   UNL     1       5.956  -6.104   0.524  0.00  0.00    +0.009 C 
ATOM     29  C   UNL     1       5.586  -5.752   1.967  0.00  0.00    +0.009 C 
ATOM     30  C   UNL     1       8.381  -5.961   1.112  0.00  0.00    +0.008 C 
ENDBRANCH  21  23
ENDBRANCH  19  21
ENDBRANCH  17  19
ENDBRANCH   3  17
TORSDOF 8
