REMARK  Name = ZINC15764666
REMARK  7 active torsions:
REMARK  status: ('A' for Active; 'I' for Inactive)
REMARK    1  A    between atoms: C_1  and  C_2
REMARK    2  A    between atoms: C_7  and  N_8
REMARK    3  A    between atoms: C_9  and  C_11
REMARK    4  A    between atoms: C_11  and  C_12
REMARK    5  A    between atoms: C_12  and  S_13
REMARK    6  A    between atoms: S_13  and  C_14
REMARK    7  A    between atoms: C_14  and  C_15
REMARK                            x       y       z     vdW  Elec       q    Type
REMARK                         _______ _______ _______ _____ _____    ______ ____
ROOT
ATOM      1  S   UNL     1      -1.679   3.201  -7.435  0.00  0.00    -0.153 S 
ENDROOT
BRANCH   1   2
ATOM      2  C   UNL     1      -1.371   3.422  -9.209  0.00  0.00    +0.079 C 
BRANCH   2   3
ATOM      3  C   UNL     1      -2.619   4.007  -9.874  0.00  0.00    +0.107 C 
BRANCH   3   5
ATOM      4  N   UNL     1      -3.329   4.696 -12.141  0.00  0.00    -0.285 N 
ATOM      5  C   UNL     1      -2.363   4.191 -11.348  0.00  0.00    +0.218 C 
ATOM      6  O   UNL     1      -1.289   3.885 -11.820  0.00  0.00    -0.275 OA
ATOM      7  H   UNL     1      -4.213   4.867 -11.781  0.00  0.00    +0.155 HD
BRANCH   4  14
ATOM      8  C   UNL     1      -5.498   4.699 -13.982  0.00  0.00    +0.046 C 
ATOM      9  C   UNL     1      -4.084   4.987 -14.417  0.00  0.00    -0.028 A 
ATOM     10  C   UNL     1      -3.812   5.268 -15.742  0.00  0.00    +0.020 A 
ATOM     11  C   UNL     1      -2.513   5.526 -16.142  0.00  0.00    +0.018 A 
ATOM     12  C   UNL     1      -1.485   5.510 -15.217  0.00  0.00    +0.017 A 
ATOM     13  C   UNL     1      -1.752   5.236 -13.890  0.00  0.00    +0.024 A 
ATOM     14  C   UNL     1      -3.055   4.975 -13.485  0.00  0.00    +0.036 A 
ATOM     15 BR   UNL     1      -2.143   5.903 -17.958  0.00  0.00    -0.050 Br
ENDBRANCH   4  14
ENDBRANCH   3   5
ENDBRANCH   2   3
ENDBRANCH   1   2
BRANCH   1  16
ATOM     16  C   UNL     1      -0.126   2.509  -6.803  0.00  0.00    +0.143 C 
BRANCH  16  17
ATOM     17  C   UNL     1      -0.248   2.274  -5.320  0.00  0.00    +0.121 A 
ATOM     18  N   UNL     1       0.807   1.757  -4.638  0.00  0.00    -0.310 N 
ATOM     19  H   UNL     1       1.624   1.546  -5.116  0.00  0.00    +0.170 HD
ATOM     20  C   UNL     1       0.741   1.530  -3.312  0.00  0.00    +0.260 A 
ATOM     21  O   UNL     1       1.695   1.065  -2.714  0.00  0.00    -0.267 OA
ATOM     22  C   UNL     1      -0.472   1.845  -2.619  0.00  0.00    +0.075 A 
ATOM     23  C   UNL     1      -0.767   1.682  -1.188  0.00  0.00    -0.023 A 
ATOM     24  C   UNL     1      -1.990   2.055  -0.773  0.00  0.00    -0.004 A 
ATOM     25  S   UNL     1      -2.815   2.636  -2.238  0.00  0.00    -0.073 S 
ATOM     26  C   UNL     1      -1.505   2.375  -3.404  0.00  0.00    +0.116 A 
ATOM     27  N   UNL     1      -1.366   2.571  -4.713  0.00  0.00    -0.226 NA
ATOM     28  C   UNL     1      -2.177   1.847   0.706  0.00  0.00    +0.043 C 
ATOM     29  C   UNL     1      -0.742   1.689   1.260  0.00  0.00    +0.010 C 
ATOM     30  C   UNL     1       0.013   1.163   0.024  0.00  0.00    +0.037 C 
ENDBRANCH  16  17
ENDBRANCH   1  16
TORSDOF 6
