REMARK  Name = ZINC20544802
REMARK  5 active torsions:
REMARK  status: ('A' for Active; 'I' for Inactive)
REMARK    1  A    between atoms: C_1  and  C_2
REMARK    2  A    between atoms: C_7  and  N_12
REMARK    3  A    between atoms: C_9  and  C_11
REMARK    4  A    between atoms: N_12  and  C_13
REMARK    5  A    between atoms: C_18  and  N_19
REMARK                            x       y       z     vdW  Elec       q    Type
REMARK                         _______ _______ _______ _____ _____    ______ ____
ROOT
ATOM      1  N   UNL     1      -2.376   0.963   0.119  0.00  0.00    -0.339 N 
ATOM      2  H   UNL     1      -3.352   1.463   0.041  0.00  0.00    +0.146 HD
ENDROOT
BRANCH   1   8
ATOM      3  C   UNL     1      -6.066  -1.225  -0.129  0.00  0.00    +0.008 C 
ATOM      4  C   UNL     1      -4.799  -0.589   0.447  0.00  0.00    -0.009 C 
ATOM      5  C   UNL     1      -4.686  -0.933   1.933  0.00  0.00    +0.003 C 
ATOM      6  C   UNL     1      -3.419  -0.298   2.509  0.00  0.00    +0.002 C 
ATOM      7  C   UNL     1      -2.195  -0.836   1.766  0.00  0.00    +0.022 C 
ATOM      8  C   UNL     1      -2.308  -0.491   0.280  0.00  0.00    +0.074 C 
ATOM      9  C   UNL     1      -3.575  -1.127  -0.296  0.00  0.00    +0.009 C 
ATOM     10  C   UNL     1      -3.688  -0.783  -1.783  0.00  0.00    +0.009 C 
ENDBRANCH   1   8
BRANCH   1  11
ATOM     11  C   UNL     1      -1.199   1.716   0.067  0.00  0.00    +0.058 A 
ATOM     12  C   UNL     1       0.028   1.105   0.290  0.00  0.00    +0.026 A 
ATOM     13  C   UNL     1       1.189   1.850   0.232  0.00  0.00    +0.017 A 
ATOM     14  C   UNL     1       1.131   3.205  -0.041  0.00  0.00    +0.020 A 
ATOM     15  C   UNL     1      -0.091   3.817  -0.259  0.00  0.00    +0.050 A 
ATOM     16  C   UNL     1      -1.256   3.077  -0.203  0.00  0.00    +0.148 A 
ATOM     17 BR   UNL     1       2.723   4.222  -0.119  0.00  0.00    -0.050 Br
BRANCH  16  18
ATOM     18  N   UNL     1      -2.562   3.732  -0.435  0.00  0.00    +0.058 N 
ATOM     19  O   UNL     1      -3.438   3.145  -1.044  0.00  0.00    -0.126 OA
ATOM     20  O   UNL     1      -2.760   4.859  -0.018  0.00  0.00    -0.126 OA
ENDBRANCH  16  18
ENDBRANCH   1  11
TORSDOF 3
