REMARK  Name = ZINC35098908
REMARK  12 active torsions:
REMARK  status: ('A' for Active; 'I' for Inactive)
REMARK    1  A    between atoms: C_1  and  C_2
REMARK    2  A    between atoms: C_2  and  O_3
REMARK    3  A    between atoms: O_3  and  C_4
REMARK    4  A    between atoms: C_4  and  C_6
REMARK    5  A    between atoms: C_6  and  C_8
REMARK    6  A    between atoms: C_6  and  N_14
REMARK    7  A    between atoms: C_16  and  C_24
REMARK    8  A    between atoms: C_24  and  C_25
REMARK    9  A    between atoms: C_25  and  C_26
REMARK   10  A    between atoms: C_26  and  C_28
REMARK   11  A    between atoms: C_26  and  N_29
REMARK   12  A    between atoms: C_30  and  C_32
REMARK                            x       y       z     vdW  Elec       q    Type
REMARK                         _______ _______ _______ _____ _____    ______ ____
ROOT
ATOM      1  N   UNL     1       2.859  -4.546  -2.488  0.00  0.00    -0.313 N 
ATOM      2  C   UNL     1       3.468  -5.861  -2.266  0.00  0.00    +0.114 C 
ATOM      3  C   UNL     1       2.287  -6.838  -2.154  0.00  0.00    +0.038 C 
ATOM      4  C   UNL     1       1.059  -5.973  -2.326  0.00  0.00    -0.022 A 
ATOM      5  C   UNL     1       1.468  -4.660  -2.509  0.00  0.00    +0.034 A 
ATOM      6  C   UNL     1       0.501  -3.668  -2.686  0.00  0.00    +0.023 A 
ATOM      7  C   UNL     1      -0.839  -3.993  -2.674  0.00  0.00    +0.002 A 
ATOM      8  C   UNL     1      -1.236  -5.304  -2.487  0.00  0.00    +0.000 A 
ATOM      9  C   UNL     1      -0.284  -6.294  -2.320  0.00  0.00    +0.006 A 
ENDROOT
BRANCH   1  10
ATOM     10  C   UNL     1       3.601  -3.295  -2.656  0.00  0.00    +0.213 C 
BRANCH  10  11
ATOM     11  C   UNL     1       4.027  -2.777  -1.306  0.00  0.00    -0.016 A 
ATOM     12  C   UNL     1       4.676  -3.615  -0.418  0.00  0.00    +0.006 A 
ATOM     13  C   UNL     1       5.066  -3.140   0.820  0.00  0.00    +0.000 A 
ATOM     14  C   UNL     1       4.807  -1.828   1.170  0.00  0.00    +0.000 A 
ATOM     15  C   UNL     1       4.159  -0.991   0.282  0.00  0.00    +0.000 A 
ATOM     16  C   UNL     1       3.773  -1.464  -0.958  0.00  0.00    +0.006 A 
ENDBRANCH  10  11
BRANCH  10  17
ATOM     17  C   UNL     1       4.821  -3.545  -3.506  0.00  0.00    +0.332 C 
ATOM     18  O   UNL     1       5.046  -4.654  -3.927  0.00  0.00    -0.248 OA
BRANCH  17  19
ATOM     19  O   UNL     1       5.656  -2.534  -3.794  0.00  0.00    -0.463 OA
BRANCH  19  21
ATOM     20  C   UNL     1       7.621  -1.576  -4.824  0.00  0.00    +0.048 C 
ATOM     21  C   UNL     1       6.792  -2.843  -4.604  0.00  0.00    +0.229 C 
ENDBRANCH  19  21
ENDBRANCH  17  19
ENDBRANCH  10  17
ENDBRANCH   1  10
BRANCH   3  22
ATOM     22  C   UNL     1       2.360  -7.893  -3.260  0.00  0.00    +0.011 C 
BRANCH  22  23
ATOM     23  C   UNL     1       1.249  -8.925  -3.055  0.00  0.00    +0.022 C 
BRANCH  23  24
ATOM     24  C   UNL     1       1.322  -9.979  -4.161  0.00  0.00    +0.070 C 
ATOM     25  C   UNL     1       0.293 -11.078  -3.888  0.00  0.00    +0.028 C 
BRANCH  24  26
ATOM     26  N   UNL     1       1.034  -9.352  -5.454  0.00  0.00    -0.312 N 
ATOM     27  C   UNL     1       1.508  -9.900  -6.590  0.00  0.00    +0.221 C 
ATOM     28  O   UNL     1       2.174 -10.913  -6.542  0.00  0.00    -0.275 OA
ATOM     29  H   UNL     1       0.502  -8.541  -5.492  0.00  0.00    +0.149 HD
BRANCH  27  30
ATOM     30  C   UNL     1       1.212  -9.254  -7.919  0.00  0.00    +0.129 C 
ATOM     31  C   UNL     1       1.584 -10.204  -9.088  0.00  0.00    +0.137 C 
ATOM     32  C   UNL     1       2.237  -9.242 -10.077  0.00  0.00    +0.308 C 
ATOM     33  O   UNL     1       2.145  -9.249 -11.281  0.00  0.00    -0.251 OA
ATOM     34  O   UNL     1       2.943  -8.378  -9.306  0.00  0.00    -0.457 OA
ATOM     35  C   UNL     1       2.139  -8.046  -8.160  0.00  0.00    +0.125 C 
ATOM     36  C   UNL     1       3.028  -7.825  -6.939  0.00  0.00    +0.049 C 
ATOM     37  C   UNL     1       3.949  -6.628  -7.188  0.00  0.00    +0.004 C 
ATOM     38  C   UNL     1       3.103  -5.381  -7.453  0.00  0.00    +0.000 C 
ATOM     39  C   UNL     1       2.228  -5.608  -8.687  0.00  0.00    +0.004 C 
ATOM     40  C   UNL     1       1.302  -6.802  -8.442  0.00  0.00    +0.049 C 
ENDBRANCH  27  30
ENDBRANCH  24  26
ENDBRANCH  23  24
ENDBRANCH  22  23
ENDBRANCH   3  22
TORSDOF 10
