REMARK  Name = ZINC00914539
REMARK  11 active torsions:
REMARK  status: ('A' for Active; 'I' for Inactive)
REMARK    1  A    between atoms: C_1  and  C_2
REMARK    2  A    between atoms: C_4  and  C_39
REMARK    3  A    between atoms: C_7  and  C_14
REMARK    4  A    between atoms: C_14  and  N_15
REMARK    5  A    between atoms: N_15  and  C_16
REMARK    6  A    between atoms: N_15  and  S_26
REMARK    7  A    between atoms: C_16  and  C_17
REMARK    8  A    between atoms: S_26  and  C_29
REMARK    9  A    between atoms: C_32  and  C_35
REMARK   10  A    between atoms: C_35  and  O_37
REMARK   11  A    between atoms: O_37  and  C_38
REMARK                            x       y       z     vdW  Elec       q    Type
REMARK                         _______ _______ _______ _____ _____    ______ ____
ROOT
ATOM      1  N   UNL     1       6.088  -0.965   0.848  0.00  0.00    -0.168 NA
ENDROOT
BRANCH   1   2
ATOM      2  S   UNL     1       6.852   0.399   0.301  0.00  0.00    +0.061 S 
ATOM      3  O   UNL     1       6.932   0.280  -1.113  0.00  0.00    -0.153 OA
ATOM      4  O   UNL     1       6.221   1.501   0.938  0.00  0.00    -0.153 OA
BRANCH   2   5
ATOM      5  C   UNL     1       8.507   0.347   0.905  0.00  0.00    +0.106 A 
ATOM      6  C   UNL     1       8.832   1.003   2.079  0.00  0.00    +0.029 A 
ATOM      7  C   UNL     1      10.124   0.963   2.560  0.00  0.00    +0.017 A 
ATOM      8  C   UNL     1      11.107   0.266   1.854  0.00  0.00    +0.059 A 
ATOM      9  C   UNL     1      10.773  -0.390   0.668  0.00  0.00    +0.017 A 
ATOM     10  C   UNL     1       9.476  -0.346   0.201  0.00  0.00    +0.029 A 
BRANCH   8  11
ATOM     11  C   UNL     1      12.494   0.222   2.361  0.00  0.00    +0.339 C 
ATOM     12  O   UNL     1      13.347  -0.385   1.745  0.00  0.00    -0.245 OA
BRANCH  11  13
ATOM     13  O   UNL     1      12.813   0.856   3.506  0.00  0.00    -0.464 OA
ATOM     14  C   UNL     1      14.195   0.771   3.944  0.00  0.00    +0.280 C 
ENDBRANCH  11  13
ENDBRANCH   8  11
ENDBRANCH   2   5
ENDBRANCH   1   2
BRANCH   1  15
ATOM     15  C   UNL     1       6.210  -2.221   0.105  0.00  0.00    +0.150 C 
BRANCH  15  22
ATOM     16  C   UNL     1       0.595  -2.592  -5.548  0.00  0.00    +0.044 C 
ATOM     17  C   UNL     1       1.791  -2.429  -4.646  0.00  0.00    -0.048 A 
ATOM     18  C   UNL     1       2.964  -1.884  -5.152  0.00  0.00    +0.007 A 
ATOM     19  C   UNL     1       4.060  -1.727  -4.351  0.00  0.00    -0.041 A 
ATOM     20  C   UNL     1       4.000  -2.120  -3.010  0.00  0.00    +0.002 A 
ATOM     21  C   UNL     1       5.154  -1.962  -2.123  0.00  0.00    +0.020 A 
ATOM     22  C   UNL     1       5.040  -2.365  -0.834  0.00  0.00    +0.033 A 
ATOM     23  C   UNL     1       3.826  -2.914  -0.365  0.00  0.00    +0.254 A 
ATOM     24  O   UNL     1       3.744  -3.266   0.799  0.00  0.00    -0.268 OA
ATOM     25  N   UNL     1       2.760  -3.058  -1.171  0.00  0.00    -0.322 N 
ATOM     26  H   UNL     1       1.916  -3.451  -0.806  0.00  0.00    +0.169 HD
ATOM     27  C   UNL     1       2.813  -2.673  -2.494  0.00  0.00    +0.050 A 
ATOM     28  C   UNL     1       1.710  -2.822  -3.328  0.00  0.00    +0.029 A 
ATOM     29  C   UNL     1       5.327  -1.134  -4.911  0.00  0.00    +0.044 C 
ENDBRANCH  15  22
ENDBRANCH   1  15
BRANCH   1  30
ATOM     30  C   UNL     1       5.290  -0.914   2.076  0.00  0.00    +0.145 C 
BRANCH  30  31
ATOM     31  C   UNL     1       6.136  -1.353   3.243  0.00  0.00    -0.028 A 
ATOM     32  C   UNL     1       6.785  -0.410   4.018  0.00  0.00    +0.009 A 
ATOM     33  C   UNL     1       7.563  -0.808   5.089  0.00  0.00    +0.050 A 
ATOM     34  C   UNL     1       7.692  -2.154   5.390  0.00  0.00    +0.166 A 
ATOM     35  C   UNL     1       7.037  -3.104   4.611  0.00  0.00    +0.167 A 
ATOM     36  C   UNL     1       6.260  -2.698   3.538  0.00  0.00    +0.054 A 
ATOM     37  O   UNL     1       7.320  -4.344   5.105  0.00  0.00    -0.453 OA
ATOM     38  C   UNL     1       7.821  -4.122   6.437  0.00  0.00    +0.466 C 
ATOM     39  O   UNL     1       8.385  -2.799   6.373  0.00  0.00    -0.453 OA
ENDBRANCH  30  31
ENDBRANCH   1  30
TORSDOF 8
