REMARK  Name = ZINC58475251
REMARK  8 active torsions:
REMARK  status: ('A' for Active; 'I' for Inactive)
REMARK    1  A    between atoms: C_1  and  C_2
REMARK    2  A    between atoms: C_10  and  C_11
REMARK    3  A    between atoms: C_11  and  C_12
REMARK    4  A    between atoms: C_11  and  N_13
REMARK    5  A    between atoms: C_14  and  C_16
REMARK    6  A    between atoms: C_16  and  C_17
REMARK    7  A    between atoms: C_16  and  N_18
REMARK    8  A    between atoms: N_21  and  C_22
REMARK                            x       y       z     vdW  Elec       q    Type
REMARK                         _______ _______ _______ _____ _____    ______ ____
ROOT
ATOM      1  N   UNL     1       1.034  -1.113   3.250  0.00  0.00    -0.304 N 
ATOM      2  C   UNL     1       1.585  -0.588   4.362  0.00  0.00    +0.234 C 
ATOM      3  O   UNL     1       1.264   0.521   4.733  0.00  0.00    -0.274 OA
ATOM      4  H   UNL     1       1.290  -2.000   2.953  0.00  0.00    +0.149 HD
ENDROOT
BRANCH   1   5
ATOM      5  C   UNL     1       0.046  -0.343   2.489  0.00  0.00    +0.136 C 
ATOM      6  C   UNL     1      -1.342  -0.551   3.099  0.00  0.00    +0.036 C 
BRANCH   5  16
ATOM      7  C   UNL     1       0.016   1.504  -0.010  0.00  0.00    +0.048 C 
ATOM      8  C   UNL     1       0.028  -0.003  -0.013  0.00  0.00    +0.000 A 
ATOM      9  C   UNL     1       0.034  -0.882  -1.189  0.00  0.00    +0.023 A 
ATOM     10  C   UNL     1       0.030  -0.668  -2.566  0.00  0.00    +0.012 A 
ATOM     11  C   UNL     1       0.037  -1.737  -3.418  0.00  0.00    +0.001 A 
ATOM     12  C   UNL     1       0.048  -3.032  -2.921  0.00  0.00    +0.004 A 
ATOM     13  C   UNL     1       0.051  -3.263  -1.562  0.00  0.00    +0.047 A 
ATOM     14  C   UNL     1       0.044  -2.191  -0.678  0.00  0.00    +0.136 A 
ATOM     15  O   UNL     1       0.044  -2.097   0.666  0.00  0.00    -0.458 OA
ATOM     16  C   UNL     1       0.041  -0.810   1.057  0.00  0.00    +0.129 A 
ENDBRANCH   5  16
ENDBRANCH   1   5
BRANCH   2  17
ATOM     17  C   UNL     1       2.601  -1.380   5.145  0.00  0.00    +0.157 C 
ATOM     18  C   UNL     1       1.968  -2.687   5.627  0.00  0.00    +0.038 C 
BRANCH  17  19
ATOM     19  N   UNL     1       3.046  -0.597   6.301  0.00  0.00    -0.288 N 
ATOM     20  C   UNL     1       4.255  -0.831   6.848  0.00  0.00    +0.304 C 
ATOM     21  O   UNL     1       4.977  -1.691   6.382  0.00  0.00    -0.252 OA
ATOM     22  N   UNL     1       4.664  -0.110   7.911  0.00  0.00    -0.269 N 
ATOM     23  H   UNL     1       2.470   0.089   6.672  0.00  0.00    +0.151 HD
ATOM     24  H   UNL     1       4.118   0.621   8.241  0.00  0.00    +0.156 HD
BRANCH  22  25
ATOM     25  C   UNL     1       5.877  -0.417   8.539  0.00  0.00    +0.035 A 
ATOM     26  C   UNL     1       6.001  -0.280   9.915  0.00  0.00    +0.023 A 
ATOM     27  C   UNL     1       7.199  -0.583  10.533  0.00  0.00    +0.002 A 
ATOM     28  C   UNL     1       8.273  -1.023   9.781  0.00  0.00    +0.000 A 
ATOM     29  C   UNL     1       8.152  -1.160   8.411  0.00  0.00    +0.002 A 
ATOM     30  C   UNL     1       6.956  -0.864   7.788  0.00  0.00    +0.023 A 
ENDBRANCH  22  25
ENDBRANCH  17  19
ENDBRANCH   2  17
TORSDOF 5
