REMARK  Name = ZINC32757920
REMARK  4 active torsions:
REMARK  status: ('A' for Active; 'I' for Inactive)
REMARK    1  A    between atoms: C_1  and  C_2
REMARK    2  A    between atoms: C_2  and  C_20
REMARK    3  A    between atoms: N_5  and  C_9
REMARK    4  A    between atoms: C_9  and  C_10
REMARK                            x       y       z     vdW  Elec       q    Type
REMARK                         _______ _______ _______ _____ _____    ______ ____
ROOT
ATOM      1  C   UNL     1      -0.019   1.526   0.010  0.00  0.00    +0.047 C 
ATOM      2  C   UNL     1       0.002  -0.004   0.002  0.00  0.00    +0.135 C 
ATOM      3  C   UNL     1       0.815  -0.520  -1.169  0.00  0.00    +0.251 C 
ATOM      4  O   UNL     1       0.595  -0.342  -2.348  0.00  0.00    -0.272 OA
ATOM      5  N   UNL     1       1.833  -1.217  -0.627  0.00  0.00    -0.219 N 
ATOM      6  C   UNL     1       1.777  -1.214   0.710  0.00  0.00    +0.310 C 
ATOM      7  O   UNL     1       2.586  -1.776   1.421  0.00  0.00    -0.252 OA
ATOM      8  N   UNL     1       0.724  -0.519   1.178  0.00  0.00    -0.281 N 
ATOM      9  H   UNL     1       0.487  -0.383   2.109  0.00  0.00    +0.152 HD
ENDROOT
BRANCH   2  10
ATOM     10  C   UNL     1      -1.401  -0.551  -0.040  0.00  0.00    -0.016 A 
ATOM     11  C   UNL     1      -2.005  -0.815  -1.256  0.00  0.00    +0.006 A 
ATOM     12  C   UNL     1      -3.292  -1.317  -1.294  0.00  0.00    +0.000 A 
ATOM     13  C   UNL     1      -3.976  -1.556  -0.117  0.00  0.00    +0.000 A 
ATOM     14  C   UNL     1      -3.372  -1.294   1.099  0.00  0.00    +0.000 A 
ATOM     15  C   UNL     1      -2.083  -0.796   1.137  0.00  0.00    +0.006 A 
ENDBRANCH   2  10
BRANCH   5  16
ATOM     16  C   UNL     1       2.871  -1.896  -1.406  0.00  0.00    +0.161 C 
BRANCH  16  17
ATOM     17  C   UNL     1       4.020  -0.950  -1.644  0.00  0.00    +0.027 A 
ATOM     18  C   UNL     1       5.110  -0.760  -0.885  0.00  0.00    +0.060 A 
ATOM     19  C   UNL     1       6.108   0.213  -1.304  0.00  0.00    +0.008 A 
ATOM     20  C   UNL     1       7.319   0.571  -0.664  0.00  0.00    +0.010 A 
ATOM     21  C   UNL     1       8.138   1.512  -1.204  0.00  0.00    +0.001 A 
ATOM     22  C   UNL     1       7.821   2.154  -2.394  0.00  0.00    +0.001 A 
ATOM     23  C   UNL     1       6.649   1.833  -3.049  0.00  0.00    +0.016 A 
ATOM     24  C   UNL     1       5.810   0.880  -2.511  0.00  0.00    +0.021 A 
ATOM     25  S   UNL     1       4.257   0.178  -3.004  0.00  0.00    -0.090 S 
ATOM     26 CL   UNL     1       5.327  -1.666   0.580  0.00  0.00    -0.082 Cl
ENDBRANCH  16  17
ENDBRANCH   5  16
TORSDOF 3
