REMARK  Name = ZINC39672756
REMARK  9 active torsions:
REMARK  status: ('A' for Active; 'I' for Inactive)
REMARK    1  A    between atoms: C_1  and  C_2
REMARK    2  A    between atoms: C_2  and  C_3
REMARK    3  A    between atoms: C_3  and  C_4
REMARK    4  A    between atoms: C_4  and  C_6
REMARK    5  A    between atoms: C_4  and  C_7
REMARK    6  A    between atoms: C_11  and  C_20
REMARK    7  A    between atoms: N_22  and  C_23
REMARK    8  A    between atoms: C_23  and  C_24
REMARK    9  A    between atoms: C_24  and  N_30
REMARK                            x       y       z     vdW  Elec       q    Type
REMARK                         _______ _______ _______ _____ _____    ______ ____
ROOT
ATOM      1  C   UNL     1       1.780  -2.631  -2.513  0.00  0.00    +0.218 C 
ATOM      2  O   UNL     1       2.210  -1.873  -3.356  0.00  0.00    -0.275 OA
ATOM      3  N   UNL     1       1.816  -3.962  -2.721  0.00  0.00    -0.300 N 
ATOM      4  C   UNL     1       1.337  -5.037  -1.820  0.00  0.00    +0.121 C 
ATOM      5  C   UNL     1       0.685  -6.074  -2.761  0.00  0.00    +0.100 C 
ATOM      6  C   UNL     1       1.352  -5.838  -4.127  0.00  0.00    -0.004 C 
ATOM      7  C   UNL     1       2.339  -4.682  -3.908  0.00  0.00    +0.115 C 
ATOM      8  C   UNL     1       2.096  -7.092  -4.575  0.00  0.00    -0.010 C 
ATOM      9  C   UNL     1       2.701  -6.852  -5.962  0.00  0.00    -0.082 C 
ATOM     10  N   UNL     1       1.633  -6.526  -6.914  0.00  0.00    +0.379 N 
ATOM     11  C   UNL     1       0.983  -5.269  -6.526  0.00  0.00    -0.082 C 
ATOM     12  C   UNL     1       0.305  -5.442  -5.164  0.00  0.00    -0.010 C 
ATOM     13  H   UNL     1       2.027  -6.429  -7.838  0.00  0.00    -0.086 HD
ATOM     14  H   UNL     1       0.951  -7.269  -6.919  0.00  0.00    -0.086 HD
ENDROOT
BRANCH   5  15
ATOM     15  C   UNL     1       0.964  -7.473  -2.273  0.00  0.00    +0.218 C 
ATOM     16  O   UNL     1       1.994  -7.715  -1.681  0.00  0.00    -0.275 OA
ATOM     17  N   UNL     1       0.068  -8.455  -2.496  0.00  0.00    -0.313 N 
ATOM     18  H   UNL     1      -0.756  -8.261  -2.970  0.00  0.00    +0.149 HD
BRANCH  17  19
ATOM     19  C   UNL     1       0.338  -9.814  -2.022  0.00  0.00    +0.126 C 
BRANCH  19  20
ATOM     20  C   UNL     1      -0.768 -10.753  -2.508  0.00  0.00    +0.038 C 
ATOM     21  C   UNL     1      -0.557 -12.144  -1.905  0.00  0.00    +0.024 C 
ATOM     22  C   UNL     1       0.804 -12.689  -2.343  0.00  0.00    +0.002 C 
ATOM     23  C   UNL     1       0.848 -12.783  -3.870  0.00  0.00    +0.000 C 
ATOM     24  C   UNL     1       0.638 -11.392  -4.472  0.00  0.00    +0.002 C 
ATOM     25  C   UNL     1      -0.723 -10.847  -4.034  0.00  0.00    +0.024 C 
BRANCH  20  26
ATOM     26  N   UNL     1      -2.074 -10.230  -2.087  0.00  0.00    -0.291 NA
ATOM     27  C   UNL     1      -2.133 -10.073  -0.627  0.00  0.00    +0.113 C 
ATOM     28  C   UNL     1      -3.486  -9.471  -0.238  0.00  0.00    +0.175 C 
ATOM     29  O   UNL     1      -4.535 -10.306  -0.735  0.00  0.00    -0.377 OA
ATOM     30  C   UNL     1      -4.508 -10.481  -2.155  0.00  0.00    +0.175 C 
ATOM     31  C   UNL     1      -3.165 -11.093  -2.563  0.00  0.00    +0.113 C 
ENDBRANCH  20  26
ENDBRANCH  19  20
ENDBRANCH  17  19
ENDBRANCH   5  15
BRANCH   1  32
ATOM     32  C   UNL     1       1.205  -2.085  -1.231  0.00  0.00    +0.072 C 
ATOM     33  C   UNL     1       2.004  -2.624  -0.043  0.00  0.00    +0.017 C 
BRANCH  32  34
ATOM     34  C   UNL     1       1.283  -0.557  -1.248  0.00  0.00    +0.012 C 
BRANCH  34  36
ATOM     35  C   UNL     1       0.666   1.530  -0.022  0.00  0.00    +0.004 C 
ATOM     36  C   UNL     1       0.588   0.003  -0.005  0.00  0.00    -0.003 C 
ENDBRANCH  34  36
ENDBRANCH  32  34
ENDBRANCH   1  32
TORSDOF 7
