REMARK  Name = ZINC63278408
REMARK  5 active torsions:
REMARK  status: ('A' for Active; 'I' for Inactive)
REMARK    1  A    between atoms: C_3  and  C_24
REMARK    2  A    between atoms: C_6  and  C_7
REMARK    3  A    between atoms: C_10  and  C_12
REMARK    4  A    between atoms: C_13  and  C_14
REMARK    5  A    between atoms: C_13  and  C_16
REMARK                            x       y       z     vdW  Elec       q    Type
REMARK                         _______ _______ _______ _____ _____    ______ ____
ROOT
ATOM      1  C   UNL     1      -4.776  -0.864   0.434  0.00  0.00    +0.068 C 
ATOM      2  C   UNL     1      -5.406   0.066  -0.372  0.00  0.00    +0.099 C 
ENDROOT
BRANCH   2   3
ATOM      3  C   UNL     1      -4.605   1.004  -1.183  0.00  0.00    +0.177 A 
ATOM      4  N   UNL     1      -3.284   0.848  -1.272  0.00  0.00    -0.194 NA
ATOM      5  C   UNL     1      -2.564   1.694  -2.002  0.00  0.00    +0.217 A 
ATOM      6  N   UNL     1      -3.161   2.694  -2.643  0.00  0.00    -0.181 NA
ATOM      7  C   UNL     1      -4.479   2.850  -2.556  0.00  0.00    +0.217 A 
ATOM      8  N   UNL     1      -5.096   3.889  -3.223  0.00  0.00    -0.327 N 
ATOM      9  N   UNL     1      -5.202   2.003  -1.831  0.00  0.00    -0.194 NA
ATOM     10  N   UNL     1      -1.197   1.534  -2.094  0.00  0.00    -0.327 N 
ATOM     11  H   UNL     1      -4.569   4.505  -3.755  0.00  0.00    +0.145 HD
ATOM     12  H   UNL     1      -0.771   0.758  -1.696  0.00  0.00    +0.145 HD
ATOM     13  H   UNL     1      -0.661   2.197  -2.557  0.00  0.00    +0.145 HD
ATOM     14  H   UNL     1      -6.057   4.003  -3.159  0.00  0.00    +0.145 HD
ENDBRANCH   2   3
BRANCH   1  18
ATOM     15  C   UNL     1      -1.376   0.036   0.988  0.00  0.00    +0.136 A 
ATOM     16  C   UNL     1      -1.240  -1.334   0.925  0.00  0.00    +0.050 A 
ATOM     17  C   UNL     1      -2.513  -1.861   0.707  0.00  0.00    +0.050 A 
ATOM     18  C   UNL     1      -3.386  -0.787   0.643  0.00  0.00    +0.130 A 
ATOM     19  O   UNL     1      -2.674   0.346   0.821  0.00  0.00    -0.455 OA
BRANCH  15  25
ATOM     20  C   UNL     1      -0.540   2.374   1.180  0.00  0.00    +0.012 A 
ATOM     21  C   UNL     1       0.488   3.270   1.386  0.00  0.00    +0.013 A 
ATOM     22  C   UNL     1       1.773   2.812   1.620  0.00  0.00    +0.055 A 
ATOM     23  C   UNL     1       2.037   1.454   1.647  0.00  0.00    +0.013 A 
ATOM     24  C   UNL     1       1.019   0.546   1.442  0.00  0.00    +0.012 A 
ATOM     25  C   UNL     1      -0.281   1.001   1.207  0.00  0.00    +0.017 A 
BRANCH  22  26
ATOM     26  C   UNL     1       2.891   3.798   1.844  0.00  0.00    +0.417 C 
ATOM     27  F   UNL     1       2.994   4.083   3.210  0.00  0.00    -0.166 F 
ATOM     28  F   UNL     1       4.095   3.249   1.390  0.00  0.00    -0.166 F 
ATOM     29  F   UNL     1       2.621   4.977   1.141  0.00  0.00    -0.166 F 
ENDBRANCH  22  26
ENDBRANCH  15  25
ENDBRANCH   1  18
BRANCH   2  30
ATOM     30  C   UNL     1      -6.836   0.118  -0.421  0.00  0.00    +0.103 C 
ATOM     31  N   UNL     1      -7.971   0.160  -0.460  0.00  0.00    -0.191 NA
ENDBRANCH   2  30
TORSDOF 5
