REMARK  Name = ZINC65010988
REMARK  10 active torsions:
REMARK  status: ('A' for Active; 'I' for Inactive)
REMARK    1  A    between atoms: C_1  and  C_2
REMARK    2  A    between atoms: C_2  and  N_3
REMARK    3  A    between atoms: C_7  and  C_9
REMARK    4  A    between atoms: C_9  and  N_10
REMARK    5  A    between atoms: N_10  and  S_11
REMARK    6  A    between atoms: S_11  and  C_14
REMARK    7  A    between atoms: C_15  and  C_34
REMARK    8  A    between atoms: C_16  and  C_33
REMARK    9  A    between atoms: C_21  and  C_24
REMARK   10  A    between atoms: C_22  and  C_23
REMARK                            x       y       z     vdW  Elec       q    Type
REMARK                         _______ _______ _______ _____ _____    ______ ____
ROOT
ATOM      1  C   UNL     1      -2.605  -3.786   4.285  0.00  0.00    +0.151 A 
ATOM      2  C   UNL     1      -3.716  -4.555   4.015  0.00  0.00    -0.018 A 
ATOM      3  C   UNL     1      -3.850  -5.824   4.560  0.00  0.00    -0.045 A 
ATOM      4  C   UNL     1      -2.879  -6.334   5.375  0.00  0.00    +0.015 A 
ATOM      5  C   UNL     1      -1.745  -5.571   5.661  0.00  0.00    +0.026 A 
ATOM      6  C   UNL     1      -1.601  -4.285   5.106  0.00  0.00    +0.163 A 
ATOM      7  O   UNL     1      -0.426  -3.785   5.537  0.00  0.00    -0.448 OA
ATOM      8  C   UNL     1       0.209  -4.669   6.335  0.00  0.00    +0.194 A 
ATOM      9  C   UNL     1      -0.545  -5.791   6.468  0.00  0.00    +0.008 A 
ATOM     10  C   UNL     1      -0.206  -7.020   7.270  0.00  0.00    +0.048 C 
ATOM     11  C   UNL     1      -5.075  -6.646   4.251  0.00  0.00    +0.044 C 
ATOM     12  C   UNL     1      -4.798  -4.011   3.118  0.00  0.00    +0.046 C 
ENDROOT
BRANCH   8  13
ATOM     13  C   UNL     1       1.513  -4.446   6.974  0.00  0.00    +0.282 C 
ATOM     14  O   UNL     1       2.055  -5.349   7.583  0.00  0.00    -0.267 OA
ATOM     15  N   UNL     1       2.109  -3.240   6.887  0.00  0.00    -0.295 N 
ATOM     16  C   UNL     1       1.467  -2.204   6.108  0.00  0.00    +0.108 C 
ATOM     17  C   UNL     1       1.946  -2.288   4.638  0.00  0.00    +0.019 C 
ATOM     18  C   UNL     1       3.345  -1.845   4.531  0.00  0.00    +0.002 C 
ATOM     19  C   UNL     1       4.339  -2.709   5.302  0.00  0.00    +0.002 C 
ATOM     20  C   UNL     1       4.399  -2.243   6.736  0.00  0.00    +0.019 C 
ATOM     21  C   UNL     1       3.386  -3.029   7.595  0.00  0.00    +0.108 C 
ENDBRANCH   8  13
BRANCH   1  22
ATOM     22  S   UNL     1      -2.453  -2.176   3.584  0.00  0.00    +0.062 S 
ATOM     23  O   UNL     1      -3.070  -2.231   2.305  0.00  0.00    -0.153 OA
ATOM     24  O   UNL     1      -1.099  -1.782   3.761  0.00  0.00    -0.153 OA
BRANCH  22  25
ATOM     25  N   UNL     1      -3.369  -1.151   4.508  0.00  0.00    -0.191 NA
ATOM     26  H   UNL     1      -4.146  -0.717   4.124  0.00  0.00    +0.148 HD
BRANCH  25  27
ATOM     27  C   UNL     1      -3.004  -0.901   5.904  0.00  0.00    +0.090 C 
BRANCH  27  32
ATOM     28  N   UNL     1      -3.491   1.480   5.529  0.00  0.00    +0.382 N 
ATOM     29  C   UNL     1      -2.823   2.538   6.316  0.00  0.00    -0.078 C 
ATOM     30  C   UNL     1      -3.239   2.262   7.782  0.00  0.00    -0.020 C 
ATOM     31  C   UNL     1      -3.244   0.711   7.820  0.00  0.00    -0.016 C 
ATOM     32  C   UNL     1      -3.754   0.331   6.414  0.00  0.00    -0.053 C 
ATOM     33  H   UNL     1      -2.890   1.194   4.770  0.00  0.00    -0.081 HD
BRANCH  28  35
ATOM     34  C   UNL     1      -4.473   3.101   3.977  0.00  0.00    -0.017 C 
ATOM     35  C   UNL     1      -4.759   1.990   4.991  0.00  0.00    -0.082 C 
ENDBRANCH  28  35
ENDBRANCH  27  32
ENDBRANCH  25  27
ENDBRANCH  22  25
ENDBRANCH   1  22
TORSDOF 6
