REMARK  Name = ZINC45741298
REMARK  5 active torsions:
REMARK  status: ('A' for Active; 'I' for Inactive)
REMARK    1  A    between atoms: C_1  and  C_2
REMARK    2  A    between atoms: C_5  and  C_23
REMARK    3  A    between atoms: N_8  and  S_10
REMARK    4  A    between atoms: S_10  and  N_13
REMARK    5  A    between atoms: N_13  and  C_14
REMARK                            x       y       z     vdW  Elec       q    Type
REMARK                         _______ _______ _______ _____ _____    ______ ____
ROOT
ATOM      1  S   UNL     1       1.995  -2.913   1.418  0.00  0.00    +0.098 S 
ATOM      2  O   UNL     1       2.993  -2.095   2.015  0.00  0.00    -0.141 OA
ATOM      3  O   UNL     1       1.585  -4.150   1.985  0.00  0.00    -0.141 OA
ENDROOT
BRANCH   1   9
ATOM      4  C   UNL     1      -0.026   1.522   0.002  0.00  0.00    +0.009 C 
ATOM      5  C   UNL     1      -0.003  -0.008  -0.005  0.00  0.00    +0.002 C 
ATOM      6  C   UNL     1      -1.438  -0.540   0.005  0.00  0.00    +0.009 C 
ATOM      7  C   UNL     1      -1.416  -2.070  -0.035  0.00  0.00    +0.002 C 
ATOM      8  C   UNL     1      -0.695  -2.599   1.208  0.00  0.00    +0.113 C 
ATOM      9  N   UNL     1       0.635  -1.979   1.284  0.00  0.00    -0.166 NA
ATOM     10  C   UNL     1       0.735  -0.514   1.238  0.00  0.00    +0.113 C 
ATOM     11  C   UNL     1      -2.851  -2.600  -0.059  0.00  0.00    +0.009 C 
ENDBRANCH   1   9
BRANCH   1  12
ATOM     12  N   UNL     1       2.514  -3.247  -0.119  0.00  0.00    -0.168 NA
ATOM     13  H   UNL     1       2.506  -4.160  -0.446  0.00  0.00    +0.150 HD
BRANCH  12  14
ATOM     14  C   UNL     1       2.984  -2.162  -0.985  0.00  0.00    +0.163 C 
ATOM     15  C   UNL     1       2.713  -2.519  -2.448  0.00  0.00    +0.030 C 
ATOM     16  C   UNL     1       2.874  -4.011  -2.677  0.00  0.00    +0.004 C 
ATOM     17  C   UNL     1       4.300  -4.506  -2.513  0.00  0.00    +0.019 C 
ATOM     18  C   UNL     1       4.754  -4.384  -1.057  0.00  0.00    +0.104 C 
ATOM     19  N   UNL     1       5.293  -3.031  -0.843  0.00  0.00    -0.314 N 
ATOM     20  C   UNL     1       4.475  -1.974  -0.800  0.00  0.00    +0.232 C 
ATOM     21  O   UNL     1       4.926  -0.863  -0.618  0.00  0.00    -0.274 OA
ATOM     22  H   UNL     1       6.248  -2.905  -0.730  0.00  0.00    +0.149 HD
ENDBRANCH  12  14
ENDBRANCH   1  12
TORSDOF 3
