REMARK  Name = ZINC33058165
REMARK  4 active torsions:
REMARK  status: ('A' for Active; 'I' for Inactive)
REMARK    1  A    between atoms: C_4  and  C_7
REMARK    2  A    between atoms: C_9  and  C_12
REMARK    3  A    between atoms: N_17  and  S_19
REMARK    4  A    between atoms: S_19  and  C_22
REMARK                            x       y       z     vdW  Elec       q    Type
REMARK                         _______ _______ _______ _____ _____    ______ ____
ROOT
ATOM      1  C   UNL     1      -1.634   5.115   3.635  0.00  0.00    +0.093 C 
ATOM      2  C   UNL     1      -2.696   4.374   4.450  0.00  0.00    +0.015 C 
ATOM      3  C   UNL     1      -3.233   3.192   3.639  0.00  0.00    +0.018 C 
ATOM      4  C   UNL     1      -3.889   3.717   2.353  0.00  0.00    +0.109 C 
ATOM      5  N   UNL     1      -2.913   4.548   1.635  0.00  0.00    -0.175 NA
ATOM      6  C   UNL     1      -2.268   5.658   2.350  0.00  0.00    +0.122 C 
ENDROOT
BRANCH   1   9
ATOM      7  C   UNL     1       0.186   7.581   5.512  0.00  0.00    +0.202 A 
ATOM      8  N   UNL     1       0.164   6.427   4.808  0.00  0.00    -0.191 NA
ATOM      9  C   UNL     1      -1.083   6.259   4.446  0.00  0.00    +0.232 A 
ATOM     10  O   UNL     1      -1.778   7.290   4.937  0.00  0.00    -0.337 OA
ATOM     11  N   UNL     1      -1.039   8.037   5.544  0.00  0.00    -0.056 NA
BRANCH   7  15
ATOM     12  C   UNL     1       3.597   9.381   7.304  0.00  0.00    +0.000 A 
ATOM     13  C   UNL     1       2.358   9.984   7.422  0.00  0.00    +0.001 A 
ATOM     14  C   UNL     1       1.247   9.404   6.842  0.00  0.00    +0.012 A 
ATOM     15  C   UNL     1       1.377   8.209   6.138  0.00  0.00    +0.022 A 
ATOM     16  C   UNL     1       2.626   7.603   6.027  0.00  0.00    +0.012 A 
ATOM     17  C   UNL     1       3.731   8.195   6.605  0.00  0.00    +0.001 A 
ENDBRANCH   7  15
ENDBRANCH   1   9
BRANCH   5  18
ATOM     18  S   UNL     1      -2.551   4.243   0.049  0.00  0.00    +0.067 S 
ATOM     19  O   UNL     1      -2.072   5.463  -0.500  0.00  0.00    -0.152 OA
ATOM     20  O   UNL     1      -3.664   3.547  -0.496  0.00  0.00    -0.152 OA
BRANCH  18  21
ATOM     21  C   UNL     1      -1.196   3.116   0.030  0.00  0.00    +0.143 A 
ATOM     22  C   UNL     1      -1.213   1.761   0.017  0.00  0.00    +0.036 A 
ATOM     23  C   UNL     1      -0.013   1.076   0.008  0.00  0.00    +0.010 A 
ATOM     24  C   UNL     1       1.146   1.780   0.001  0.00  0.00    +0.047 A 
ATOM     25  S   UNL     1       0.555   3.464   0.015  0.00  0.00    -0.077 S 
ENDBRANCH  18  21
ENDBRANCH   5  18
TORSDOF 4
