REMARK  Name = ZINC39636249
REMARK  11 active torsions:
REMARK  status: ('A' for Active; 'I' for Inactive)
REMARK    1  A    between atoms: C_1  and  O_2
REMARK    2  A    between atoms: O_2  and  C_3
REMARK    3  A    between atoms: C_8  and  C_9
REMARK    4  A    between atoms: C_9  and  C_10
REMARK    5  A    between atoms: C_10  and  N_11
REMARK    6  A    between atoms: C_12  and  C_14
REMARK    7  A    between atoms: C_25  and  C_27
REMARK    8  A    between atoms: C_30  and  O_35
REMARK    9  A    between atoms: C_31  and  O_33
REMARK   10  A    between atoms: O_33  and  C_34
REMARK   11  A    between atoms: O_35  and  C_36
REMARK                            x       y       z     vdW  Elec       q    Type
REMARK                         _______ _______ _______ _____ _____    ______ ____
ROOT
ATOM      1  C   UNL     1      -3.823  -5.255   1.201  0.00  0.00    +0.100 C 
ATOM      2  C   UNL     1      -3.293  -6.676   1.494  0.00  0.00    +0.121 C 
ATOM      3  N   UNL     1      -4.493  -7.449   1.894  0.00  0.00    -0.296 N 
ATOM      4  C   UNL     1      -5.561  -6.967   0.986  0.00  0.00    +0.115 C 
ATOM      5  C   UNL     1      -5.312  -5.450   0.867  0.00  0.00    -0.004 C 
ATOM      6  C   UNL     1      -5.600  -4.979  -0.555  0.00  0.00    -0.010 C 
ATOM      7  C   UNL     1      -7.097  -5.128  -0.844  0.00  0.00    -0.082 C 
ATOM      8  N   UNL     1      -7.865  -4.334   0.122  0.00  0.00    +0.379 N 
ATOM      9  C   UNL     1      -7.654  -4.854   1.478  0.00  0.00    -0.082 C 
ATOM     10  C   UNL     1      -6.181  -4.692   1.865  0.00  0.00    -0.010 C 
ATOM     11  C   UNL     1      -4.591  -8.379   2.865  0.00  0.00    +0.247 C 
ATOM     12  O   UNL     1      -3.655  -8.576   3.615  0.00  0.00    -0.270 OA
ATOM     13  H   UNL     1      -7.562  -3.372   0.081  0.00  0.00    -0.086 HD
ATOM     14  H   UNL     1      -8.846  -4.385  -0.107  0.00  0.00    -0.086 HD
ENDROOT
BRANCH  11  15
ATOM     15  C   UNL     1      -5.835  -9.158   3.017  0.00  0.00    +0.041 A 
ATOM     16  C   UNL     1      -6.726  -9.271   1.946  0.00  0.00    +0.017 A 
ATOM     17  C   UNL     1      -7.886 -10.000   2.090  0.00  0.00    +0.050 A 
ATOM     18  C   UNL     1      -8.175 -10.622   3.297  0.00  0.00    +0.162 A 
ATOM     19  C   UNL     1      -7.291 -10.513   4.369  0.00  0.00    +0.162 A 
ATOM     20  C   UNL     1      -6.122  -9.789   4.230  0.00  0.00    +0.062 A 
BRANCH  19  21
ATOM     21  O   UNL     1      -7.576 -11.123   5.551  0.00  0.00    -0.491 OA
ATOM     22  C   UNL     1      -6.626 -10.969   6.607  0.00  0.00    +0.277 C 
ENDBRANCH  19  21
BRANCH  18  23
ATOM     23  O   UNL     1      -9.320 -11.338   3.433  0.00  0.00    -0.491 OA
ATOM     24  C   UNL     1     -10.181 -11.409   2.295  0.00  0.00    +0.277 C 
ENDBRANCH  18  23
ENDBRANCH  11  15
BRANCH   1  26
ATOM     25  N   UNL     1      -2.922  -3.321  -0.051  0.00  0.00    -0.315 N 
ATOM     26  C   UNL     1      -3.096  -4.656   0.025  0.00  0.00    +0.218 C 
ATOM     27  O   UNL     1      -2.666  -5.374  -0.852  0.00  0.00    -0.275 OA
ATOM     28  H   UNL     1      -3.266  -2.747   0.651  0.00  0.00    +0.149 HD
BRANCH  25  29
ATOM     29  C   UNL     1      -2.215  -2.739  -1.194  0.00  0.00    +0.109 C 
BRANCH  29  30
ATOM     30  C   UNL     1      -2.156  -1.218  -1.036  0.00  0.00    +0.057 C 
BRANCH  30  36
ATOM     31  C   UNL     1      -2.116  -0.337  -3.384  0.00  0.00    +0.123 A 
ATOM     32  C   UNL     1      -1.444   0.219  -4.463  0.00  0.00    +0.046 A 
ATOM     33  C   UNL     1      -0.093   0.487  -4.370  0.00  0.00    +0.004 A 
ATOM     34  C   UNL     1       0.591   0.201  -3.202  0.00  0.00    +0.000 A 
ATOM     35  C   UNL     1      -0.075  -0.354  -2.126  0.00  0.00    +0.007 A 
ATOM     36  C   UNL     1      -1.429  -0.619  -2.212  0.00  0.00    -0.004 A 
BRANCH  31  38
ATOM     37  C   UNL     1      -4.089  -0.286  -4.709  0.00  0.00    +0.277 C 
ATOM     38  O   UNL     1      -3.446  -0.601  -3.473  0.00  0.00    -0.495 OA
ENDBRANCH  31  38
ENDBRANCH  30  36
ENDBRANCH  29  30
ENDBRANCH  25  29
ENDBRANCH   1  26
TORSDOF 8
