REMARK  Name = ZINC35130955
REMARK  14 active torsions:
REMARK  status: ('A' for Active; 'I' for Inactive)
REMARK    1  A    between atoms: C_1  and  C_2
REMARK    2  A    between atoms: C_7  and  N_8
REMARK    3  A    between atoms: C_9  and  N_17
REMARK    4  A    between atoms: C_11  and  C_13
REMARK    5  A    between atoms: C_13  and  C_14
REMARK    6  A    between atoms: C_13  and  C_15
REMARK    7  A    between atoms: C_13  and  C_16
REMARK    8  A    between atoms: C_18  and  C_20
REMARK    9  A    between atoms: C_20  and  N_21
REMARK   10  A    between atoms: C_22  and  C_24
REMARK   11  A    between atoms: C_26  and  O_32
REMARK   12  A    between atoms: C_28  and  O_30
REMARK   13  A    between atoms: O_30  and  C_31
REMARK   14  A    between atoms: O_32  and  C_33
REMARK                            x       y       z     vdW  Elec       q    Type
REMARK                         _______ _______ _______ _____ _____    ______ ____
ROOT
ATOM      1  N   UNL     1       0.560  -1.706   3.937  0.00  0.00    -0.269 N 
ATOM      2  C   UNL     1       0.659  -2.058   5.234  0.00  0.00    +0.235 C 
ATOM      3  O   UNL     1       0.592  -1.210   6.099  0.00  0.00    -0.274 OA
ATOM      4  H   UNL     1       0.613  -2.384   3.245  0.00  0.00    +0.156 HD
ENDROOT
BRANCH   1   6
ATOM      5  N   UNL     1       0.146   0.115   2.338  0.00  0.00    -0.218 N 
ATOM      6  C   UNL     1       0.380  -0.368   3.589  0.00  0.00    +0.129 A 
ATOM      7  C   UNL     1       0.404   0.695   4.439  0.00  0.00    +0.069 A 
ATOM      8  C   UNL     1       0.181   1.852   3.686  0.00  0.00    +0.071 A 
ATOM      9  N   UNL     1       0.032   1.508   2.432  0.00  0.00    -0.169 NA
BRANCH   5  16
ATOM     10  C   UNL     1      -2.054   0.609   0.602  0.00  0.00    +0.046 C 
ATOM     11  C   UNL     1      -1.014  -0.436   0.291  0.00  0.00    -0.025 A 
ATOM     12  C   UNL     1      -1.108  -1.183  -0.868  0.00  0.00    +0.005 A 
ATOM     13  C   UNL     1      -0.154  -2.142  -1.153  0.00  0.00    +0.000 A 
ATOM     14  C   UNL     1       0.897  -2.357  -0.281  0.00  0.00    +0.002 A 
ATOM     15  C   UNL     1       0.997  -1.614   0.879  0.00  0.00    +0.028 A 
ATOM     16  C   UNL     1       0.044  -0.645   1.165  0.00  0.00    +0.070 A 
ENDBRANCH   5  16
BRANCH   8  17
ATOM     17  C   UNL     1       0.126   3.257   4.226  0.00  0.00    +0.006 C 
ATOM     18  C   UNL     1       1.543   3.736   4.549  0.00  0.00    +0.017 C 
ATOM     19  C   UNL     1      -0.499   4.182   3.179  0.00  0.00    +0.017 C 
ATOM     20  C   UNL     1      -0.723   3.282   5.499  0.00  0.00    +0.017 C 
ENDBRANCH   8  17
ENDBRANCH   1   6
BRANCH   2  21
ATOM     21  C   UNL     1       0.854  -3.504   5.610  0.00  0.00    +0.200 C 
BRANCH  21  22
ATOM     22  N   UNL     1       0.932  -3.624   7.068  0.00  0.00    -0.303 N 
ATOM     23  C   UNL     1       1.106  -4.833   7.637  0.00  0.00    +0.245 C 
ATOM     24  O   UNL     1       1.198  -5.825   6.940  0.00  0.00    -0.270 OA
ATOM     25  H   UNL     1       0.859  -2.832   7.624  0.00  0.00    +0.150 HD
BRANCH  23  26
ATOM     26  C   UNL     1       1.185  -4.954   9.108  0.00  0.00    +0.044 A 
ATOM     27  C   UNL     1       1.073  -3.818   9.910  0.00  0.00    +0.059 A 
ATOM     28  C   UNL     1       1.147  -3.935  11.289  0.00  0.00    +0.124 A 
ATOM     29  C   UNL     1       1.332  -5.180  11.872  0.00  0.00    +0.091 A 
ATOM     30  C   UNL     1       1.443  -6.313  11.078  0.00  0.00    +0.124 A 
ATOM     31  C   UNL     1       1.365  -6.205   9.699  0.00  0.00    +0.059 A 
BRANCH  30  32
ATOM     32  O   UNL     1       1.624  -7.530  11.654  0.00  0.00    -0.495 OA
ATOM     33  C   UNL     1       1.690  -7.569  13.081  0.00  0.00    +0.277 C 
ENDBRANCH  30  32
BRANCH  28  34
ATOM     34  O   UNL     1       1.039  -2.829  12.071  0.00  0.00    -0.495 OA
ATOM     35  C   UNL     1       1.124  -3.023  13.484  0.00  0.00    +0.277 C 
ENDBRANCH  28  34
ENDBRANCH  23  26
ENDBRANCH  21  22
ENDBRANCH   2  21
TORSDOF 8
