REMARK  Name = ZINC59444026
REMARK  5 active torsions:
REMARK  status: ('A' for Active; 'I' for Inactive)
REMARK    1  A    between atoms: C_1  and  C_2
REMARK    2  A    between atoms: C_7  and  C_24
REMARK    3  A    between atoms: C_8  and  C_11
REMARK    4  A    between atoms: N_13  and  N_14
REMARK    5  A    between atoms: C_15  and  C_16
REMARK                            x       y       z     vdW  Elec       q    Type
REMARK                         _______ _______ _______ _____ _____    ______ ____
ROOT
ATOM      1  C   UNL     1       0.057  -2.695   3.598  0.00  0.00    +0.282 C 
ATOM      2  O   UNL     1       1.099  -2.745   4.226  0.00  0.00    -0.267 OA
ATOM      3  N   UNL     1      -1.094  -2.381   4.224  0.00  0.00    -0.202 N 
ATOM      4  H   UNL     1      -1.934  -2.415   3.741  0.00  0.00    +0.178 HD
ENDROOT
BRANCH   1  12
ATOM      5  C   UNL     1       0.086   1.512   0.021  0.00  0.00    +0.045 C 
ATOM      6  C   UNL     1       0.075   0.005   0.009  0.00  0.00    -0.034 A 
ATOM      7  C   UNL     1       0.070  -0.684  -1.212  0.00  0.00    +0.008 A 
ATOM      8  C   UNL     1       0.060  -2.047  -1.215  0.00  0.00    +0.047 A 
ATOM      9  C   UNL     1       0.056  -2.740   0.009  0.00  0.00    +0.138 A 
ATOM     10  N   UNL     1       0.047  -4.042   0.293  0.00  0.00    -0.232 NA
ATOM     11  C   UNL     1       0.047  -4.215   1.605  0.00  0.00    +0.069 A 
ATOM     12  C   UNL     1       0.055  -2.967   2.206  0.00  0.00    +0.133 A 
ATOM     13  N   UNL     1       0.061  -2.039   1.181  0.00  0.00    -0.295 N 
ATOM     14  C   UNL     1       0.076  -0.679   1.175  0.00  0.00    +0.096 A 
ATOM     15  C   UNL     1       0.038  -5.541   2.321  0.00  0.00    +0.068 C 
ENDBRANCH   1  12
BRANCH   3  16
ATOM     16  N   UNL     1      -1.077  -2.007   5.574  0.00  0.00    -0.187 NA
ATOM     17  C   UNL     1      -2.186  -1.706   6.178  0.00  0.00    +0.138 C 
BRANCH  17  18
ATOM     18  C   UNL     1      -2.168  -1.312   7.599  0.00  0.00    -0.004 A 
ATOM     19  C   UNL     1      -0.958  -1.257   8.297  0.00  0.00    +0.011 A 
ATOM     20  C   UNL     1      -0.948  -0.888   9.626  0.00  0.00    +0.022 A 
ATOM     21  C   UNL     1      -2.133  -0.572  10.269  0.00  0.00    +0.059 A 
ATOM     22  C   UNL     1      -3.336  -0.625   9.584  0.00  0.00    +0.060 A 
ATOM     23  C   UNL     1      -3.359  -0.987   8.252  0.00  0.00    +0.031 A 
ATOM     24 CL   UNL     1      -4.816  -0.228  10.399  0.00  0.00    -0.082 Cl
ATOM     25 CL   UNL     1      -2.110  -0.109  11.942  0.00  0.00    -0.082 Cl
ENDBRANCH  17  18
ENDBRANCH   3  16
TORSDOF 3
