REMARK  Name = ZINC01382563
REMARK  11 active torsions:
REMARK  status: ('A' for Active; 'I' for Inactive)
REMARK    1  A    between atoms: C_1  and  C_2
REMARK    2  A    between atoms: C_4  and  C_43
REMARK    3  A    between atoms: C_7  and  C_14
REMARK    4  A    between atoms: C_14  and  C_16
REMARK    5  A    between atoms: C_14  and  N_27
REMARK    6  A    between atoms: N_20  and  C_21
REMARK    7  A    between atoms: C_21  and  C_22
REMARK    8  A    between atoms: N_27  and  C_28
REMARK    9  A    between atoms: N_27  and  C_35
REMARK   10  A    between atoms: C_28  and  C_29
REMARK   11  A    between atoms: C_35  and  C_36
REMARK                            x       y       z     vdW  Elec       q    Type
REMARK                         _______ _______ _______ _____ _____    ______ ____
ROOT
ATOM      1  C   UNL     1      -1.047  -6.995   0.525  0.00  0.00    +0.163 C 
ENDROOT
BRANCH   1   8
ATOM      2  C   UNL     1      -1.244   0.972   0.860  0.00  0.00    +0.044 C 
ATOM      3  C   UNL     1      -0.975  -0.509   0.786  0.00  0.00    -0.048 A 
ATOM      4  C   UNL     1       0.333  -0.966   0.705  0.00  0.00    +0.007 A 
ATOM      5  C   UNL     1       0.599  -2.304   0.637  0.00  0.00    -0.041 A 
ATOM      6  C   UNL     1      -0.456  -3.223   0.650  0.00  0.00    +0.002 A 
ATOM      7  C   UNL     1      -0.207  -4.663   0.580  0.00  0.00    +0.021 A 
ATOM      8  C   UNL     1      -1.269  -5.506   0.597  0.00  0.00    +0.042 A 
ATOM      9  C   UNL     1      -2.581  -4.994   0.681  0.00  0.00    +0.254 A 
ATOM     10  O   UNL     1      -3.522  -5.769   0.696  0.00  0.00    -0.268 OA
ATOM     11  N   UNL     1      -2.820  -3.672   0.746  0.00  0.00    -0.322 N 
ATOM     12  H   UNL     1      -3.734  -3.354   0.804  0.00  0.00    +0.169 HD
ATOM     13  C   UNL     1      -1.784  -2.763   0.733  0.00  0.00    +0.050 A 
ATOM     14  C   UNL     1      -2.030  -1.396   0.807  0.00  0.00    +0.029 A 
ATOM     15  C   UNL     1       2.023  -2.789   0.548  0.00  0.00    +0.044 C 
ENDBRANCH   1   8
BRANCH   1  16
ATOM     16  C   UNL     1       0.432  -7.284   0.542  0.00  0.00    +0.174 A 
ATOM     17  N   UNL     1       1.306  -6.844   1.414  0.00  0.00    -0.111 NA
ATOM     18  N   UNL     1       2.462  -7.310   1.088  0.00  0.00    -0.023 NA
ATOM     19  N   UNL     1       2.348  -8.036   0.032  0.00  0.00    -0.043 NA
ATOM     20  N   UNL     1       1.111  -8.050  -0.333  0.00  0.00    -0.220 N 
BRANCH  20  21
ATOM     21  C   UNL     1       0.550  -8.761  -1.485  0.00  0.00    +0.221 C 
BRANCH  21  22
ATOM     22  C   UNL     1       0.590  -7.865  -2.696  0.00  0.00    +0.126 A 
ATOM     23  C   UNL     1       1.601  -7.782  -3.580  0.00  0.00    +0.046 A 
ATOM     24  C   UNL     1       1.220  -6.826  -4.549  0.00  0.00    +0.041 A 
ATOM     25  C   UNL     1      -0.001  -6.382  -4.200  0.00  0.00    +0.195 A 
ATOM     26  O   UNL     1      -0.380  -7.020  -3.080  0.00  0.00    -0.466 OA
ENDBRANCH  21  22
ENDBRANCH  20  21
ENDBRANCH   1  16
BRANCH   1  27
ATOM     27  N   UNL     1      -1.685  -7.641   1.680  0.00  0.00    -0.280 NA
BRANCH  27  28
ATOM     28  C   UNL     1      -1.081  -7.185   2.939  0.00  0.00    +0.122 C 
BRANCH  28  29
ATOM     29  C   UNL     1      -1.644  -5.836   3.306  0.00  0.00    -0.015 A 
ATOM     30  C   UNL     1      -0.819  -4.722   3.358  0.00  0.00    +0.008 A 
ATOM     31  C   UNL     1      -1.381  -3.502   3.701  0.00  0.00    +0.020 A 
ATOM     32  C   UNL     1      -2.733  -3.436   3.977  0.00  0.00    +0.111 A 
ATOM     33  N   UNL     1      -3.487  -4.516   3.919  0.00  0.00    -0.263 NA
ATOM     34  C   UNL     1      -2.988  -5.692   3.590  0.00  0.00    +0.115 A 
ENDBRANCH  28  29
ENDBRANCH  27  28
BRANCH  27  35
ATOM     35  C   UNL     1      -1.622  -9.104   1.566  0.00  0.00    +0.122 C 
BRANCH  35  36
ATOM     36  C   UNL     1      -2.601  -9.726   2.528  0.00  0.00    -0.015 A 
ATOM     37  C   UNL     1      -2.143 -10.361   3.667  0.00  0.00    +0.006 A 
ATOM     38  C   UNL     1      -3.040 -10.932   4.550  0.00  0.00    +0.000 A 
ATOM     39  C   UNL     1      -4.398 -10.866   4.295  0.00  0.00    +0.001 A 
ATOM     40  C   UNL     1      -4.857 -10.231   3.157  0.00  0.00    +0.020 A 
ATOM     41  C   UNL     1      -3.959  -9.655   2.276  0.00  0.00    +0.045 A 
ATOM     42 CL   UNL     1      -4.537  -8.851   0.849  0.00  0.00    -0.083 Cl
ENDBRANCH  35  36
ENDBRANCH  27  35
ENDBRANCH   1  27
TORSDOF 9
