REMARK  Name = ZINC21917667
REMARK  10 active torsions:
REMARK  status: ('A' for Active; 'I' for Inactive)
REMARK    1  A    between atoms: C_1  and  C_2
REMARK    2  A    between atoms: C_2  and  C_3
REMARK    3  A    between atoms: C_6  and  C_9
REMARK    4  A    between atoms: C_9  and  C_11
REMARK    5  A    between atoms: C_9  and  N_32
REMARK    6  A    between atoms: C_11  and  N_12
REMARK    7  A    between atoms: C_13  and  C_15
REMARK    8  A    between atoms: N_24  and  C_26
REMARK    9  A    between atoms: N_32  and  C_33
REMARK   10  A    between atoms: N_32  and  C_34
REMARK                            x       y       z     vdW  Elec       q    Type
REMARK                         _______ _______ _______ _____ _____    ______ ____
ROOT
ATOM      1  N   UNL     1       2.047   5.191  -0.926  0.00  0.00    -0.311 N 
ATOM      2  C   UNL     1       1.741   3.938  -0.536  0.00  0.00    +0.265 C 
ATOM      3  O   UNL     1       2.626   3.120  -0.370  0.00  0.00    -0.268 OA
ATOM      4  H   UNL     1       1.246   5.931  -1.077  0.00  0.00    +0.149 HD
ENDROOT
BRANCH   2   5
ATOM      5  C   UNL     1       0.333   3.558  -0.310  0.00  0.00    +0.154 A 
ATOM      6  C   UNL     1      -0.011   2.192   0.116  0.00  0.00    +0.020 A 
ATOM      7  C   UNL     1       0.946   1.205   0.325  0.00  0.00    +0.011 A 
ATOM      8  C   UNL     1       0.545  -0.053   0.724  0.00  0.00    +0.001 A 
ATOM      9  C   UNL     1      -0.799  -0.342   0.918  0.00  0.00    +0.001 A 
ATOM     10  C   UNL     1      -1.764   0.621   0.716  0.00  0.00    +0.014 A 
ATOM     11  C   UNL     1      -1.380   1.897   0.313  0.00  0.00    +0.051 A 
ATOM     12  C   UNL     1      -2.342   2.980   0.070  0.00  0.00    +0.280 A 
ATOM     13  O   UNL     1      -3.537   2.797   0.215  0.00  0.00    -0.265 OA
ATOM     14  N   UNL     1      -1.870   4.184  -0.314  0.00  0.00    -0.196 N 
ATOM     15  N   UNL     1      -0.627   4.434  -0.487  0.00  0.00    -0.158 NA
BRANCH  14  16
ATOM     16  C   UNL     1      -2.790   5.214  -0.538  0.00  0.00    +0.069 A 
ATOM     17  C   UNL     1      -2.711   5.977  -1.697  0.00  0.00    +0.028 A 
ATOM     18  C   UNL     1      -3.624   6.990  -1.918  0.00  0.00    +0.002 A 
ATOM     19  C   UNL     1      -4.609   7.252  -0.983  0.00  0.00    +0.000 A 
ATOM     20  C   UNL     1      -4.687   6.497   0.173  0.00  0.00    +0.002 A 
ATOM     21  C   UNL     1      -3.780   5.480   0.398  0.00  0.00    +0.028 A 
ENDBRANCH  14  16
ENDBRANCH   2   5
BRANCH   1  22
ATOM     22  C   UNL     1       3.445   5.568  -1.151  0.00  0.00    +0.094 C 
BRANCH  22  23
ATOM     23  C   UNL     1       3.514   7.034  -1.584  0.00  0.00    -0.021 C 
BRANCH  23  27
ATOM     24  C   UNL     1       7.602   8.233  -1.900  0.00  0.00    -0.048 A 
ATOM     25  C   UNL     1       6.770   8.316  -3.001  0.00  0.00    +0.004 A 
ATOM     26  C   UNL     1       5.447   7.928  -2.899  0.00  0.00    +0.002 A 
ATOM     27  C   UNL     1       4.956   7.457  -1.695  0.00  0.00    -0.059 A 
ATOM     28  C   UNL     1       5.787   7.379  -0.593  0.00  0.00    +0.002 A 
ATOM     29  C   UNL     1       7.111   7.763  -0.697  0.00  0.00    +0.004 A 
BRANCH  24  31
ATOM     30  C   UNL     1       9.166  10.144  -1.673  0.00  0.00    +0.009 C 
ATOM     31  C   UNL     1       9.044   8.657  -2.012  0.00  0.00    +0.032 C 
ENDBRANCH  24  31
ENDBRANCH  23  27
BRANCH  23  32
ATOM     32  N   UNL     1       2.834   7.872  -0.587  0.00  0.00    +0.382 N 
ATOM     33  C   UNL     1       2.962   7.298   0.759  0.00  0.00    -0.096 C 
ATOM     34  C   UNL     1       3.343   9.250  -0.622  0.00  0.00    -0.096 C 
ATOM     35  H   UNL     1       1.764   7.900  -0.842  0.00  0.00    -0.082 HD
ENDBRANCH  23  32
ENDBRANCH  22  23
ENDBRANCH   1  22
TORSDOF 7
