REMARK  Name = ZINC04681661
REMARK  10 active torsions:
REMARK  status: ('A' for Active; 'I' for Inactive)
REMARK    1  A    between atoms: C_1  and  C_2
REMARK    2  A    between atoms: C_2  and  C_3
REMARK    3  A    between atoms: C_3  and  C_4
REMARK    4  A    between atoms: C_4  and  C_5
REMARK    5  A    between atoms: C_5  and  O_6
REMARK    6  A    between atoms: O_6  and  C_7
REMARK    7  A    between atoms: C_7  and  C_9
REMARK    8  A    between atoms: C_11  and  C_23
REMARK    9  A    between atoms: C_21  and  C_22
REMARK   10  A    between atoms: C_26  and  C_29
REMARK                            x       y       z     vdW  Elec       q    Type
REMARK                         _______ _______ _______ _____ _____    ______ ____
ROOT
ATOM      1  C   UNL     1       3.306   1.424   1.222  0.00  0.00    +0.066 C 
ATOM      2  C   UNL     1       1.776   1.457   1.174  0.00  0.00    +0.073 C 
ATOM      3  C   UNL     1       1.339   2.310   0.005  0.00  0.00    +0.111 C 
ATOM      4  C   UNL     1       2.086   3.386  -0.350  0.00  0.00    +0.030 C 
ATOM      5  C   UNL     1       1.656   4.275  -1.491  0.00  0.00    +0.052 C 
ATOM      6  C   UNL     1       0.897   3.442  -2.534  0.00  0.00    +0.013 C 
ATOM      7  C   UNL     1      -0.310   2.783  -1.860  0.00  0.00    +0.075 C 
ATOM      8  C   UNL     1       0.167   1.964  -0.690  0.00  0.00    +0.143 C 
ATOM      9  O   UNL     1      -0.471   0.991  -0.341  0.00  0.00    -0.297 OA
ATOM     10  N   UNL     1       3.225   3.680   0.307  0.00  0.00    -0.260 NA
ATOM     11  C   UNL     1       3.833   2.826   1.059  0.00  0.00    +0.049 C 
ATOM     12  C   UNL     1       3.969   3.717   2.267  0.00  0.00    +0.066 C 
ENDROOT
BRANCH   2  13
ATOM     13  C   UNL     1       1.243   2.045   2.455  0.00  0.00    -0.039 A 
ATOM     14  C   UNL     1       0.401   1.301   3.260  0.00  0.00    +0.004 A 
ATOM     15  C   UNL     1      -0.092   1.842   4.432  0.00  0.00    +0.003 A 
ATOM     16  C   UNL     1       0.265   3.125   4.804  0.00  0.00    -0.050 A 
ATOM     17  C   UNL     1       1.107   3.869   4.000  0.00  0.00    +0.003 A 
ATOM     18  C   UNL     1       1.596   3.329   2.825  0.00  0.00    +0.004 A 
ATOM     19  C   UNL     1      -0.269   3.714   6.085  0.00  0.00    +0.044 C 
ENDBRANCH   2  13
BRANCH   1  20
ATOM     20  C   UNL     1       4.459   0.466   1.379  0.00  0.00    +0.337 C 
ATOM     21  O   UNL     1       4.615  -0.427   0.580  0.00  0.00    -0.245 OA
BRANCH  20  22
ATOM     22  O   UNL     1       5.312   0.605   2.405  0.00  0.00    -0.461 OA
BRANCH  22  23
ATOM     23  C   UNL     1       6.399  -0.353   2.493  0.00  0.00    +0.232 C 
BRANCH  23  24
ATOM     24  C   UNL     1       7.261  -0.037   3.717  0.00  0.00    +0.041 C 
BRANCH  24  25
ATOM     25  C   UNL     1       8.406  -1.048   3.810  0.00  0.00    +0.003 C 
BRANCH  25  27
ATOM     26  C   UNL     1      10.412  -1.741   5.127  0.00  0.00    +0.004 C 
ATOM     27  C   UNL     1       9.267  -0.731   5.035  0.00  0.00    -0.003 C 
ENDBRANCH  25  27
ENDBRANCH  24  25
ENDBRANCH  23  24
ENDBRANCH  22  23
ENDBRANCH  20  22
ENDBRANCH   1  20
TORSDOF 7
