REMARK  Name = ZINC16433448
REMARK  14 active torsions:
REMARK  status: ('A' for Active; 'I' for Inactive)
REMARK    1  A    between atoms: C_1  and  C_2
REMARK    2  A    between atoms: C_2  and  C_3
REMARK    3  A    between atoms: C_3  and  N_4
REMARK    4  A    between atoms: N_4  and  C_5
REMARK    5  A    between atoms: C_5  and  C_6
REMARK    6  A    between atoms: N_8  and  C_9
REMARK    7  A    between atoms: C_11  and  C_22
REMARK    8  A    between atoms: N_13  and  C_14
REMARK    9  A    between atoms: C_22  and  C_23
REMARK   10  A    between atoms: C_22  and  C_24
REMARK   11  A    between atoms: C_22  and  C_25
REMARK   12  A    between atoms: N_28  and  C_29
REMARK   13  A    between atoms: C_32  and  C_36
REMARK   14  A    between atoms: C_34  and  C_35
REMARK                            x       y       z     vdW  Elec       q    Type
REMARK                         _______ _______ _______ _____ _____    ______ ____
ROOT
ATOM      1  C   UNL     1       6.103   1.157  -2.015  0.00  0.00    +0.236 C 
ATOM      2  O   UNL     1       7.035   0.391  -1.887  0.00  0.00    -0.274 OA
ATOM      3  N   UNL     1       4.918   0.880  -1.434  0.00  0.00    -0.269 N 
ATOM      4  H   UNL     1       4.173   1.493  -1.536  0.00  0.00    +0.156 HD
ENDROOT
BRANCH   3   5
ATOM      5  C   UNL     1       4.764  -0.287  -0.687  0.00  0.00    +0.129 A 
ATOM      6  C   UNL     1       5.719  -1.231  -0.461  0.00  0.00    +0.069 A 
ATOM      7  C   UNL     1       5.153  -2.232   0.333  0.00  0.00    +0.071 A 
ATOM      8  N   UNL     1       3.910  -1.909   0.585  0.00  0.00    -0.169 NA
ATOM      9  N   UNL     1       3.632  -0.691  -0.049  0.00  0.00    -0.218 N 
BRANCH   9  10
ATOM     10  C   UNL     1       2.408  -0.008  -0.025  0.00  0.00    +0.069 A 
ATOM     11  C   UNL     1       2.388   1.381  -0.005  0.00  0.00    +0.029 A 
ATOM     12  C   UNL     1       1.181   2.053   0.019  0.00  0.00    +0.023 A 
ATOM     13  C   UNL     1      -0.007   1.343   0.022  0.00  0.00    +0.059 A 
ATOM     14  C   UNL     1       0.010  -0.041   0.002  0.00  0.00    +0.061 A 
ATOM     15  C   UNL     1       1.216  -0.718  -0.022  0.00  0.00    +0.049 A 
ATOM     16 CL   UNL     1      -1.482  -0.928   0.006  0.00  0.00    -0.082 Cl
ATOM     17 CL   UNL     1      -1.522   2.191   0.045  0.00  0.00    -0.082 Cl
ENDBRANCH   9  10
BRANCH   7  18
ATOM     18  C   UNL     1       5.857  -3.472   0.822  0.00  0.00    +0.006 C 
ATOM     19  C   UNL     1       6.809  -3.101   1.961  0.00  0.00    +0.017 C 
ATOM     20  C   UNL     1       4.823  -4.479   1.330  0.00  0.00    +0.017 C 
ATOM     21  C   UNL     1       6.653  -4.093  -0.327  0.00  0.00    +0.017 C 
ENDBRANCH   7  18
ENDBRANCH   3   5
BRANCH   1  22
ATOM     22  C   UNL     1       6.270   2.418  -2.822  0.00  0.00    +0.205 C 
BRANCH  22  23
ATOM     23  N   UNL     1       7.637   2.487  -3.344  0.00  0.00    -0.277 N 
ATOM     24  C   UNL     1       7.928   1.949  -4.544  0.00  0.00    +0.307 C 
ATOM     25  O   UNL     1       7.056   1.405  -5.194  0.00  0.00    -0.252 OA
ATOM     26  N   UNL     1       9.186   2.012  -5.024  0.00  0.00    -0.269 N 
ATOM     27  H   UNL     1       9.863   2.515  -4.545  0.00  0.00    +0.156 HD
BRANCH  26  28
ATOM     28  C   UNL     1       9.516   1.352  -6.213  0.00  0.00    +0.038 A 
ATOM     29  C   UNL     1       8.773   0.255  -6.629  0.00  0.00    +0.024 A 
ATOM     30  C   UNL     1       9.100  -0.394  -7.803  0.00  0.00    +0.005 A 
ATOM     31  C   UNL     1      10.166   0.048  -8.565  0.00  0.00    -0.050 A 
ATOM     32  C   UNL     1      10.908   1.141  -8.154  0.00  0.00    +0.008 A 
ATOM     33  C   UNL     1      10.582   1.797  -6.983  0.00  0.00    -0.029 A 
ATOM     34  C   UNL     1      11.387   2.991  -6.539  0.00  0.00    +0.045 C 
ATOM     35  C   UNL     1      10.520  -0.662  -9.846  0.00  0.00    +0.044 C 
ENDBRANCH  26  28
BRANCH  23  36
ATOM     36  C   UNL     1       8.688   3.142  -2.560  0.00  0.00    +0.109 C 
BRANCH  36  38
ATOM     37  C   UNL     1      10.457   2.796  -0.830  0.00  0.00    +0.005 C 
ATOM     38  C   UNL     1       9.360   2.113  -1.649  0.00  0.00    +0.016 C 
ENDBRANCH  36  38
ENDBRANCH  23  36
ENDBRANCH  22  23
ENDBRANCH   1  22
TORSDOF 8
