REMARK  Name = ZINC39016539
REMARK  10 active torsions:
REMARK  status: ('A' for Active; 'I' for Inactive)
REMARK    1  A    between atoms: C_1  and  C_2
REMARK    2  A    between atoms: C_2  and  C_3
REMARK    3  A    between atoms: C_7  and  C_34
REMARK    4  A    between atoms: C_8  and  N_9
REMARK    5  A    between atoms: C_10  and  C_12
REMARK    6  A    between atoms: C_12  and  S_13
REMARK    7  A    between atoms: S_13  and  C_14
REMARK    8  A    between atoms: C_18  and  C_22
REMARK    9  A    between atoms: N_20  and  N_21
REMARK   10  A    between atoms: C_25  and  C_28
REMARK                            x       y       z     vdW  Elec       q    Type
REMARK                         _______ _______ _______ _____ _____    ______ ____
ROOT
ATOM      1  C   UNL     1      -5.929  -0.230   5.085  0.00  0.00    +0.214 C 
ATOM      2  N   UNL     1      -6.087   1.208   4.770  0.00  0.00    -0.228 NA
ATOM      3  N   UNL     1      -6.237   1.249   3.307  0.00  0.00    -0.234 NA
ATOM      4  C   UNL     1      -7.054   0.042   3.019  0.00  0.00    +0.185 C 
ATOM      5  N   UNL     1      -6.548  -0.976   3.970  0.00  0.00    -0.197 NA
ATOM      6  H   UNL     1      -6.900   1.592   5.228  0.00  0.00    +0.143 HD
ATOM      7  H   UNL     1      -6.716   2.088   3.016  0.00  0.00    +0.143 HD
ENDROOT
BRANCH   4   8
ATOM      8  C   UNL     1      -6.842  -0.418   1.575  0.00  0.00    +0.187 C 
ATOM      9  C   UNL     1      -7.216   0.686   0.601  0.00  0.00    +0.034 C 
ATOM     10  C   UNL     1      -8.224   0.154  -0.116  0.00  0.00    +0.091 C 
ATOM     11  N   UNL     1      -8.492  -1.109   0.305  0.00  0.00    -0.154 NA
ATOM     12  N   UNL     1      -7.775  -1.504   1.232  0.00  0.00    -0.176 NA
BRANCH  10  13
ATOM     13  C   UNL     1      -8.943   0.851  -1.212  0.00  0.00    +0.002 A 
ATOM     14  C   UNL     1      -8.584   2.150  -1.568  0.00  0.00    +0.010 A 
ATOM     15  C   UNL     1      -9.255   2.793  -2.588  0.00  0.00    +0.001 A 
ATOM     16  C   UNL     1     -10.282   2.151  -3.256  0.00  0.00    +0.000 A 
ATOM     17  C   UNL     1     -10.643   0.862  -2.906  0.00  0.00    +0.001 A 
ATOM     18  C   UNL     1      -9.975   0.208  -1.891  0.00  0.00    +0.010 A 
ENDBRANCH  10  13
ENDBRANCH   4   8
BRANCH   5  19
ATOM     19  N   UNL     1      -7.626  -1.827   4.447  0.00  0.00    -0.264 NA
ATOM     20  H   UNL     1      -7.287  -2.497   5.121  0.00  0.00    +0.137 HD
ATOM     21  H   UNL     1      -8.378  -1.276   4.833  0.00  0.00    +0.137 HD
ENDBRANCH   5  19
BRANCH   1  22
ATOM     22  S   UNL     1      -4.169  -0.649   5.214  0.00  0.00    -0.115 S 
BRANCH  22  23
ATOM     23  C   UNL     1      -3.487  -0.178   3.600  0.00  0.00    +0.168 C 
BRANCH  23  25
ATOM     24  N   UNL     1      -1.289  -0.209   2.466  0.00  0.00    -0.284 N 
ATOM     25  C   UNL     1      -2.011  -0.479   3.572  0.00  0.00    +0.227 C 
ATOM     26  O   UNL     1      -1.472  -0.963   4.544  0.00  0.00    -0.275 OA
ATOM     27  H   UNL     1      -1.705   0.239   1.712  0.00  0.00    +0.155 HD
BRANCH  24  33
ATOM     28  C   UNL     1       1.050   0.390   2.521  0.00  0.00    -0.026 A 
ATOM     29  C   UNL     1       2.380   0.024   2.465  0.00  0.00    +0.005 A 
ATOM     30  C   UNL     1       2.727  -1.302   2.286  0.00  0.00    +0.001 A 
ATOM     31  C   UNL     1       1.743  -2.267   2.163  0.00  0.00    +0.005 A 
ATOM     32  C   UNL     1       0.411  -1.907   2.219  0.00  0.00    -0.029 A 
ATOM     33  C   UNL     1       0.060  -0.576   2.403  0.00  0.00    +0.040 A 
ATOM     34  C   UNL     1      -0.660  -2.959   2.085  0.00  0.00    +0.045 C 
BRANCH  28  36
ATOM     35  C   UNL     1       0.438   2.106   4.203  0.00  0.00    +0.009 C 
ATOM     36  C   UNL     1       0.673   1.836   2.716  0.00  0.00    +0.033 C 
ENDBRANCH  28  36
ENDBRANCH  24  33
ENDBRANCH  23  25
ENDBRANCH  22  23
ENDBRANCH   1  22
TORSDOF 8
