REMARK  Name = ZINC31625445
REMARK  8 active torsions:
REMARK  status: ('A' for Active; 'I' for Inactive)
REMARK    1  A    between atoms: C_1  and  C_2
REMARK    2  A    between atoms: C_2  and  O_3
REMARK    3  A    between atoms: O_3  and  C_4
REMARK    4  A    between atoms: C_4  and  C_6
REMARK    5  A    between atoms: C_7  and  C_28
REMARK    6  A    between atoms: C_11  and  C_15
REMARK    7  A    between atoms: C_15  and  N_16
REMARK    8  A    between atoms: C_18  and  C_23
REMARK                            x       y       z     vdW  Elec       q    Type
REMARK                         _______ _______ _______ _____ _____    ______ ____
ROOT
ATOM      1  C   UNL     1       3.841  -2.004  -5.894  0.00  0.00    +0.102 A 
ATOM      2  C   UNL     1       4.233  -0.837  -5.311  0.00  0.00    -0.017 A 
ATOM      3  C   UNL     1       3.973  -0.615  -3.953  0.00  0.00    +0.051 A 
ATOM      4  C   UNL     1       4.289   0.519  -3.146  0.00  0.00    +0.128 A 
ATOM      5  N   UNL     1       3.945   0.518  -1.869  0.00  0.00    -0.215 NA
ATOM      6  C   UNL     1       3.317  -0.500  -1.308  0.00  0.00    +0.152 A 
ATOM      7  N   UNL     1       3.001  -1.579  -1.998  0.00  0.00    -0.223 NA
ATOM      8  C   UNL     1       3.299  -1.663  -3.278  0.00  0.00    +0.115 A 
ATOM      9  S   UNL     1       3.067  -2.882  -4.547  0.00  0.00    -0.062 S 
ATOM     10  N   UNL     1       4.944   1.604  -3.692  0.00  0.00    -0.343 N 
ATOM     11  C   UNL     1       4.945   0.212  -6.125  0.00  0.00    +0.046 C 
ATOM     12  H   UNL     1       5.185   2.474  -3.064  0.00  0.00    +0.144 HD
ATOM     13  H   UNL     1       5.227   1.598  -4.755  0.00  0.00    +0.144 HD
ENDROOT
BRANCH   1  14
ATOM     14  C   UNL     1       4.012  -2.433  -7.286  0.00  0.00    +0.346 C 
ATOM     15  O   UNL     1       4.657  -1.749  -8.058  0.00  0.00    -0.244 OA
BRANCH  14  16
ATOM     16  O   UNL     1       3.455  -3.586  -7.710  0.00  0.00    -0.461 OA
BRANCH  16  18
ATOM     17  C   UNL     1       2.964  -5.275  -9.393  0.00  0.00    +0.048 C 
ATOM     18  C   UNL     1       3.666  -3.947  -9.100  0.00  0.00    +0.229 C 
ENDBRANCH  16  18
ENDBRANCH  14  16
ENDBRANCH   1  14
BRANCH   6  19
ATOM     19  C   UNL     1       2.958  -0.429   0.154  0.00  0.00    +0.201 C 
BRANCH  19  20
ATOM     20  N   UNL     1       1.627   0.165   0.302  0.00  0.00    -0.307 N 
ATOM     21  C   UNL     1       1.503   1.510   0.438  0.00  0.00    +0.102 A 
ATOM     22  C   UNL     1       0.284   2.082   0.575  0.00  0.00    +0.071 A 
ATOM     23  C   UNL     1      -0.867   1.282   0.580  0.00  0.00    +0.019 A 
ATOM     24  C   UNL     1      -0.741  -0.069   0.444  0.00  0.00    +0.071 A 
ATOM     25  C   UNL     1       0.540  -0.630   0.302  0.00  0.00    +0.252 A 
ATOM     26  O   UNL     1       0.667  -1.838   0.179  0.00  0.00    -0.268 OA
BRANCH  22  27
ATOM     27  C   UNL     1       0.165   3.577   0.724  0.00  0.00    +0.419 C 
ATOM     28  F   UNL     1      -0.077   4.152  -0.528  0.00  0.00    -0.166 F 
ATOM     29  F   UNL     1      -0.894   3.876   1.587  0.00  0.00    -0.166 F 
ATOM     30  F   UNL     1       1.355   4.089   1.251  0.00  0.00    -0.166 F 
ENDBRANCH  22  27
ENDBRANCH  19  20
ENDBRANCH   6  19
TORSDOF 6
