REMARK  Name = ZINC12242927
REMARK  5 active torsions:
REMARK  status: ('A' for Active; 'I' for Inactive)
REMARK    1  A    between atoms: C_6  and  C_7
REMARK    2  A    between atoms: C_12  and  C_30
REMARK    3  A    between atoms: N_13  and  C_14
REMARK    4  A    between atoms: C_19  and  C_20
REMARK    5  A    between atoms: C_19  and  N_60
REMARK                            x       y       z     vdW  Elec       q    Type
REMARK                         _______ _______ _______ _____ _____    ______ ____
ROOT
ATOM      1  C   UNL     1      -6.035   5.027   3.846  0.00  0.00    +0.014 A 
ATOM      2  C   UNL     1      -5.689   3.709   3.633  0.00  0.00    +0.028 A 
ATOM      3  C   UNL     1      -4.677   3.401   2.735  0.00  0.00    +0.069 A 
ATOM      4  C   UNL     1      -4.013   4.432   2.049  0.00  0.00    +0.090 A 
ATOM      5  C   UNL     1      -4.380   5.760   2.280  0.00  0.00    +0.042 A 
ATOM      6  C   UNL     1      -5.379   6.045   3.168  0.00  0.00    +0.057 A 
ATOM      7  N   UNL     1      -3.082   3.842   1.254  0.00  0.00    -0.230 NA
ATOM      8  C   UNL     1      -3.139   2.551   1.399  0.00  0.00    +0.140 A 
ATOM      9  N   UNL     1      -4.102   2.223   2.302  0.00  0.00    -0.322 N 
ENDROOT
BRANCH   9  10
ATOM     10  C   UNL     1      -4.461   0.870   2.736  0.00  0.00    +0.086 C 
ATOM     11  C   UNL     1      -5.932   0.601   2.405  0.00  0.00    +0.006 C 
ATOM     12  C   UNL     1      -6.318  -0.789   2.917  0.00  0.00    -0.076 C 
ATOM     13  C   UNL     1      -4.687  -0.649   4.704  0.00  0.00    -0.076 C 
ATOM     14  C   UNL     1      -4.253   0.745   4.247  0.00  0.00    +0.006 C 
ATOM     15  N   UNL     1      -6.118  -0.836   4.381  0.00  0.00    +0.383 N 
ATOM     16  H   UNL     1      -6.659  -0.079   4.815  0.00  0.00    -0.081 HD
BRANCH  15  17
ATOM     17  C   UNL     1      -6.591  -2.130   4.913  0.00  0.00    -0.041 C 
BRANCH  17  18
ATOM     18  C   UNL     1      -8.089  -2.198   4.765  0.00  0.00    -0.042 A 
ATOM     19  C   UNL     1      -8.650  -2.998   3.787  0.00  0.00    +0.052 A 
ATOM     20  C   UNL     1     -10.027  -3.065   3.652  0.00  0.00    +0.167 A 
ATOM     21  C   UNL     1     -10.844  -2.317   4.496  0.00  0.00    +0.168 A 
ATOM     22  C   UNL     1     -10.276  -1.513   5.471  0.00  0.00    +0.069 A 
ATOM     23  C   UNL     1      -8.900  -1.455   5.604  0.00  0.00    +0.046 A 
ATOM     24 CL   UNL     1      -8.190  -0.446   6.825  0.00  0.00    -0.083 Cl
ATOM     25  O   UNL     1     -12.147  -2.549   4.161  0.00  0.00    -0.453 OA
ATOM     26  C   UNL     1     -12.133  -3.756   3.376  0.00  0.00    +0.466 C 
ATOM     27  O   UNL     1     -10.819  -3.766   2.788  0.00  0.00    -0.453 OA
ENDBRANCH  17  18
ENDBRANCH  15  17
ENDBRANCH   9  10
BRANCH   8  28
ATOM     28  C   UNL     1      -2.261   1.562   0.675  0.00  0.00    +0.184 C 
ATOM     29  C   UNL     1      -0.809   1.621   1.229  0.00  0.00    +0.042 C 
ATOM     30  C   UNL     1      -0.013   1.086   0.008  0.00  0.00    +0.031 C 
ATOM     31  C   UNL     1      -0.827   1.631  -1.185  0.00  0.00    +0.161 C 
ATOM     32  O   UNL     1      -2.149   1.916  -0.712  0.00  0.00    -0.369 OA
ENDBRANCH   8  28
BRANCH   6  33
ATOM     33  C   UNL     1      -5.771   7.479   3.414  0.00  0.00    +0.417 C 
ATOM     34  F   UNL     1      -6.780   7.846   2.517  0.00  0.00    -0.166 F 
ATOM     35  F   UNL     1      -6.240   7.615   4.725  0.00  0.00    -0.166 F 
ATOM     36  F   UNL     1      -4.658   8.305   3.228  0.00  0.00    -0.166 F 
ENDBRANCH   6  33
TORSDOF 5
