REMARK  Name = ZINC20116115
REMARK  7 active torsions:
REMARK  status: ('A' for Active; 'I' for Inactive)
REMARK    1  A    between atoms: C_1  and  C_2
REMARK    2  A    between atoms: C_2  and  C_3
REMARK    3  A    between atoms: C_2  and  C_4
REMARK    4  A    between atoms: C_4  and  C_6
REMARK    5  A    between atoms: C_4  and  N_20
REMARK    6  A    between atoms: C_21  and  C_23
REMARK    7  A    between atoms: C_26  and  C_29
REMARK                            x       y       z     vdW  Elec       q    Type
REMARK                         _______ _______ _______ _____ _____    ______ ____
ROOT
ATOM      1  N   UNL     1       0.890  10.335  -3.525  0.00  0.00    -0.300 N 
ATOM      2  C   UNL     1       0.535  10.579  -4.802  0.00  0.00    +0.245 C 
ATOM      3  O   UNL     1      -0.400   9.981  -5.297  0.00  0.00    -0.270 OA
ATOM      4  H   UNL     1       1.737  10.876  -3.076  0.00  0.00    +0.150 HD
ENDROOT
BRANCH   2   5
ATOM      5  C   UNL     1       1.283  11.574  -5.600  0.00  0.00    +0.037 A 
ATOM      6  C   UNL     1       2.353  12.266  -5.032  0.00  0.00    +0.013 A 
ATOM      7  C   UNL     1       3.050  13.190  -5.784  0.00  0.00    +0.005 A 
ATOM      8  C   UNL     1       2.682  13.438  -7.095  0.00  0.00    -0.041 A 
ATOM      9  C   UNL     1       1.619  12.759  -7.662  0.00  0.00    +0.005 A 
ATOM     10  C   UNL     1       0.917  11.829  -6.923  0.00  0.00    +0.013 A 
BRANCH   8  11
ATOM     11  C   UNL     1       3.443  14.453  -7.908  0.00  0.00    -0.003 C 
ATOM     12  C   UNL     1       2.491  15.563  -8.359  0.00  0.00    +0.015 C 
ATOM     13  C   UNL     1       3.264  16.593  -9.184  0.00  0.00    -0.010 C 
ATOM     14  C   UNL     1       4.382  17.196  -8.331  0.00  0.00    +0.007 C 
ATOM     15  C   UNL     1       5.334  16.086  -7.880  0.00  0.00    -0.010 C 
ATOM     16  C   UNL     1       4.561  15.056  -7.054  0.00  0.00    +0.015 C 
ATOM     17  C   UNL     1       5.941  15.405  -9.108  0.00  0.00    +0.007 C 
ATOM     18  C   UNL     1       4.823  14.802  -9.961  0.00  0.00    -0.010 C 
ATOM     19  C   UNL     1       3.871  15.912 -10.412  0.00  0.00    +0.007 C 
ATOM     20  C   UNL     1       4.050  13.771  -9.136  0.00  0.00    +0.015 C 
ENDBRANCH   8  11
ENDBRANCH   2   5
BRANCH   1  21
ATOM     21  C   UNL     1       0.150   9.349  -2.734  0.00  0.00    +0.162 C 
BRANCH  21  22
ATOM     22  C   UNL     1       1.038   8.811  -1.642  0.00  0.00    +0.236 C 
ATOM     23  O   UNL     1       1.874   9.527  -1.133  0.00  0.00    -0.274 OA
ATOM     24  N   UNL     1       0.903   7.535  -1.231  0.00  0.00    -0.297 N 
ATOM     25  C   UNL     1       1.831   6.956  -0.248  0.00  0.00    +0.127 C 
ATOM     26  C   UNL     1       2.365   5.632  -0.804  0.00  0.00    +0.125 C 
ATOM     27  N   UNL     1       1.236   4.769  -1.174  0.00  0.00    -0.314 N 
ATOM     28  C   UNL     1       0.437   5.370  -2.250  0.00  0.00    +0.125 C 
ATOM     29  C   UNL     1      -0.177   6.684  -1.754  0.00  0.00    +0.127 C 
ATOM     30  C   UNL     1       1.675   3.499  -1.530  0.00  0.00    +0.099 A 
ATOM     31  C   UNL     1       0.751   2.532  -1.914  0.00  0.00    +0.042 A 
ATOM     32  C   UNL     1       1.202   1.274  -2.270  0.00  0.00    +0.005 A 
ATOM     33  C   UNL     1       2.567   1.021  -2.220  0.00  0.00    +0.018 A 
ATOM     34  C   UNL     1       3.427   2.027  -1.830  0.00  0.00    +0.084 A 
ATOM     35  N   UNL     1       2.969   3.220  -1.500  0.00  0.00    -0.350 N 
ATOM     36  H   UNL     1       3.691   3.991  -1.195  0.00  0.00    +0.166 HD
ENDBRANCH  21  22
BRANCH  21  38
ATOM     37  C   UNL     1      -2.014  10.500  -3.220  0.00  0.00    +0.009 C 
ATOM     38  C   UNL     1      -1.079  10.015  -2.110  0.00  0.00    +0.012 C 
ATOM     39  C   UNL     1      -1.815   9.004  -1.229  0.00  0.00    +0.009 C 
ENDBRANCH  21  38
ENDBRANCH   1  21
TORSDOF 5
