REMARK  Name = ZINC15947380
REMARK  6 active torsions:
REMARK  status: ('A' for Active; 'I' for Inactive)
REMARK    1  A    between atoms: C_4  and  C_7
REMARK    2  A    between atoms: C_7  and  N_8
REMARK    3  A    between atoms: C_16  and  O_32
REMARK    4  A    between atoms: C_18  and  C_21
REMARK    5  A    between atoms: C_22  and  C_23
REMARK    6  A    between atoms: C_26  and  N_29
REMARK                            x       y       z     vdW  Elec       q    Type
REMARK                         _______ _______ _______ _____ _____    ______ ____
ROOT
ATOM      1  N   UNL     1       3.330  -0.981   1.680  0.00  0.00    +0.386 N 
ATOM      2  C   UNL     1       4.614  -1.643   1.413  0.00  0.00    -0.073 C 
ATOM      3  C   UNL     1       5.494  -1.616   2.667  0.00  0.00    +0.018 C 
ATOM      4  C   UNL     1       4.676  -2.173   3.825  0.00  0.00    -0.027 A 
ATOM      5  C   UNL     1       3.328  -2.256   3.723  0.00  0.00    -0.021 A 
ATOM      6  S   UNL     1       2.803  -2.948   5.266  0.00  0.00    -0.080 S 
ATOM      7  C   UNL     1       4.277  -3.122   6.004  0.00  0.00    +0.080 A 
ATOM      8  C   UNL     1       5.218  -2.645   5.082  0.00  0.00    +0.067 A 
ATOM      9  C   UNL     1       6.647  -2.667   5.490  0.00  0.00    +0.220 C 
ATOM     10  N   UNL     1       6.963  -3.349   6.557  0.00  0.00    -0.223 NA
ATOM     11  C   UNL     1       6.022  -4.141   7.340  0.00  0.00    +0.217 C 
ATOM     12  N   UNL     1       4.649  -3.614   7.235  0.00  0.00    -0.313 N 
ATOM     13  C   UNL     1       2.502  -1.839   2.548  0.00  0.00    -0.035 C 
ATOM     14  H   UNL     1       4.042  -3.613   7.991  0.00  0.00    +0.149 HD
ATOM     15  H   UNL     1       3.497  -0.099   2.140  0.00  0.00    -0.081 HD
ENDROOT
BRANCH  11  16
ATOM     16  C   UNL     1       6.041  -5.563   6.841  0.00  0.00    +0.019 C 
ATOM     17  C   UNL     1       6.263  -6.559   7.687  0.00  0.00    +0.007 C 
BRANCH  17  18
ATOM     18  C   UNL     1       6.317  -6.296   9.140  0.00  0.00    -0.025 A 
ATOM     19  C   UNL     1       7.258  -6.951   9.936  0.00  0.00    +0.010 A 
ATOM     20  C   UNL     1       7.303  -6.702  11.292  0.00  0.00    +0.033 A 
ATOM     21  C   UNL     1       6.419  -5.804  11.864  0.00  0.00    +0.126 A 
ATOM     22  C   UNL     1       5.483  -5.152  11.080  0.00  0.00    +0.033 A 
ATOM     23  C   UNL     1       5.431  -5.388   9.722  0.00  0.00    +0.010 A 
BRANCH  21  24
ATOM     24  N   UNL     1       6.473  -5.541  13.319  0.00  0.00    +0.056 N 
ATOM     25  O   UNL     1       7.290  -6.110  14.006  0.00  0.00    -0.126 OA
ATOM     26  O   UNL     1       5.701  -4.758  13.821  0.00  0.00    -0.126 OA
ENDBRANCH  21  24
ENDBRANCH  17  18
ENDBRANCH  11  16
BRANCH   9  27
ATOM     27  O   UNL     1       7.588  -2.004   4.779  0.00  0.00    -0.492 OA
ATOM     28  H   UNL     1       8.483  -2.089   5.136  0.00  0.00    +0.294 HD
ENDBRANCH   9  27
BRANCH   1  29
ATOM     29  C   UNL     1       2.628  -0.746   0.412  0.00  0.00    -0.043 C 
BRANCH  29  33
ATOM     30  C   UNL     1      -0.933   1.495   1.148  0.00  0.00    +0.000 A 
ATOM     31  C   UNL     1       0.254   2.152   0.881  0.00  0.00    +0.000 A 
ATOM     32  C   UNL     1       1.406   1.426   0.643  0.00  0.00    +0.002 A 
ATOM     33  C   UNL     1       1.372   0.045   0.672  0.00  0.00    -0.064 A 
ATOM     34  C   UNL     1       0.185  -0.612   0.940  0.00  0.00    +0.002 A 
ATOM     35  C   UNL     1      -0.968   0.114   1.177  0.00  0.00    +0.000 A 
ENDBRANCH  29  33
ENDBRANCH   1  29
TORSDOF 6
