REMARK  Name = ZINC59888768
REMARK  9 active torsions:
REMARK  status: ('A' for Active; 'I' for Inactive)
REMARK    1  A    between atoms: C_1  and  C_2
REMARK    2  A    between atoms: C_2  and  C_3
REMARK    3  A    between atoms: C_3  and  C_27
REMARK    4  A    between atoms: N_4  and  N_5
REMARK    5  A    between atoms: C_8  and  S_11
REMARK    6  A    between atoms: S_11  and  C_12
REMARK    7  A    between atoms: C_12  and  C_13
REMARK    8  A    between atoms: N_15  and  C_16
REMARK    9  A    between atoms: C_17  and  C_25
REMARK                            x       y       z     vdW  Elec       q    Type
REMARK                         _______ _______ _______ _____ _____    ______ ____
ROOT
ATOM      1  C   UNL     1       7.832  -4.663  -1.136  0.00  0.00    +0.173 C 
ENDROOT
BRANCH   1   2
ATOM      2  C   UNL     1       8.890  -5.234  -0.226  0.00  0.00    +0.228 C 
ATOM      3  O   UNL     1       8.786  -5.110   0.976  0.00  0.00    -0.275 OA
ATOM      4  N   UNL     1       9.950  -5.881  -0.748  0.00  0.00    -0.278 N 
ATOM      5  H   UNL     1      10.032  -5.981  -1.709  0.00  0.00    +0.155 HD
BRANCH   4   6
ATOM      6  C   UNL     1      10.924  -6.407   0.090  0.00  0.00    +0.090 A 
ATOM      7  C   UNL     1      12.073  -7.092  -0.266  0.00  0.00    +0.084 A 
ATOM      8  C   UNL     1      12.938  -7.543   0.810  0.00  0.00    -0.018 A 
ATOM      9  C   UNL     1      12.494  -7.225   2.046  0.00  0.00    -0.004 A 
ATOM     10  S   UNL     1      10.981  -6.352   1.768  0.00  0.00    -0.077 S 
ATOM     11  C   UNL     1      13.155  -7.548   3.350  0.00  0.00    +0.043 C 
ATOM     12  C   UNL     1      14.223  -8.623   3.096  0.00  0.00    +0.005 C 
ATOM     13  C   UNL     1      15.070  -8.205   1.891  0.00  0.00    +0.005 C 
ATOM     14  C   UNL     1      14.239  -8.307   0.610  0.00  0.00    +0.037 C 
BRANCH   7  15
ATOM     15  C   UNL     1      12.396  -7.347  -1.637  0.00  0.00    +0.102 C 
ATOM     16  N   UNL     1      12.652  -7.548  -2.726  0.00  0.00    -0.191 NA
ENDBRANCH   7  15
ENDBRANCH   4   6
ENDBRANCH   1   2
BRANCH   1  17
ATOM     17  S   UNL     1       6.548  -3.858  -0.140  0.00  0.00    -0.075 S 
BRANCH  17  21
ATOM     18  N   UNL     1       2.467  -1.583  -2.289  0.00  0.00    -0.205 N 
ATOM     19  C   UNL     1       3.659  -2.275  -2.180  0.00  0.00    +0.232 A 
ATOM     20  N   UNL     1       4.278  -2.579  -1.059  0.00  0.00    -0.186 NA
ATOM     21  C   UNL     1       5.402  -3.251  -1.332  0.00  0.00    +0.211 A 
ATOM     22  N   UNL     1       5.513  -3.384  -2.633  0.00  0.00    -0.144 NA
ATOM     23  N   UNL     1       4.390  -2.763  -3.205  0.00  0.00    -0.245 N 
ATOM     24  H   UNL     1       2.085  -1.410  -3.164  0.00  0.00    +0.177 HD
ATOM     25  H   UNL     1       4.182  -2.697  -4.150  0.00  0.00    +0.192 HD
BRANCH  18  27
ATOM     26  C   UNL     1       0.707  -0.490  -1.238  0.00  0.00    +0.034 C 
ATOM     27  N   UNL     1       1.811  -1.131  -1.137  0.00  0.00    -0.189 NA
ATOM     28  C   UNL     1       0.114  -0.222  -2.597  0.00  0.00    +0.062 C 
BRANCH  26  30
ATOM     29  C   UNL     1      -0.019   1.526   0.010  0.00  0.00    +0.010 C 
ATOM     30  C   UNL     1       0.002  -0.004   0.002  0.00  0.00    +0.049 C 
ENDBRANCH  26  30
ENDBRANCH  18  27
ENDBRANCH  17  21
ENDBRANCH   1  17
TORSDOF 7
