REMARK  Name = ZINC39686972
REMARK  9 active torsions:
REMARK  status: ('A' for Active; 'I' for Inactive)
REMARK    1  A    between atoms: C_1  and  C_2
REMARK    2  A    between atoms: C_2  and  C_4
REMARK    3  A    between atoms: C_2  and  N_12
REMARK    4  A    between atoms: C_4  and  C_5
REMARK    5  A    between atoms: C_13  and  C_15
REMARK    6  A    between atoms: C_26  and  C_28
REMARK    7  A    between atoms: C_28  and  C_30
REMARK    8  A    between atoms: C_28  and  O_31
REMARK    9  A    between atoms: O_31  and  C_32
REMARK                            x       y       z     vdW  Elec       q    Type
REMARK                         _______ _______ _______ _____ _____    ______ ____
ROOT
ATOM      1  C   UNL     1      -3.465  -1.167  -1.095  0.00  0.00    +0.100 C 
ATOM      2  C   UNL     1      -4.357  -0.259  -0.219  0.00  0.00    +0.121 C 
ATOM      3  N   UNL     1      -4.977   0.690  -1.173  0.00  0.00    -0.297 N 
ATOM      4  C   UNL     1      -5.286  -0.135  -2.366  0.00  0.00    +0.115 C 
ATOM      5  C   UNL     1      -4.081  -1.086  -2.502  0.00  0.00    -0.004 C 
ATOM      6  C   UNL     1      -4.546  -2.466  -2.957  0.00  0.00    -0.010 C 
ATOM      7  C   UNL     1      -5.100  -2.370  -4.381  0.00  0.00    -0.082 C 
ATOM      8  N   UNL     1      -4.057  -1.862  -5.280  0.00  0.00    +0.379 N 
ATOM      9  C   UNL     1      -3.682  -0.497  -4.892  0.00  0.00    -0.082 C 
ATOM     10  C   UNL     1      -3.068  -0.514  -3.490  0.00  0.00    -0.010 C 
ATOM     11  C   UNL     1      -5.207   2.007  -0.997  0.00  0.00    +0.256 C 
ATOM     12  O   UNL     1      -4.808   2.563   0.004  0.00  0.00    -0.272 OA
ATOM     13  H   UNL     1      -3.247  -2.461  -5.226  0.00  0.00    -0.086 HD
ATOM     14  H   UNL     1      -4.405  -1.857  -6.228  0.00  0.00    -0.086 HD
ENDROOT
BRANCH   1  16
ATOM     15  N   UNL     1      -1.021  -1.514  -1.249  0.00  0.00    -0.312 N 
ATOM     16  C   UNL     1      -2.049  -0.653  -1.111  0.00  0.00    +0.218 C 
ATOM     17  O   UNL     1      -1.833   0.535  -1.000  0.00  0.00    -0.275 OA
ATOM     18  H   UNL     1      -1.193  -2.465  -1.338  0.00  0.00    +0.149 HD
BRANCH  15  20
ATOM     19  C   UNL     1       0.862  -0.870   0.171  0.00  0.00    +0.028 C 
ATOM     20  C   UNL     1       0.356  -1.015  -1.265  0.00  0.00    +0.074 C 
BRANCH  20  21
ATOM     21  C   UNL     1       1.247  -2.001  -2.023  0.00  0.00    +0.060 C 
BRANCH  21  22
ATOM     22  C   UNL     1       0.825  -2.052  -3.468  0.00  0.00    -0.010 A 
ATOM     23  C   UNL     1      -0.059  -3.024  -3.897  0.00  0.00    +0.006 A 
ATOM     24  C   UNL     1      -0.447  -3.071  -5.223  0.00  0.00    +0.000 A 
ATOM     25  C   UNL     1       0.050  -2.145  -6.122  0.00  0.00    +0.003 A 
ATOM     26  C   UNL     1       0.933  -1.172  -5.696  0.00  0.00    +0.038 A 
ATOM     27  C   UNL     1       1.318  -1.121  -4.367  0.00  0.00    +0.127 A 
ATOM     28  F   UNL     1       2.179  -0.167  -3.948  0.00  0.00    -0.205 F 
ENDBRANCH  21  22
ENDBRANCH  20  21
ENDBRANCH  15  20
ENDBRANCH   1  16
BRANCH  11  29
ATOM     29  C   UNL     1      -5.960   2.787  -2.044  0.00  0.00    +0.256 C 
ATOM     30  C   UNL     1      -7.420   2.331  -2.068  0.00  0.00    +0.062 C 
BRANCH  29  31
ATOM     31  O   UNL     1      -5.901   4.180  -1.734  0.00  0.00    -0.480 OA
BRANCH  31  32
ATOM     32  C   UNL     1      -6.046   5.050  -2.768  0.00  0.00    +0.122 A 
ATOM     33  C   UNL     1      -5.877   6.411  -2.561  0.00  0.00    +0.045 A 
ATOM     34  C   UNL     1      -6.024   7.292  -3.614  0.00  0.00    +0.004 A 
ATOM     35  C   UNL     1      -6.341   6.819  -4.874  0.00  0.00    +0.000 A 
ATOM     36  C   UNL     1      -6.510   5.463  -5.083  0.00  0.00    +0.004 A 
ATOM     37  C   UNL     1      -6.357   4.577  -4.035  0.00  0.00    +0.045 A 
ENDBRANCH  31  32
ENDBRANCH  29  31
ENDBRANCH  11  29
TORSDOF 7
