REMARK  Name = ZINC09996072
REMARK  11 active torsions:
REMARK  status: ('A' for Active; 'I' for Inactive)
REMARK    1  A    between atoms: C_1  and  C_2
REMARK    2  A    between atoms: C_2  and  C_3
REMARK    3  A    between atoms: C_2  and  C_4
REMARK    4  A    between atoms: C_4  and  C_6
REMARK    5  A    between atoms: C_4  and  N_21
REMARK    6  A    between atoms: N_8  and  C_9
REMARK    7  A    between atoms: C_9  and  C_10
REMARK    8  A    between atoms: C_10  and  C_12
REMARK    9  A    between atoms: C_10  and  N_64
REMARK   10  A    between atoms: N_21  and  S_22
REMARK   11  A    between atoms: S_22  and  C_25
REMARK                            x       y       z     vdW  Elec       q    Type
REMARK                         _______ _______ _______ _____ _____    ______ ____
ROOT
ATOM      1  C   UNL     1      -0.649   2.263   0.044  0.00  0.00    +0.165 C 
ENDROOT
BRANCH   1   2
ATOM      2  C   UNL     1      -1.117   2.110   1.468  0.00  0.00    +0.232 C 
ATOM      3  O   UNL     1      -2.263   2.378   1.762  0.00  0.00    -0.274 OA
ATOM      4  N   UNL     1      -0.262   1.675   2.415  0.00  0.00    -0.315 N 
ATOM      5  H   UNL     1       0.671   1.529   2.196  0.00  0.00    +0.149 HD
BRANCH   4   6
ATOM      6  C   UNL     1      -0.743   1.421   3.776  0.00  0.00    +0.096 C 
BRANCH   6   7
ATOM      7  C   UNL     1       0.419   0.939   4.646  0.00  0.00    +0.016 C 
BRANCH   7  12
ATOM      8  C   UNL     1       1.027   3.283   4.901  0.00  0.00    -0.078 C 
ATOM      9  C   UNL     1       2.320   4.036   5.304  0.00  0.00    -0.020 C 
ATOM     10  C   UNL     1       3.118   2.962   6.078  0.00  0.00    -0.020 C 
ATOM     11  C   UNL     1       2.551   1.614   5.596  0.00  0.00    -0.078 C 
ATOM     12  N   UNL     1       1.532   1.935   4.596  0.00  0.00    +0.387 N 
ATOM     13  H   UNL     1       1.950   1.925   3.658  0.00  0.00    -0.081 HD
ENDBRANCH   7  12
BRANCH   7  14
ATOM     14  C   UNL     1      -0.047   0.796   6.072  0.00  0.00    +0.093 A 
ATOM     15  C   UNL     1      -0.314  -0.363   6.700  0.00  0.00    +0.043 A 
ATOM     16  C   UNL     1      -0.718  -0.034   8.014  0.00  0.00    +0.041 A 
ATOM     17  C   UNL     1      -0.673   1.307   8.111  0.00  0.00    +0.195 A 
ATOM     18  O   UNL     1      -0.261   1.804   6.934  0.00  0.00    -0.469 OA
ENDBRANCH   7  14
ENDBRANCH   6   7
ENDBRANCH   4   6
ENDBRANCH   1   2
BRANCH   1  20
ATOM     19  C   UNL     1       0.804   3.598  -1.489  0.00  0.00    +0.009 C 
ATOM     20  C   UNL     1       0.235   3.506  -0.071  0.00  0.00    +0.010 C 
ATOM     21  C   UNL     1      -0.599   4.754   0.226  0.00  0.00    +0.009 C 
ENDBRANCH   1  20
BRANCH   1  22
ATOM     22  N   UNL     1      -1.810   2.406  -0.839  0.00  0.00    -0.178 NA
ATOM     23  H   UNL     1      -2.390   3.179  -0.756  0.00  0.00    +0.149 HD
BRANCH  22  24
ATOM     24  S   UNL     1      -2.131   1.247  -1.977  0.00  0.00    +0.059 S 
ATOM     25  O   UNL     1      -3.298   1.670  -2.669  0.00  0.00    -0.153 OA
ATOM     26  O   UNL     1      -0.905   0.981  -2.644  0.00  0.00    -0.153 OA
BRANCH  24  27
ATOM     27  C   UNL     1      -2.564  -0.226  -1.113  0.00  0.00    +0.106 A 
ATOM     28  C   UNL     1      -1.568  -1.139  -0.769  0.00  0.00    +0.029 A 
ATOM     29  C   UNL     1      -1.868  -2.283  -0.098  0.00  0.00    +0.010 A 
ATOM     30  C   UNL     1      -3.203  -2.558   0.246  0.00  0.00    -0.018 A 
ATOM     31  C   UNL     1      -3.552  -3.733   0.934  0.00  0.00    +0.008 A 
ATOM     32  C   UNL     1      -4.855  -3.966   1.251  0.00  0.00    +0.001 A 
ATOM     33  C   UNL     1      -5.852  -3.057   0.902  0.00  0.00    +0.001 A 
ATOM     34  C   UNL     1      -5.551  -1.909   0.236  0.00  0.00    +0.008 A 
ATOM     35  C   UNL     1      -4.216  -1.633  -0.108  0.00  0.00    -0.016 A 
ATOM     36  C   UNL     1      -3.867  -0.459  -0.797  0.00  0.00    +0.037 A 
ENDBRANCH  24  27
ENDBRANCH  22  24
ENDBRANCH   1  22
TORSDOF 9
