REMARK  Name = ZINC09712860
REMARK  8 active torsions:
REMARK  status: ('A' for Active; 'I' for Inactive)
REMARK    1  A    between atoms: C_1  and  C_2
REMARK    2  A    between atoms: C_2  and  C_3
REMARK    3  A    between atoms: C_8  and  N_9
REMARK    4  A    between atoms: C_10  and  C_12
REMARK    5  A    between atoms: C_12  and  N_72
REMARK    6  A    between atoms: C_18  and  C_20
REMARK    7  A    between atoms: C_26  and  C_28
REMARK    8  A    between atoms: C_29  and  C_30
REMARK                            x       y       z     vdW  Elec       q    Type
REMARK                         _______ _______ _______ _____ _____    ______ ____
ROOT
ATOM      1  C   UNL     1       3.940   7.110  -1.699  0.00  0.00    -0.059 C 
ATOM      2  C   UNL     1       3.012   6.473  -0.660  0.00  0.00    +0.089 C 
ATOM      3  N   UNL     1       3.049   5.013  -0.834  0.00  0.00    -0.305 N 
ATOM      4  C   UNL     1       4.361   4.349  -0.872  0.00  0.00    +0.089 C 
ATOM      5  C   UNL     1       5.236   5.071  -1.909  0.00  0.00    -0.059 C 
ATOM      6  C   UNL     1       1.910   4.301  -0.950  0.00  0.00    +0.219 C 
ATOM      7  O   UNL     1       0.841   4.871  -1.004  0.00  0.00    -0.275 OA
ATOM      8  N   UNL     1       5.285   6.510  -1.567  0.00  0.00    +0.387 N 
ATOM      9  H   UNL     1       5.600   6.610  -0.595  0.00  0.00    -0.081 HD
ENDROOT
BRANCH   6  10
ATOM     10  C   UNL     1       1.965   2.796  -1.012  0.00  0.00    +0.078 C 
ATOM     11  C   UNL     1       2.195   2.354  -2.459  0.00  0.00    +0.032 C 
ATOM     12  C   UNL     1       2.285   0.825  -2.514  0.00  0.00    +0.109 C 
ATOM     13  N   UNL     1       1.080   0.258  -1.893  0.00  0.00    -0.298 N 
ATOM     14  C   UNL     1       0.717   0.686  -0.535  0.00  0.00    +0.109 C 
ATOM     15  C   UNL     1       0.644   2.216  -0.503  0.00  0.00    +0.032 C 
ATOM     16  C   UNL     1       0.322  -0.637  -2.557  0.00  0.00    +0.239 C 
ATOM     17  O   UNL     1       0.577  -0.910  -3.715  0.00  0.00    -0.271 OA
BRANCH  16  18
ATOM     18  C   UNL     1      -0.808  -1.281  -1.885  0.00  0.00    +0.068 C 
ATOM     19  C   UNL     1      -1.506  -2.247  -2.515  0.00  0.00    +0.013 C 
BRANCH  19  20
ATOM     20  C   UNL     1      -2.642  -2.894  -1.840  0.00  0.00    -0.025 A 
ATOM     21  C   UNL     1      -2.998  -2.514  -0.542  0.00  0.00    +0.008 A 
ATOM     22  C   UNL     1      -4.066  -3.121   0.083  0.00  0.00    +0.001 A 
ATOM     23  C   UNL     1      -4.780  -4.113  -0.568  0.00  0.00    +0.000 A 
ATOM     24  C   UNL     1      -4.431  -4.498  -1.850  0.00  0.00    +0.001 A 
ATOM     25  C   UNL     1      -3.369  -3.897  -2.490  0.00  0.00    +0.008 A 
ENDBRANCH  19  20
ENDBRANCH  16  18
ENDBRANCH   6  10
BRANCH   8  26
ATOM     26  C   UNL     1       6.238   7.207  -2.455  0.00  0.00    +0.019 C 
BRANCH  26  28
ATOM     27  N   UNL     1       6.652   7.487  -4.878  0.00  0.00    -0.287 N 
ATOM     28  C   UNL     1       5.849   7.023  -3.900  0.00  0.00    +0.201 C 
ATOM     29  O   UNL     1       4.814   6.458  -4.182  0.00  0.00    -0.278 OA
ATOM     30  H   UNL     1       7.509   7.883  -4.655  0.00  0.00    +0.155 HD
BRANCH  27  36
ATOM     31  C   UNL     1       6.735   8.301  -7.150  0.00  0.00    -0.026 A 
ATOM     32  C   UNL     1       6.336   8.209  -8.469  0.00  0.00    +0.005 A 
ATOM     33  C   UNL     1       5.452   7.219  -8.859  0.00  0.00    +0.000 A 
ATOM     34  C   UNL     1       4.966   6.318  -7.929  0.00  0.00    +0.002 A 
ATOM     35  C   UNL     1       5.366   6.401  -6.610  0.00  0.00    +0.023 A 
ATOM     36  C   UNL     1       6.249   7.397  -6.215  0.00  0.00    +0.036 A 
BRANCH  31  38
ATOM     37  C   UNL     1       9.124   8.824  -6.739  0.00  0.00    +0.009 C 
ATOM     38  C   UNL     1       7.699   9.380  -6.727  0.00  0.00    +0.033 C 
ENDBRANCH  31  38
ENDBRANCH  27  36
ENDBRANCH  26  28
ENDBRANCH   8  26
TORSDOF 7
