REMARK  Name = ZINC02725420
REMARK  3 active torsions:
REMARK  status: ('A' for Active; 'I' for Inactive)
REMARK    1  A    between atoms: C_6  and  N_7
REMARK    2  A    between atoms: N_15  and  C_16
REMARK    3  A    between atoms: C_16  and  C_26
REMARK                            x       y       z     vdW  Elec       q    Type
REMARK                         _______ _______ _______ _____ _____    ______ ____
ROOT
ATOM      1  N   UNL     1       1.629  -2.583   5.466  0.00  0.00    -0.327 N 
ATOM      2  C   UNL     1       2.688  -1.715   4.935  0.00  0.00    +0.124 C 
ATOM      3  C   UNL     1       2.065  -0.415   4.413  0.00  0.00    +0.128 C 
ATOM      4  N   UNL     1       1.003  -0.758   3.456  0.00  0.00    -0.283 N 
ATOM      5  C   UNL     1      -0.024  -1.726   3.872  0.00  0.00    +0.128 C 
ATOM      6  C   UNL     1       0.685  -2.978   4.413  0.00  0.00    +0.124 C 
ATOM      7  C   UNL     1       0.968  -0.197   2.231  0.00  0.00    +0.308 C 
ATOM      8  O   UNL     1       0.034  -0.422   1.486  0.00  0.00    -0.252 OA
ATOM      9  N   UNL     1       1.968   0.614   1.832  0.00  0.00    -0.220 N 
ATOM     10  H   UNL     1       2.674   0.854   2.453  0.00  0.00    +0.158 HD
ENDROOT
BRANCH   9  11
ATOM     11  C   UNL     1       1.989   1.132   0.462  0.00  0.00    +0.436 C 
ATOM     12  O   UNL     1       2.025   0.050  -0.487  0.00  0.00    -0.426 OA
ATOM     13  C   UNL     1       0.720  -0.220  -0.783  0.00  0.00    +0.169 A 
ATOM     14  C   UNL     1       0.120  -1.323  -1.369  0.00  0.00    +0.051 A 
ATOM     15  C   UNL     1      -1.249  -1.346  -1.560  0.00  0.00    +0.024 A 
ATOM     16  C   UNL     1      -2.023  -0.269  -1.166  0.00  0.00    +0.045 A 
ATOM     17  C   UNL     1      -1.430   0.836  -0.581  0.00  0.00    +0.069 A 
ATOM     18  C   UNL     1      -0.059   0.865  -0.387  0.00  0.00    +0.170 A 
ATOM     19  O   UNL     1       0.758   1.813   0.156  0.00  0.00    -0.426 OA
ATOM     20 CL   UNL     1      -3.742  -0.303  -1.407  0.00  0.00    -0.083 Cl
BRANCH  11  21
ATOM     21  C   UNL     1       3.185   2.064   0.260  0.00  0.00    +0.490 C 
ATOM     22  F   UNL     1       3.158   2.582  -1.039  0.00  0.00    -0.162 F 
ATOM     23  F   UNL     1       3.118   3.114   1.182  0.00  0.00    -0.162 F 
ATOM     24  F   UNL     1       4.372   1.349   0.452  0.00  0.00    -0.162 F 
ENDBRANCH  11  21
ENDBRANCH   9  11
BRANCH   1  30
ATOM     25  C   UNL     1       3.550  -3.876   6.152  0.00  0.00    +0.026 A 
ATOM     26  C   UNL     1       4.084  -4.983   6.781  0.00  0.00    +0.040 A 
ATOM     27  C   UNL     1       3.247  -5.928   7.351  0.00  0.00    +0.124 A 
ATOM     28  C   UNL     1       1.873  -5.762   7.295  0.00  0.00    +0.040 A 
ATOM     29  C   UNL     1       1.335  -4.654   6.671  0.00  0.00    +0.026 A 
ATOM     30  C   UNL     1       2.172  -3.705   6.099  0.00  0.00    +0.030 A 
ATOM     31  F   UNL     1       3.772  -7.012   7.962  0.00  0.00    -0.205 F 
ENDBRANCH   1  30
TORSDOF 3
