REMARK  Name = ZINC34761355
REMARK  12 active torsions:
REMARK  status: ('A' for Active; 'I' for Inactive)
REMARK    1  A    between atoms: C_1  and  C_2
REMARK    2  A    between atoms: C_2  and  C_3
REMARK    3  A    between atoms: C_3  and  C_4
REMARK    4  A    between atoms: C_4  and  S_5
REMARK    5  A    between atoms: S_5  and  C_6
REMARK    6  A    between atoms: C_10  and  C_16
REMARK    7  A    between atoms: C_11  and  C_15
REMARK    8  A    between atoms: C_16  and  C_17
REMARK    9  A    between atoms: N_21  and  C_24
REMARK   10  A    between atoms: C_24  and  C_25
REMARK   11  A    between atoms: C_25  and  C_26
REMARK   12  A    between atoms: C_25  and  C_27
REMARK                            x       y       z     vdW  Elec       q    Type
REMARK                         _______ _______ _______ _____ _____    ______ ____
ROOT
ATOM      1  C   UNL     1       1.895  -4.220   2.503  0.00  0.00    +0.191 A 
ATOM      2  N   UNL     1       2.428  -4.966   3.464  0.00  0.00    -0.206 NA
ATOM      3  C   UNL     1       2.272  -6.278   3.502  0.00  0.00    +0.134 A 
ATOM      4  C   UNL     1       1.511  -6.919   2.485  0.00  0.00    +0.051 A 
ATOM      5  C   UNL     1       1.199  -8.328   2.308  0.00  0.00    -0.025 A 
ATOM      6  C   UNL     1       0.454  -8.707   1.261  0.00  0.00    -0.007 A 
ATOM      7  S   UNL     1       0.109  -7.174   0.418  0.00  0.00    -0.073 S 
ATOM      8  C   UNL     1       0.976  -6.065   1.497  0.00  0.00    +0.115 A 
ATOM      9  N   UNL     1       1.173  -4.761   1.532  0.00  0.00    -0.215 NA
ATOM     10  C   UNL     1       0.013 -10.098   0.884  0.00  0.00    +0.052 C 
ATOM     11  N   UNL     1       2.842  -7.020   4.520  0.00  0.00    -0.318 N 
ATOM     12  C   UNL     1       4.217  -7.532   4.404  0.00  0.00    +0.088 C 
ATOM     13  C   UNL     1       4.987  -7.146   5.671  0.00  0.00    -0.060 C 
ATOM     14  N   UNL     1       4.258  -7.628   6.852  0.00  0.00    +0.382 N 
ATOM     15  C   UNL     1       2.963  -6.944   6.953  0.00  0.00    -0.060 C 
ATOM     16  C   UNL     1       2.094  -7.315   5.752  0.00  0.00    +0.088 C 
ATOM     17  H   UNL     1       4.107  -8.622   6.769  0.00  0.00    -0.082 HD
ENDROOT
BRANCH   5  18
ATOM     18  C   UNL     1       1.708  -9.350   3.292  0.00  0.00    +0.033 C 
ATOM     19  C   UNL     1       0.625  -9.641   4.332  0.00  0.00    +0.009 C 
ENDBRANCH   5  18
BRANCH   1  20
ATOM     20  S   UNL     1       2.149  -2.476   2.522  0.00  0.00    -0.086 S 
BRANCH  20  21
ATOM     21  C   UNL     1       1.253  -1.886   1.059  0.00  0.00    +0.077 C 
BRANCH  21  22
ATOM     22  C   UNL     1       1.393  -0.366   0.953  0.00  0.00    +0.011 C 
BRANCH  22  24
ATOM     23  C   UNL     1       0.777   1.651  -0.386  0.00  0.00    +0.004 C 
ATOM     24  C   UNL     1       0.637   0.131  -0.281  0.00  0.00    -0.003 C 
ENDBRANCH  22  24
ENDBRANCH  21  22
ENDBRANCH  20  21
ENDBRANCH   1  20
BRANCH  14  25
ATOM     25  C   UNL     1       5.050  -7.355   8.059  0.00  0.00    -0.076 C 
BRANCH  25  26
ATOM     26  C   UNL     1       4.352  -7.966   9.275  0.00  0.00    -0.034 C 
ATOM     27  C   UNL     1       4.333  -9.490   9.140  0.00  0.00    +0.005 C 
ATOM     28  C   UNL     1       5.109  -7.577  10.546  0.00  0.00    +0.005 C 
ENDBRANCH  25  26
ENDBRANCH  14  25
TORSDOF 7
