REMARK  Name = ZINC09861086
REMARK  13 active torsions:
REMARK  status: ('A' for Active; 'I' for Inactive)
REMARK    1  A    between atoms: C_1  and  C_2
REMARK    2  A    between atoms: C_2  and  C_3
REMARK    3  A    between atoms: C_2  and  C_4
REMARK    4  A    between atoms: C_2  and  C_5
REMARK    5  A    between atoms: C_7  and  C_16
REMARK    6  A    between atoms: C_9  and  C_12
REMARK    7  A    between atoms: C_10  and  O_11
REMARK    8  A    between atoms: C_12  and  C_13
REMARK    9  A    between atoms: C_12  and  C_14
REMARK   10  A    between atoms: C_12  and  C_15
REMARK   11  A    between atoms: C_20  and  C_30
REMARK   12  A    between atoms: C_25  and  N_29
REMARK   13  A    between atoms: C_26  and  C_27
REMARK                            x       y       z     vdW  Elec       q    Type
REMARK                         _______ _______ _______ _____ _____    ______ ____
ROOT
ATOM      1  C   UNL     1       2.173   1.575  -4.371  0.00  0.00    +0.082 C 
ATOM      2  C   UNL     1       1.366   2.064  -5.579  0.00  0.00    +0.140 C 
ATOM      3  C   UNL     1       0.291   3.037  -5.149  0.00  0.00    +0.084 C 
ATOM      4  N   UNL     1       0.592   4.179  -5.706  0.00  0.00    -0.150 NA
ATOM      5  N   UNL     1       1.775   4.113  -6.442  0.00  0.00    -0.115 NA
ATOM      6  C   UNL     1       2.319   2.934  -6.394  0.00  0.00    +0.227 C 
ATOM      7  O   UNL     1       3.500   2.451  -6.839  0.00  0.00    -0.425 OA
ATOM      8  C   UNL     1       4.129   1.622  -5.967  0.00  0.00    +0.200 C 
ATOM      9  C   UNL     1       3.555   1.188  -4.825  0.00  0.00    +0.095 C 
ENDROOT
BRANCH   3  10
ATOM     10  C   UNL     1      -0.861   2.753  -4.279  0.00  0.00    -0.001 A 
ATOM     11  C   UNL     1      -1.352   1.437  -4.175  0.00  0.00    +0.010 A 
ATOM     12  C   UNL     1      -2.413   1.152  -3.380  0.00  0.00    +0.009 A 
ATOM     13  C   UNL     1      -3.039   2.176  -2.645  0.00  0.00    -0.018 A 
ATOM     14  C   UNL     1      -4.139   1.904  -1.815  0.00  0.00    +0.008 A 
ATOM     15  C   UNL     1      -4.724   2.915  -1.115  0.00  0.00    +0.001 A 
ATOM     16  C   UNL     1      -4.249   4.222  -1.209  0.00  0.00    +0.001 A 
ATOM     17  C   UNL     1      -3.186   4.525  -2.003  0.00  0.00    +0.008 A 
ATOM     18  C   UNL     1      -2.555   3.506  -2.740  0.00  0.00    -0.017 A 
ATOM     19  C   UNL     1      -1.454   3.784  -3.563  0.00  0.00    +0.018 A 
ENDBRANCH   3  10
BRANCH   1  22
ATOM     20  C   UNL     1       0.511  -0.701  -1.860  0.00  0.00    -0.000 A 
ATOM     21  C   UNL     1       1.138   0.394  -2.423  0.00  0.00    +0.012 A 
ATOM     22  C   UNL     1       1.491   0.379  -3.759  0.00  0.00    -0.037 A 
ATOM     23  C   UNL     1       1.218  -0.732  -4.536  0.00  0.00    +0.012 A 
ATOM     24  C   UNL     1       0.592  -1.830  -3.978  0.00  0.00    -0.000 A 
ATOM     25  C   UNL     1       0.242  -1.819  -2.636  0.00  0.00    +0.124 A 
BRANCH  20  27
ATOM     26  C   UNL     1       0.532   0.655   0.216  0.00  0.00    +0.015 C 
ATOM     27  C   UNL     1       0.127  -0.684  -0.403  0.00  0.00    -0.009 C 
ATOM     28  C   UNL     1       0.845  -1.821   0.328  0.00  0.00    +0.015 C 
ATOM     29  C   UNL     1      -1.386  -0.869  -0.272  0.00  0.00    +0.015 C 
ENDBRANCH  20  27
BRANCH  24  30
ATOM     30  C   UNL     1       0.295  -3.040  -4.825  0.00  0.00    -0.009 C 
ATOM     31  C   UNL     1       0.785  -2.795  -6.254  0.00  0.00    +0.015 C 
ATOM     32  C   UNL     1       1.011  -4.260  -4.242  0.00  0.00    +0.015 C 
ATOM     33  C   UNL     1      -1.214  -3.294  -4.841  0.00  0.00    +0.015 C 
ENDBRANCH  24  30
BRANCH  25  34
ATOM     34  O   UNL     1      -0.369  -2.900  -2.083  0.00  0.00    -0.506 OA
ATOM     35  H   UNL     1      -1.334  -2.876  -2.135  0.00  0.00    +0.292 HD
ENDBRANCH  25  34
ENDBRANCH   1  22
BRANCH   8  36
ATOM     36  N   UNL     1       5.405   1.208  -6.259  0.00  0.00    -0.328 N 
ATOM     37  H   UNL     1       5.838   1.508  -7.074  0.00  0.00    +0.145 HD
ATOM     38  H   UNL     1       5.874   0.616  -5.651  0.00  0.00    +0.145 HD
ENDBRANCH   8  36
BRANCH   9  39
ATOM     39  C   UNL     1       4.309   0.301  -3.991  0.00  0.00    +0.100 C 
ATOM     40  N   UNL     1       4.907  -0.402  -3.329  0.00  0.00    -0.191 NA
ENDBRANCH   9  39
TORSDOF 7
