REMARK  Name = ZINC09276741
REMARK  9 active torsions:
REMARK  status: ('A' for Active; 'I' for Inactive)
REMARK    1  A    between atoms: C_1  and  C_2
REMARK    2  A    between atoms: C_5  and  N_8
REMARK    3  A    between atoms: C_14  and  S_15
REMARK    4  A    between atoms: S_15  and  C_16
REMARK    5  A    between atoms: C_16  and  C_17
REMARK    6  A    between atoms: N_19  and  C_20
REMARK    7  A    between atoms: C_22  and  C_27
REMARK    8  A    between atoms: C_24  and  C_26
REMARK    9  A    between atoms: C_29  and  C_32
REMARK                            x       y       z     vdW  Elec       q    Type
REMARK                         _______ _______ _______ _____ _____    ______ ____
ROOT
ATOM      1  N   UNL     1       0.661  -4.289  -0.082  0.00  0.00    -0.255 N 
ATOM      2  C   UNL     1       0.740  -4.993   1.070  0.00  0.00    +0.273 A 
ATOM      3  O   UNL     1       0.997  -4.436   2.125  0.00  0.00    -0.266 OA
ATOM      4  C   UNL     1       0.515  -6.376   1.027  0.00  0.00    +0.094 A 
ATOM      5  C   UNL     1       0.243  -7.018  -0.164  0.00  0.00    +0.064 A 
ATOM      6  N   UNL     1       0.178  -6.247  -1.271  0.00  0.00    -0.227 NA
ATOM      7  C   UNL     1       0.375  -4.952  -1.240  0.00  0.00    +0.177 A 
ATOM      8  C   UNL     1       0.070  -8.515  -0.098  0.00  0.00    +0.071 C 
ATOM      9  C   UNL     1      -0.268  -8.989   1.335  0.00  0.00    +0.054 C 
ATOM     10  S   UNL     1       0.507  -7.622   2.295  0.00  0.00    -0.115 S 
ATOM     11  C   UNL     1       0.389 -10.334   1.649  0.00  0.00    +0.020 C 
ENDROOT
BRANCH   1  16
ATOM     12  C   UNL     1       1.524   1.320  -0.103  0.00  0.00    +0.044 C 
ATOM     13  C   UNL     1       1.295  -0.170  -0.097  0.00  0.00    -0.050 A 
ATOM     14  C   UNL     1       2.364  -1.033  -0.253  0.00  0.00    +0.005 A 
ATOM     15  C   UNL     1       2.158  -2.398  -0.243  0.00  0.00    +0.026 A 
ATOM     16  C   UNL     1       0.874  -2.904  -0.087  0.00  0.00    +0.052 A 
ATOM     17  C   UNL     1      -0.198  -2.035   0.064  0.00  0.00    +0.026 A 
ATOM     18  C   UNL     1       0.015  -0.670   0.058  0.00  0.00    +0.005 A 
ENDBRANCH   1  16
BRANCH   7  19
ATOM     19  S   UNL     1       0.267  -4.037  -2.741  0.00  0.00    -0.078 S 
BRANCH  19  20
ATOM     20  C   UNL     1      -0.117  -5.375  -3.898  0.00  0.00    +0.173 C 
BRANCH  20  21
ATOM     21  C   UNL     1      -0.259  -4.812  -5.288  0.00  0.00    +0.227 C 
ATOM     22  O   UNL     1      -0.114  -3.623  -5.479  0.00  0.00    -0.275 OA
ATOM     23  N   UNL     1      -0.547  -5.630  -6.321  0.00  0.00    -0.285 N 
ATOM     24  H   UNL     1      -0.729  -6.569  -6.159  0.00  0.00    +0.155 HD
BRANCH  23  25
ATOM     25  C   UNL     1      -0.584  -5.125  -7.625  0.00  0.00    +0.034 A 
ATOM     26  C   UNL     1      -0.155  -5.909  -8.687  0.00  0.00    +0.026 A 
ATOM     27  C   UNL     1      -0.198  -5.410  -9.974  0.00  0.00    -0.048 A 
ATOM     28  C   UNL     1      -0.656  -4.125 -10.204  0.00  0.00    +0.006 A 
ATOM     29  C   UNL     1      -1.077  -3.339  -9.147  0.00  0.00    -0.048 A 
ATOM     30  C   UNL     1      -1.042  -3.835  -7.859  0.00  0.00    +0.026 A 
ATOM     31  C   UNL     1      -1.575  -1.939  -9.402  0.00  0.00    +0.044 C 
ATOM     32  C   UNL     1       0.260  -6.263 -11.129  0.00  0.00    +0.044 C 
ENDBRANCH  23  25
ENDBRANCH  20  21
ENDBRANCH  19  20
ENDBRANCH   7  19
TORSDOF 5
