REMARK  Name = ZINC39195376
REMARK  8 active torsions:
REMARK  status: ('A' for Active; 'I' for Inactive)
REMARK    1  A    between atoms: C_1  and  C_2
REMARK    2  A    between atoms: C_2  and  C_3
REMARK    3  A    between atoms: C_3  and  C_4
REMARK    4  A    between atoms: C_16  and  C_18
REMARK    5  A    between atoms: C_19  and  C_20
REMARK    6  A    between atoms: N_22  and  S_29
REMARK    7  A    between atoms: S_29  and  C_32
REMARK    8  A    between atoms: C_35  and  C_38
REMARK                            x       y       z     vdW  Elec       q    Type
REMARK                         _______ _______ _______ _____ _____    ______ ____
ROOT
ATOM      1  C   UNL     1      -1.785  -1.869  -5.207  0.00  0.00    +0.068 C 
ATOM      2  C   UNL     1      -2.924  -1.718  -5.924  0.00  0.00    +0.015 C 
ENDROOT
BRANCH   1  14
ATOM      3  C   UNL     1       0.739  -2.027  -1.265  0.00  0.00    +0.064 C 
ATOM      4  C   UNL     1      -0.637  -2.561  -1.644  0.00  0.00    +0.134 C 
ATOM      5  N   UNL     1      -0.718  -2.282  -3.105  0.00  0.00    -0.295 N 
ATOM      6  C   UNL     1       0.664  -2.198  -3.642  0.00  0.00    +0.123 C 
ATOM      7  C   UNL     1       1.575  -2.539  -2.477  0.00  0.00    +0.117 C 
ATOM      8  C   UNL     1       2.908  -1.881  -2.364  0.00  0.00    +0.227 C 
ATOM      9  O   UNL     1       3.478  -1.394  -3.317  0.00  0.00    -0.275 OA
ATOM     10  N   UNL     1       3.437  -1.869  -1.106  0.00  0.00    -0.240 N 
ATOM     11  C   UNL     1       2.757  -2.369  -0.056  0.00  0.00    +0.306 C 
ATOM     12  O   UNL     1       3.369  -2.695   0.942  0.00  0.00    -0.252 OA
ATOM     13  N   UNL     1       1.406  -2.515  -0.079  0.00  0.00    -0.291 N 
ATOM     14  C   UNL     1      -1.852  -2.132  -3.818  0.00  0.00    +0.240 C 
ATOM     15  O   UNL     1      -2.934  -2.224  -3.268  0.00  0.00    -0.271 OA
ATOM     16  H   UNL     1       4.320  -1.493  -0.965  0.00  0.00    +0.159 HD
ATOM     17  H   UNL     1       0.922  -2.928   0.653  0.00  0.00    +0.151 HD
BRANCH   3  18
ATOM     18  C   UNL     1       0.718  -0.497  -1.257  0.00  0.00    +0.028 C 
BRANCH  18  20
ATOM     19  C   UNL     1      -0.019   1.526   0.010  0.00  0.00    +0.004 C 
ATOM     20  C   UNL     1       0.002  -0.004   0.002  0.00  0.00    -0.001 C 
ENDBRANCH  18  20
ENDBRANCH   3  18
ENDBRANCH   1  14
BRANCH   2  21
ATOM     21  C   UNL     1      -2.855  -1.446  -7.360  0.00  0.00    +0.002 A 
ATOM     22  C   UNL     1      -1.723  -1.322  -8.116  0.00  0.00    +0.121 A 
ATOM     23  N   UNL     1      -2.059  -1.070  -9.405  0.00  0.00    -0.218 N 
ATOM     24  C   UNL     1      -3.431  -1.019  -9.544  0.00  0.00    +0.073 A 
ATOM     25  C   UNL     1      -3.993  -1.256  -8.280  0.00  0.00    +0.009 A 
ATOM     26  C   UNL     1      -5.376  -1.269  -8.121  0.00  0.00    +0.010 A 
ATOM     27  C   UNL     1      -6.190  -1.051  -9.211  0.00  0.00    +0.001 A 
ATOM     28  C   UNL     1      -5.637  -0.820 -10.462  0.00  0.00    +0.002 A 
ATOM     29  C   UNL     1      -4.269  -0.797 -10.632  0.00  0.00    +0.028 A 
BRANCH  23  30
ATOM     30  S   UNL     1      -0.976  -0.854 -10.639  0.00  0.00    +0.084 S 
ATOM     31  O   UNL     1      -1.369   0.328 -11.323  0.00  0.00    -0.148 OA
ATOM     32  O   UNL     1       0.319  -1.013 -10.075  0.00  0.00    -0.148 OA
BRANCH  30  33
ATOM     33  C   UNL     1      -1.200  -2.188 -11.769  0.00  0.00    +0.111 A 
ATOM     34  C   UNL     1      -0.480  -3.357 -11.609  0.00  0.00    +0.029 A 
ATOM     35  C   UNL     1      -0.656  -4.403 -12.495  0.00  0.00    +0.005 A 
ATOM     36  C   UNL     1      -1.552  -4.280 -13.541  0.00  0.00    -0.050 A 
ATOM     37  C   UNL     1      -2.272  -3.111 -13.700  0.00  0.00    +0.005 A 
ATOM     38  C   UNL     1      -2.099  -2.066 -12.811  0.00  0.00    +0.029 A 
ATOM     39  C   UNL     1      -1.743  -5.420 -14.508  0.00  0.00    +0.044 C 
ENDBRANCH  30  33
ENDBRANCH  23  30
ENDBRANCH   2  21
TORSDOF 6
