REMARK  Name = ZINC63426785
REMARK  8 active torsions:
REMARK  status: ('A' for Active; 'I' for Inactive)
REMARK    1  A    between atoms: C_1  and  O_2
REMARK    2  A    between atoms: O_2  and  C_3
REMARK    3  A    between atoms: C_3  and  C_5
REMARK    4  A    between atoms: C_5  and  C_7
REMARK    5  A    between atoms: C_5  and  N_17
REMARK    6  A    between atoms: C_7  and  C_8
REMARK    7  A    between atoms: N_17  and  C_18
REMARK    8  A    between atoms: N_25  and  C_28
REMARK                            x       y       z     vdW  Elec       q    Type
REMARK                         _______ _______ _______ _____ _____    ______ ____
ROOT
ATOM      1  N   UNL     1       1.396  -2.512   2.301  0.00  0.00    -0.336 N 
ATOM      2  H   UNL     1       2.336  -2.747   2.245  0.00  0.00    +0.146 HD
ENDROOT
BRANCH   1   3
ATOM      3  C   UNL     1       0.752  -2.590   3.483  0.00  0.00    +0.086 C 
ATOM      4  C   UNL     1       1.400  -3.101   4.592  0.00  0.00    +0.113 C 
ATOM      5  C   UNL     1       2.837  -3.430   4.559  0.00  0.00    +0.258 C 
ATOM      6  O   UNL     1       3.494  -3.259   3.550  0.00  0.00    -0.270 OA
ATOM      7  N   UNL     1       3.403  -3.925   5.679  0.00  0.00    -0.235 N 
ATOM      8  C   UNL     1       2.690  -4.118   6.798  0.00  0.00    +0.320 C 
ATOM      9  O   UNL     1       3.260  -4.567   7.773  0.00  0.00    -0.251 OA
ATOM     10  N   UNL     1       1.383  -3.841   6.899  0.00  0.00    -0.190 N 
ATOM     11  C   UNL     1       0.687  -3.336   5.860  0.00  0.00    +0.265 C 
ATOM     12  O   UNL     1      -0.499  -3.084   5.965  0.00  0.00    -0.269 OA
ATOM     13  H   UNL     1       4.347  -4.146   5.674  0.00  0.00    +0.159 HD
BRANCH  10  14
ATOM     14  C   UNL     1       0.724  -4.079   8.114  0.00  0.00    +0.046 A 
ATOM     15  C   UNL     1      -0.254  -5.061   8.194  0.00  0.00    +0.027 A 
ATOM     16  C   UNL     1      -0.901  -5.293   9.392  0.00  0.00    +0.040 A 
ATOM     17  C   UNL     1      -0.576  -4.546  10.512  0.00  0.00    +0.124 A 
ATOM     18  C   UNL     1       0.399  -3.565  10.433  0.00  0.00    +0.040 A 
ATOM     19  C   UNL     1       1.053  -3.335   9.239  0.00  0.00    +0.027 A 
ATOM     20  F   UNL     1      -1.211  -4.773  11.682  0.00  0.00    -0.205 F 
ENDBRANCH  10  14
ENDBRANCH   1   3
BRANCH   1  21
ATOM     21  C   UNL     1       0.678  -2.072   1.103  0.00  0.00    +0.184 C 
BRANCH  21  22
ATOM     22  C   UNL     1       0.681  -0.567   1.039  0.00  0.00    +0.328 C 
ATOM     23  O   UNL     1       1.227   0.073   1.907  0.00  0.00    -0.249 OA
BRANCH  22  25
ATOM     24  C   UNL     1       0.118   1.492   0.023  0.00  0.00    +0.280 C 
ATOM     25  O   UNL     1       0.077   0.063   0.019  0.00  0.00    -0.467 OA
ENDBRANCH  22  25
ENDBRANCH  21  22
BRANCH  21  26
ATOM     26  C   UNL     1       1.368  -2.636  -0.141  0.00  0.00    +0.066 C 
BRANCH  26  27
ATOM     27  C   UNL     1       1.257  -4.139  -0.139  0.00  0.00    -0.039 C 
ATOM     28  C   UNL     1       0.322  -4.887  -0.768  0.00  0.00    -0.001 A 
ATOM     29  C   UNL     1      -0.829  -4.538  -1.609  0.00  0.00    +0.010 A 
ATOM     30  C   UNL     1      -1.602  -5.529  -2.108  0.00  0.00    +0.001 A 
ATOM     31  C   UNL     1      -1.332  -6.879  -1.841  0.00  0.00    +0.002 A 
ATOM     32  C   UNL     1      -0.293  -7.278  -1.077  0.00  0.00    +0.026 A 
ATOM     33  C   UNL     1       0.585  -6.319  -0.502  0.00  0.00    +0.043 A 
ATOM     34  N   UNL     1       1.643  -6.452   0.262  0.00  0.00    -0.380 N 
ATOM     35  C   UNL     1       2.173  -5.117   0.562  0.00  0.00    +0.144 C 
ATOM     36  H   UNL     1       2.014  -7.292   0.573  0.00  0.00    +0.160 HD
ENDBRANCH  26  27
ENDBRANCH  21  26
ENDBRANCH   1  21
TORSDOF 7
