REMARK  Name = ZINC34757976
REMARK  6 active torsions:
REMARK  status: ('A' for Active; 'I' for Inactive)
REMARK    1  A    between atoms: C_4  and  N_7
REMARK    2  A    between atoms: C_8  and  C_10
REMARK    3  A    between atoms: C_10  and  S_11
REMARK    4  A    between atoms: S_11  and  C_12
REMARK    5  A    between atoms: N_27  and  C_30
REMARK    6  A    between atoms: C_30  and  C_31
REMARK                            x       y       z     vdW  Elec       q    Type
REMARK                         _______ _______ _______ _____ _____    ______ ____
ROOT
ATOM      1  C   UNL     1       6.276  -5.205   0.370  0.00  0.00    +0.191 A 
ATOM      2  N   UNL     1       6.410  -6.523   0.461  0.00  0.00    -0.206 NA
ATOM      3  C   UNL     1       7.595  -7.104   0.543  0.00  0.00    +0.134 A 
ATOM      4  C   UNL     1       8.765  -6.295   0.533  0.00  0.00    +0.051 A 
ATOM      5  C   UNL     1      10.173  -6.723   0.612  0.00  0.00    -0.025 A 
ATOM      6  C   UNL     1      11.103  -5.756   0.584  0.00  0.00    -0.004 A 
ATOM      7  S   UNL     1      10.189  -4.237   0.449  0.00  0.00    -0.073 S 
ATOM      8  C   UNL     1       8.549  -4.909   0.434  0.00  0.00    +0.115 A 
ATOM      9  N   UNL     1       7.333  -4.404   0.352  0.00  0.00    -0.214 NA
ATOM     10  C   UNL     1      12.500  -6.309   0.677  0.00  0.00    +0.043 C 
ATOM     11  C   UNL     1      12.313  -7.749   1.202  0.00  0.00    +0.010 C 
ATOM     12  C   UNL     1      10.885  -8.074   0.723  0.00  0.00    +0.037 C 
ATOM     13  N   UNL     1       7.696  -8.480   0.637  0.00  0.00    -0.318 N 
ATOM     14  C   UNL     1       7.589  -9.159   1.937  0.00  0.00    +0.088 C 
ATOM     15  C   UNL     1       6.564 -10.291   1.811  0.00  0.00    -0.059 C 
ATOM     16  N   UNL     1       6.942 -11.171   0.698  0.00  0.00    +0.387 N 
ATOM     17  C   UNL     1       6.872 -10.432  -0.569  0.00  0.00    -0.059 C 
ATOM     18  C   UNL     1       7.906  -9.307  -0.562  0.00  0.00    +0.088 C 
ATOM     19  H   UNL     1       7.884 -11.505   0.839  0.00  0.00    -0.081 HD
ENDROOT
BRANCH   1  20
ATOM     20  S   UNL     1       4.661  -4.506   0.266  0.00  0.00    -0.077 S 
BRANCH  20  21
ATOM     21  C   UNL     1       4.962  -2.721   0.152  0.00  0.00    +0.173 C 
BRANCH  21  23
ATOM     22  N   UNL     1       3.622  -0.651  -0.039  0.00  0.00    -0.285 N 
ATOM     23  C   UNL     1       3.645  -1.995   0.056  0.00  0.00    +0.227 C 
ATOM     24  O   UNL     1       2.606  -2.620   0.063  0.00  0.00    -0.275 OA
ATOM     25  H   UNL     1       4.451  -0.157  -0.130  0.00  0.00    +0.155 HD
BRANCH  22  29
ATOM     26  C   UNL     1      -0.013   1.383   0.060  0.00  0.00    +0.000 A 
ATOM     27  C   UNL     1       0.102   0.145   0.667  0.00  0.00    +0.002 A 
ATOM     28  C   UNL     1       1.306  -0.531   0.636  0.00  0.00    +0.023 A 
ATOM     29  C   UNL     1       2.401   0.032  -0.006  0.00  0.00    +0.033 A 
ATOM     30  C   UNL     1       2.281   1.274  -0.615  0.00  0.00    +0.023 A 
ATOM     31  C   UNL     1       1.075   1.946  -0.580  0.00  0.00    +0.002 A 
ENDBRANCH  22  29
ENDBRANCH  21  23
ENDBRANCH  20  21
ENDBRANCH   1  20
BRANCH  16  32
ATOM     32  C   UNL     1       6.023 -12.316   0.646  0.00  0.00    +0.019 C 
BRANCH  32  33
ATOM     33  C   UNL     1       6.481 -13.280  -0.416  0.00  0.00    +0.199 C 
ATOM     34  O   UNL     1       7.476 -13.039  -1.067  0.00  0.00    -0.278 OA
ATOM     35  N   UNL     1       5.786 -14.412  -0.644  0.00  0.00    -0.300 N 
ATOM     36  C   UNL     1       4.642 -15.264  -0.311  0.00  0.00    +0.126 C 
ATOM     37  C   UNL     1       5.638 -15.657  -1.403  0.00  0.00    +0.126 C 
ENDBRANCH  32  33
ENDBRANCH  16  32
TORSDOF 6
