REMARK  Name = ZINC09747470
REMARK  13 active torsions:
REMARK  status: ('A' for Active; 'I' for Inactive)
REMARK    1  A    between atoms: C_1  and  C_2
REMARK    2  A    between atoms: C_2  and  O_3
REMARK    3  A    between atoms: O_3  and  C_4
REMARK    4  A    between atoms: C_4  and  C_6
REMARK    5  A    between atoms: C_7  and  C_31
REMARK    6  A    between atoms: C_12  and  C_14
REMARK    7  A    between atoms: C_14  and  S_15
REMARK    8  A    between atoms: S_15  and  C_16
REMARK    9  A    between atoms: N_19  and  C_23
REMARK   10  A    between atoms: C_23  and  C_24
REMARK   11  A    between atoms: C_24  and  N_61
REMARK   12  A    between atoms: C_25  and  N_61
REMARK   13  A    between atoms: C_26  and  N_61
REMARK                            x       y       z     vdW  Elec       q    Type
REMARK                         _______ _______ _______ _____ _____    ______ ____
ROOT
ATOM      1  S   UNL     1      -1.086   6.061   1.548  0.00  0.00    -0.096 S 
ENDROOT
BRANCH   1   2
ATOM      2  C   UNL     1      -1.173   5.148   0.043  0.00  0.00    +0.108 A 
ATOM      3  C   UNL     1      -0.919   3.755   0.044  0.00  0.00    +0.004 A 
ATOM      4  C   UNL     1      -1.000   3.080  -1.117  0.00  0.00    +0.029 A 
ATOM      5  N   UNL     1      -1.314   3.763  -2.263  0.00  0.00    -0.298 N 
ATOM      6  C   UNL     1      -1.545   5.085  -2.232  0.00  0.00    +0.350 A 
ATOM      7  O   UNL     1      -1.823   5.671  -3.266  0.00  0.00    -0.244 OA
ATOM      8  N   UNL     1      -1.476   5.766  -1.090  0.00  0.00    -0.186 NA
ATOM      9  C   UNL     1      -0.763   1.597  -1.221  0.00  0.00    +0.054 C 
ATOM     10  C   UNL     1      -0.013   1.086   0.008  0.00  0.00    +0.006 C 
ATOM     11  C   UNL     1      -0.742   1.586   1.261  0.00  0.00    +0.005 C 
ATOM     12  C   UNL     1      -0.560   3.100   1.350  0.00  0.00    +0.039 C 
BRANCH   5  13
ATOM     13  C   UNL     1      -1.397   3.042  -3.535  0.00  0.00    +0.108 C 
BRANCH  13  14
ATOM     14  C   UNL     1      -2.826   2.540  -3.745  0.00  0.00    -0.058 C 
BRANCH  14  17
ATOM     15  C   UNL     1      -2.109   0.586  -4.982  0.00  0.00    -0.097 C 
ATOM     16  C   UNL     1      -4.306   1.526  -5.371  0.00  0.00    -0.097 C 
ATOM     17  N   UNL     1      -2.899   1.834  -5.042  0.00  0.00    +0.377 N 
ATOM     18  H   UNL     1      -2.510   2.441  -5.774  0.00  0.00    -0.083 HD
ENDBRANCH  14  17
ENDBRANCH  13  14
ENDBRANCH   5  13
ENDBRANCH   1   2
BRANCH   1  19
ATOM     19  C   UNL     1      -1.490   7.716   0.936  0.00  0.00    +0.172 C 
BRANCH  19  26
ATOM     20  C   UNL     1      -1.606  12.271   5.175  0.00  0.00    +0.120 A 
ATOM     21  C   UNL     1      -1.924  12.915   3.987  0.00  0.00    +0.062 A 
ATOM     22  N   UNL     1      -1.970  12.195   2.897  0.00  0.00    -0.229 NA
ATOM     23  C   UNL     1      -1.735  10.892   2.916  0.00  0.00    +0.165 A 
ATOM     24  S   UNL     1      -1.398  10.594   4.593  0.00  0.00    -0.045 S 
ATOM     25  N   UNL     1      -1.749   9.994   1.863  0.00  0.00    -0.264 N 
ATOM     26  C   UNL     1      -1.475   8.693   2.083  0.00  0.00    +0.229 C 
ATOM     27  O   UNL     1      -1.217   8.309   3.203  0.00  0.00    -0.275 OA
ATOM     28  C   UNL     1      -2.200  14.396   3.953  0.00  0.00    +0.067 C 
ATOM     29  H   UNL     1      -1.956  10.302   0.966  0.00  0.00    +0.157 HD
BRANCH  20  30
ATOM     30  C   UNL     1      -1.477  12.813   6.526  0.00  0.00    +0.348 C 
ATOM     31  O   UNL     1      -1.660  13.999   6.725  0.00  0.00    -0.244 OA
BRANCH  30  32
ATOM     32  O   UNL     1      -1.156  11.998   7.552  0.00  0.00    -0.461 OA
BRANCH  32  34
ATOM     33  C   UNL     1      -0.679  11.524   9.873  0.00  0.00    +0.048 C 
ATOM     34  C   UNL     1      -1.047  12.596   8.845  0.00  0.00    +0.229 C 
ENDBRANCH  32  34
ENDBRANCH  30  32
ENDBRANCH  20  30
ENDBRANCH  19  26
ENDBRANCH   1  19
TORSDOF 9
