REMARK  Name = ZINC40741678
REMARK  9 active torsions:
REMARK  status: ('A' for Active; 'I' for Inactive)
REMARK    1  A    between atoms: C_1  and  C_2
REMARK    2  A    between atoms: C_2  and  O_3
REMARK    3  A    between atoms: O_3  and  C_4
REMARK    4  A    between atoms: C_6  and  C_21
REMARK    5  A    between atoms: C_9  and  O_10
REMARK    6  A    between atoms: O_10  and  C_11
REMARK    7  A    between atoms: C_11  and  C_12
REMARK    8  A    between atoms: C_21  and  N_22
REMARK    9  A    between atoms: N_22  and  C_23
REMARK                            x       y       z     vdW  Elec       q    Type
REMARK                         _______ _______ _______ _____ _____    ______ ____
ROOT
ATOM      1  C   UNL     1      -1.453  -1.791   0.069  0.00  0.00    +0.163 A 
ATOM      2  C   UNL     1      -0.339  -2.616   0.068  0.00  0.00    +0.051 A 
ATOM      3  C   UNL     1      -0.495  -3.987  -0.018  0.00  0.00    -0.060 A 
ATOM      4  C   UNL     1      -1.760  -4.539  -0.102  0.00  0.00    +0.021 A 
ATOM      5  C   UNL     1      -2.875  -3.721  -0.102  0.00  0.00    +0.063 A 
ATOM      6  C   UNL     1      -2.726  -2.346  -0.010  0.00  0.00    +0.176 A 
ATOM      7 BR   UNL     1      -4.604  -4.480  -0.219  0.00  0.00    -0.046 Br
ENDROOT
BRANCH   1   8
ATOM      8  O   UNL     1      -1.301  -0.443   0.153  0.00  0.00    -0.489 OA
BRANCH   8  10
ATOM      9  C   UNL     1       0.005   1.584   0.319  0.00  0.00    +0.048 C 
ATOM     10  C   UNL     1       0.035   0.057   0.231  0.00  0.00    +0.226 C 
ENDBRANCH   8  10
ENDBRANCH   1   8
BRANCH   6  11
ATOM     11  O   UNL     1      -3.822  -1.541  -0.003  0.00  0.00    -0.483 OA
BRANCH  11  12
ATOM     12  C   UNL     1      -4.298  -1.083  -1.270  0.00  0.00    +0.264 C 
BRANCH  12  13
ATOM     13  C   UNL     1      -5.510  -0.210  -1.066  0.00  0.00    -0.009 A 
ATOM     14  C   UNL     1      -6.772  -0.773  -1.049  0.00  0.00    +0.008 A 
ATOM     15  C   UNL     1      -7.884   0.027  -0.862  0.00  0.00    +0.022 A 
ATOM     16  C   UNL     1      -7.733   1.392  -0.692  0.00  0.00    +0.059 A 
ATOM     17  C   UNL     1      -6.469   1.956  -0.709  0.00  0.00    +0.060 A 
ATOM     18  C   UNL     1      -5.357   1.153  -0.891  0.00  0.00    +0.028 A 
ATOM     19 CL   UNL     1      -6.279   3.668  -0.496  0.00  0.00    -0.082 Cl
ATOM     20 CL   UNL     1      -9.129   2.397  -0.458  0.00  0.00    -0.082 Cl
ENDBRANCH  12  13
ENDBRANCH  11  12
ENDBRANCH   6  11
BRANCH   3  21
ATOM     21  C   UNL     1       0.718  -4.883  -0.019  0.00  0.00    -0.046 C 
BRANCH  21  22
ATOM     22  N   UNL     1       1.054  -5.253   1.362  0.00  0.00    +0.384 N 
ATOM     23  H   UNL     1       1.337  -4.430   1.872  0.00  0.00    -0.085 HD
ATOM     24  H   UNL     1       0.247  -5.664   1.806  0.00  0.00    -0.085 HD
BRANCH  22  25
ATOM     25  C   UNL     1       2.155  -6.226   1.353  0.00  0.00    -0.071 C 
ATOM     26  C   UNL     1       2.348  -6.776   2.781  0.00  0.00    -0.016 C 
ATOM     27  C   UNL     1       3.079  -8.088   2.694  0.00  0.00    -0.002 C 
ATOM     28  C   UNL     1       4.602  -7.926   2.859  0.00  0.00    -0.000 C 
ATOM     29  C   UNL     1       5.159  -6.705   2.103  0.00  0.00    -0.000 C 
ATOM     30  C   UNL     1       4.548  -6.546   0.736  0.00  0.00    -0.002 C 
ATOM     31  C   UNL     1       3.354  -5.576   0.843  0.00  0.00    -0.016 C 
ENDBRANCH  22  25
ENDBRANCH  21  22
ENDBRANCH   3  21
TORSDOF 8
