REMARK  Name = ZINC08343786
REMARK  3 active torsions:
REMARK  status: ('A' for Active; 'I' for Inactive)
REMARK    1  A    between atoms: C_9  and  C_12
REMARK    2  A    between atoms: N_14  and  C_15
REMARK    3  A    between atoms: C_16  and  C_23
REMARK                            x       y       z     vdW  Elec       q    Type
REMARK                         _______ _______ _______ _____ _____    ______ ____
ROOT
ATOM      1  C   UNL     1      -2.258   2.497  -3.494  0.00  0.00    +0.257 C 
ATOM      2  O   UNL     1      -3.304   3.082  -3.283  0.00  0.00    -0.269 OA
ATOM      3  N   UNL     1      -1.506   2.067  -2.462  0.00  0.00    -0.275 N 
ATOM      4  H   UNL     1      -0.672   1.601  -2.631  0.00  0.00    +0.156 HD
ENDROOT
BRANCH   1  13
ATOM      5  C   UNL     1      -1.621   2.192  -9.671  0.00  0.00    +0.039 A 
ATOM      6  C   UNL     1      -2.322   2.575  -8.573  0.00  0.00    +0.013 A 
ATOM      7  C   UNL     1      -1.840   2.293  -7.269  0.00  0.00    +0.008 A 
ATOM      8  C   UNL     1      -0.608   1.601  -7.188  0.00  0.00    +0.024 A 
ATOM      9  C   UNL     1       0.093   1.217  -8.310  0.00  0.00    +0.054 A 
ATOM     10  C   UNL     1      -0.411   1.512  -9.563  0.00  0.00    +0.124 A 
ATOM     11  F   UNL     1       0.264   1.143 -10.674  0.00  0.00    -0.205 F 
ATOM     12  S   UNL     1      -0.340   1.437  -5.441  0.00  0.00    -0.082 S 
ATOM     13  C   UNL     1      -1.817   2.260  -4.873  0.00  0.00    +0.094 A 
ATOM     14  C   UNL     1      -2.436   2.610  -6.034  0.00  0.00    +0.068 A 
ATOM     15 CL   UNL     1      -3.954   3.451  -5.991  0.00  0.00    -0.082 Cl
ENDBRANCH   1  13
BRANCH   3  16
ATOM     16  C   UNL     1      -1.923   2.291  -1.161  0.00  0.00    +0.085 A 
ATOM     17  C   UNL     1      -1.294   1.929   0.019  0.00  0.00    +0.068 A 
ATOM     18  C   UNL     1      -1.949   2.292   1.275  0.00  0.00    -0.023 A 
ATOM     19  C   UNL     1      -3.116   2.948   1.141  0.00  0.00    -0.004 A 
ATOM     20  S   UNL     1      -3.358   3.087  -0.613  0.00  0.00    -0.077 S 
ATOM     21  C   UNL     1      -3.726   3.290   2.473  0.00  0.00    +0.043 C 
ATOM     22  C   UNL     1      -2.568   3.137   3.483  0.00  0.00    +0.010 C 
ATOM     23  C   UNL     1      -1.659   2.119   2.766  0.00  0.00    +0.037 C 
BRANCH  17  24
ATOM     24  C   UNL     1      -0.014   1.213   0.009  0.00  0.00    +0.244 C 
ATOM     25  O   UNL     1       0.002  -0.004   0.002  0.00  0.00    -0.270 OA
ATOM     26  N   UNL     1       1.143   1.903   0.001  0.00  0.00    -0.325 N 
ATOM     27  H   UNL     1       1.990   1.429  -0.009  0.00  0.00    +0.145 HD
ATOM     28  H   UNL     1       1.130   2.873   0.007  0.00  0.00    +0.145 HD
ENDBRANCH  17  24
ENDBRANCH   3  16
TORSDOF 3
