REMARK  Name = ZINC04939315
REMARK  6 active torsions:
REMARK  status: ('A' for Active; 'I' for Inactive)
REMARK    1  A    between atoms: C_1  and  C_2
REMARK    2  A    between atoms: C_11  and  C_13
REMARK    3  A    between atoms: N_15  and  C_16
REMARK    4  A    between atoms: C_16  and  C_17
REMARK    5  A    between atoms: C_17  and  O_18
REMARK    6  A    between atoms: O_18  and  C_19
REMARK                            x       y       z     vdW  Elec       q    Type
REMARK                         _______ _______ _______ _____ _____    ______ ____
ROOT
ATOM      1  C   UNL     1      -5.682  -5.741   0.000  0.00  0.00    +0.044 C 
ATOM      2  C   UNL     1      -6.061  -4.282   0.009  0.00  0.00    -0.050 A 
ATOM      3  C   UNL     1      -7.398  -3.916   0.017  0.00  0.00    +0.007 A 
ATOM      4  C   UNL     1      -7.759  -2.584   0.025  0.00  0.00    +0.047 A 
ATOM      5  C   UNL     1      -6.784  -1.597   0.025  0.00  0.00    +0.140 A 
ATOM      6  C   UNL     1      -5.427  -1.966   0.018  0.00  0.00    +0.032 A 
ATOM      7  C   UNL     1      -5.077  -3.318   0.009  0.00  0.00    +0.016 A 
ATOM      8  C   UNL     1      -4.413  -0.919   0.018  0.00  0.00    +0.038 A 
ATOM      9  C   UNL     1      -4.785   0.439   0.027  0.00  0.00    +0.075 A 
ATOM     10  C   UNL     1      -3.726   1.353   0.033  0.00  0.00    +0.036 A 
ATOM     11  C   UNL     1      -2.448   0.873   0.018  0.00  0.00    +0.075 A 
ATOM     12  S   UNL     1      -2.692  -0.894   0.011  0.00  0.00    -0.083 S 
ATOM     13  C   UNL     1      -6.241   0.707   0.035  0.00  0.00    +0.346 A 
ATOM     14  O   UNL     1      -6.637   1.857   0.042  0.00  0.00    -0.244 OA
ATOM     15  O   UNL     1      -7.131  -0.292   0.034  0.00  0.00    -0.422 OA
ENDROOT
BRANCH  11  16
ATOM     16  C   UNL     1      -1.187   1.624   0.017  0.00  0.00    +0.251 C 
ATOM     17  O   UNL     1      -1.204   2.841   0.023  0.00  0.00    -0.270 OA
ATOM     18  N   UNL     1      -0.011   0.966   0.007  0.00  0.00    -0.309 N 
ATOM     19  H   UNL     1       0.002  -0.004   0.002  0.00  0.00    +0.149 HD
BRANCH  18  20
ATOM     20  C   UNL     1       1.248   1.716  -0.001  0.00  0.00    +0.132 C 
BRANCH  20  21
ATOM     21  C   UNL     1       2.424   0.737  -0.017  0.00  0.00    +0.178 C 
BRANCH  21  22
ATOM     22  O   UNL     1       2.414   0.001  -1.242  0.00  0.00    -0.381 OA
ATOM     23  C   UNL     1       3.478  -0.946  -1.360  0.00  0.00    +0.194 C 
ENDBRANCH  21  22
ENDBRANCH  20  21
ENDBRANCH  18  20
ENDBRANCH  11  16
TORSDOF 4
