REMARK  Name = ZINC02840998
REMARK  9 active torsions:
REMARK  status: ('A' for Active; 'I' for Inactive)
REMARK    1  A    between atoms: C_1  and  C_2
REMARK    2  A    between atoms: C_2  and  C_4
REMARK    3  A    between atoms: C_2  and  N_24
REMARK    4  A    between atoms: C_7  and  S_10
REMARK    5  A    between atoms: N_8  and  C_9
REMARK    6  A    between atoms: S_10  and  C_11
REMARK    7  A    between atoms: C_11  and  C_12
REMARK    8  A    between atoms: N_14  and  C_15
REMARK    9  A    between atoms: C_25  and  C_27
REMARK                            x       y       z     vdW  Elec       q    Type
REMARK                         _______ _______ _______ _____ _____    ______ ____
ROOT
ATOM      1  C   UNL     1       6.761   9.510  -1.348  0.00  0.00    +0.154 A 
ATOM      2  N   UNL     1       7.132   8.324  -0.954  0.00  0.00    -0.132 NA
ATOM      3  N   UNL     1       6.104   7.568  -0.804  0.00  0.00    -0.122 NA
ATOM      4  C   UNL     1       5.013   8.233  -1.105  0.00  0.00    +0.192 A 
ATOM      5  N   UNL     1       5.398   9.495  -1.458  0.00  0.00    -0.308 N 
ATOM      6  C   UNL     1       4.532  10.602  -1.869  0.00  0.00    +0.152 C 
ENDROOT
BRANCH   1   8
ATOM      7  C   UNL     1       8.382  10.463  -2.964  0.00  0.00    +0.036 C 
ATOM      8  C   UNL     1       7.667  10.681  -1.629  0.00  0.00    +0.138 C 
BRANCH   8   9
ATOM      9  N   UNL     1       8.659  10.800  -0.557  0.00  0.00    -0.302 N 
ATOM     10  C   UNL     1       9.230  11.993  -0.298  0.00  0.00    +0.245 C 
ATOM     11  O   UNL     1       8.923  12.969  -0.954  0.00  0.00    -0.270 OA
ATOM     12  H   UNL     1       8.903  10.021  -0.035  0.00  0.00    +0.150 HD
BRANCH  10  13
ATOM     13  C   UNL     1      10.231  12.113   0.783  0.00  0.00    +0.037 A 
ATOM     14  C   UNL     1      10.582  10.995   1.542  0.00  0.00    +0.013 A 
ATOM     15  C   UNL     1      11.520  11.113   2.546  0.00  0.00    +0.001 A 
ATOM     16  C   UNL     1      12.105  12.339   2.810  0.00  0.00    +0.000 A 
ATOM     17  C   UNL     1      11.758  13.452   2.066  0.00  0.00    +0.001 A 
ATOM     18  C   UNL     1      10.825  13.347   1.055  0.00  0.00    +0.013 A 
ENDBRANCH  10  13
ENDBRANCH   8   9
ENDBRANCH   1   8
BRANCH   4  19
ATOM     19  S   UNL     1       3.363   7.617  -1.055  0.00  0.00    -0.077 S 
BRANCH  19  20
ATOM     20  C   UNL     1       3.677   5.920  -0.510  0.00  0.00    +0.173 C 
BRANCH  20  21
ATOM     21  C   UNL     1       2.370   5.180  -0.393  0.00  0.00    +0.228 C 
ATOM     22  O   UNL     1       1.328   5.744  -0.653  0.00  0.00    -0.275 OA
ATOM     23  N   UNL     1       2.358   3.890  -0.001  0.00  0.00    -0.282 N 
ATOM     24  H   UNL     1       3.182   3.461   0.277  0.00  0.00    +0.155 HD
BRANCH  23  25
ATOM     25  C   UNL     1       1.156   3.171   0.007  0.00  0.00    +0.071 A 
ATOM     26  C   UNL     1       0.749   2.485  -1.130  0.00  0.00    +0.065 A 
ATOM     27  C   UNL     1      -0.438   1.776  -1.120  0.00  0.00    +0.042 A 
ATOM     28  C   UNL     1      -1.223   1.755   0.019  0.00  0.00    +0.044 A 
ATOM     29  C   UNL     1      -0.818   2.433   1.155  0.00  0.00    +0.042 A 
ATOM     30  C   UNL     1       0.368   3.144   1.151  0.00  0.00    +0.065 A 
ATOM     31 CL   UNL     1       0.874   3.999   2.575  0.00  0.00    -0.082 Cl
ATOM     32 CL   UNL     1      -2.717   0.870   0.026  0.00  0.00    -0.083 Cl
ATOM     33 CL   UNL     1       1.729   2.517  -2.562  0.00  0.00    -0.082 Cl
ENDBRANCH  23  25
ENDBRANCH  20  21
ENDBRANCH  19  20
ENDBRANCH   4  19
TORSDOF 7
