REMARK  Name = ZINC08883650
REMARK  7 active torsions:
REMARK  status: ('A' for Active; 'I' for Inactive)
REMARK    1  A    between atoms: C_3  and  C_6
REMARK    2  A    between atoms: C_6  and  N_7
REMARK    3  A    between atoms: N_7  and  S_8
REMARK    4  A    between atoms: S_8  and  C_11
REMARK    5  A    between atoms: C_14  and  N_17
REMARK    6  A    between atoms: C_18  and  C_20
REMARK    7  A    between atoms: C_25  and  N_59
REMARK                            x       y       z     vdW  Elec       q    Type
REMARK                         _______ _______ _______ _____ _____    ______ ____
ROOT
ATOM      1  N   UNL     1      -3.216   4.705   4.499  0.00  0.00    -0.285 N 
ATOM      2  C   UNL     1      -3.203   3.417   4.104  0.00  0.00    +0.220 C 
ATOM      3  O   UNL     1      -3.665   2.557   4.825  0.00  0.00    -0.275 OA
ATOM      4  H   UNL     1      -2.922   5.401   3.891  0.00  0.00    +0.155 HD
ENDROOT
BRANCH   2   5
ATOM      5  C   UNL     1      -2.614   3.043   2.769  0.00  0.00    +0.072 C 
ATOM      6  C   UNL     1      -2.723   1.529   2.566  0.00  0.00    -0.006 C 
ATOM      7  C   UNL     1      -2.068   1.149   1.236  0.00  0.00    -0.078 C 
ATOM      8  C   UNL     1      -0.529   3.014   1.394  0.00  0.00    -0.078 C 
ATOM      9  C   UNL     1      -1.138   3.450   2.729  0.00  0.00    -0.006 C 
ATOM     10  N   UNL     1      -0.644   1.546   1.271  0.00  0.00    +0.383 N 
ATOM     11  H   UNL     1      -0.197   1.107   2.085  0.00  0.00    -0.081 HD
BRANCH  10  12
ATOM     12  C   UNL     1       0.037   1.087   0.043  0.00  0.00    -0.046 C 
ATOM     13  C   UNL     1       1.432   1.730  -0.024  0.00  0.00    +0.009 C 
ATOM     14  C   UNL     1       2.256   0.987  -1.114  0.00  0.00    +0.164 C 
ATOM     15  S   UNL     1       1.753  -0.755  -0.787  0.00  0.00    -0.033 S 
ATOM     16  O   UNL     1       2.682  -1.343   0.114  0.00  0.00    -0.174 OA
ATOM     17  O   UNL     1       1.478  -1.398  -2.025  0.00  0.00    -0.174 OA
ATOM     18  C   UNL     1       0.169  -0.455   0.097  0.00  0.00    +0.151 C 
ENDBRANCH  10  12
ENDBRANCH   2   5
BRANCH   1  22
ATOM     19  C   UNL     1      -4.521   5.699   8.328  0.00  0.00    +0.105 A 
ATOM     20  C   UNL     1      -3.836   4.516   8.118  0.00  0.00    +0.030 A 
ATOM     21  C   UNL     1      -3.403   4.184   6.850  0.00  0.00    +0.025 A 
ATOM     22  C   UNL     1      -3.655   5.039   5.785  0.00  0.00    +0.034 A 
ATOM     23  C   UNL     1      -4.338   6.229   6.000  0.00  0.00    +0.025 A 
ATOM     24  C   UNL     1      -4.773   6.553   7.270  0.00  0.00    +0.030 A 
BRANCH  19  25
ATOM     25  S   UNL     1      -5.071   6.120   9.948  0.00  0.00    +0.059 S 
ATOM     26  O   UNL     1      -6.162   7.017   9.786  0.00  0.00    -0.153 OA
ATOM     27  O   UNL     1      -5.188   4.901  10.668  0.00  0.00    -0.153 OA
BRANCH  25  28
ATOM     28  N   UNL     1      -3.855   6.981  10.671  0.00  0.00    -0.183 NA
ATOM     29  H   UNL     1      -3.398   6.618  11.445  0.00  0.00    +0.148 HD
BRANCH  28  30
ATOM     30  C   UNL     1      -3.469   8.291  10.140  0.00  0.00    +0.180 C 
BRANCH  30  33
ATOM     31  C   UNL     1      -0.918   9.785  12.341  0.00  0.00    +0.041 A 
ATOM     32  C   UNL     1      -1.287   8.956  11.257  0.00  0.00    +0.046 A 
ATOM     33  C   UNL     1      -2.627   9.017  11.157  0.00  0.00    +0.120 A 
ATOM     34  O   UNL     1      -3.086   9.839  12.114  0.00  0.00    -0.466 OA
ATOM     35  C   UNL     1      -2.055  10.303  12.839  0.00  0.00    +0.195 A 
ENDBRANCH  30  33
ENDBRANCH  28  30
ENDBRANCH  25  28
ENDBRANCH  19  25
ENDBRANCH   1  22
TORSDOF 7
