REMARK  Name = ZINC03945127
REMARK  3 active torsions:
REMARK  status: ('A' for Active; 'I' for Inactive)
REMARK    1  A    between atoms: C_3  and  C_17
REMARK    2  A    between atoms: C_6  and  C_7
REMARK    3  A    between atoms: N_8  and  N_9
REMARK                            x       y       z     vdW  Elec       q    Type
REMARK                         _______ _______ _______ _____ _____    ______ ____
ROOT
ATOM      1  C   UNL     1       2.543  -3.961  -0.141  0.00  0.00    +0.138 C 
ATOM      2  N   UNL     1       3.685  -4.571  -0.222  0.00  0.00    -0.187 NA
ENDROOT
BRANCH   2   3
ATOM      3  N   UNL     1       3.750  -5.870  -0.745  0.00  0.00    -0.204 N 
ATOM      4  C   UNL     1       4.932  -6.561  -0.716  0.00  0.00    +0.258 A 
ATOM      5  N   UNL     1       4.990  -7.824  -1.226  0.00  0.00    -0.172 NA
ATOM      6  C   UNL     1       6.170  -8.483  -1.185  0.00  0.00    +0.293 A 
ATOM      7  O   UNL     1       6.271  -9.617  -1.625  0.00  0.00    -0.264 OA
ATOM      8  C   UNL     1       7.282  -7.825  -0.615  0.00  0.00    +0.207 A 
ATOM      9  N   UNL     1       7.139  -6.608  -0.146  0.00  0.00    -0.149 NA
ATOM     10  N   UNL     1       6.009  -5.999  -0.195  0.00  0.00    -0.111 NA
ATOM     11  H   UNL     1       2.852  -6.333  -1.178  0.00  0.00    +0.177 HD
ENDBRANCH   2   3
BRANCH   1  17
ATOM     12  C   UNL     1       0.064  -4.096  -0.321  0.00  0.00    +0.010 A 
ATOM     13  C   UNL     1      -1.103  -4.831  -0.317  0.00  0.00    +0.013 A 
ATOM     14  C   UNL     1      -1.063  -6.200  -0.116  0.00  0.00    +0.055 A 
ATOM     15  C   UNL     1       0.148  -6.842   0.076  0.00  0.00    +0.013 A 
ATOM     16  C   UNL     1       1.323  -6.121   0.070  0.00  0.00    +0.010 A 
ATOM     17  C   UNL     1       1.290  -4.739  -0.133  0.00  0.00    -0.005 A 
BRANCH  14  18
ATOM     18  C   UNL     1      -2.343  -6.994  -0.107  0.00  0.00    +0.417 C 
ATOM     19  F   UNL     1      -2.847  -7.052   1.197  0.00  0.00    -0.166 F 
ATOM     20  F   UNL     1      -3.281  -6.378  -0.943  0.00  0.00    -0.166 F 
ATOM     21  F   UNL     1      -2.090  -8.291  -0.567  0.00  0.00    -0.166 F 
ENDBRANCH  14  18
ENDBRANCH   1  17
TORSDOF 3
