REMARK  Name = ZINC25656233
REMARK  7 active torsions:
REMARK  status: ('A' for Active; 'I' for Inactive)
REMARK    1  A    between atoms: C_3  and  C_6
REMARK    2  A    between atoms: C_8  and  C_11
REMARK    3  A    between atoms: C_11  and  C_12
REMARK    4  A    between atoms: N_14  and  C_15
REMARK    5  A    between atoms: C_18  and  N_21
REMARK    6  A    between atoms: N_24  and  C_25
REMARK    7  A    between atoms: C_25  and  C_26
REMARK                            x       y       z     vdW  Elec       q    Type
REMARK                         _______ _______ _______ _____ _____    ______ ____
ROOT
ATOM      1  C   UNL     1      -5.802   4.208   8.151  0.00  0.00    +0.034 A 
ATOM      2  C   UNL     1      -4.948   3.190   8.553  0.00  0.00    +0.025 A 
ATOM      3  C   UNL     1      -4.167   2.536   7.621  0.00  0.00    +0.025 A 
ATOM      4  C   UNL     1      -4.235   2.896   6.282  0.00  0.00    +0.035 A 
ATOM      5  C   UNL     1      -5.086   3.918   5.881  0.00  0.00    +0.025 A 
ATOM      6  C   UNL     1      -5.871   4.568   6.811  0.00  0.00    +0.025 A 
ENDROOT
BRANCH   4   7
ATOM      7  N   UNL     1      -3.442   2.233   5.337  0.00  0.00    -0.269 N 
ATOM      8  C   UNL     1      -3.184   0.918   5.478  0.00  0.00    +0.304 C 
ATOM      9  O   UNL     1      -3.568   0.325   6.468  0.00  0.00    -0.253 OA
ATOM     10  N   UNL     1      -2.499   0.259   4.521  0.00  0.00    -0.297 N 
ATOM     11  H   UNL     1      -3.030   2.785   4.479  0.00  0.00    +0.156 HD
ATOM     12  H   UNL     1      -2.152   0.795   3.626  0.00  0.00    +0.150 HD
BRANCH  10  13
ATOM     13  C   UNL     1      -2.219  -1.171   4.675  0.00  0.00    +0.137 C 
BRANCH  13  14
ATOM     14  C   UNL     1      -1.435  -1.670   3.459  0.00  0.00    +0.135 C 
ATOM     15  C   UNL     1      -1.127  -3.177   3.599  0.00  0.00    +0.035 C 
ATOM     16  C   UNL     1      -1.266  -3.724   2.161  0.00  0.00    +0.031 C 
ATOM     17  C   UNL     1      -1.642  -2.483   1.322  0.00  0.00    +0.160 C 
ATOM     18  O   UNL     1      -2.242  -1.566   2.263  0.00  0.00    -0.375 OA
ENDBRANCH  13  14
ENDBRANCH  10  13
ENDBRANCH   4   7
BRANCH   1  21
ATOM     19  C   UNL     1      -7.832   5.290   8.764  0.00  0.00    +0.223 C 
ATOM     20  O   UNL     1      -8.228   5.167   7.625  0.00  0.00    -0.275 OA
ATOM     21  N   UNL     1      -6.594   4.872   9.096  0.00  0.00    -0.285 N 
ATOM     22  H   UNL     1      -6.206   5.053  10.110  0.00  0.00    +0.155 HD
BRANCH  19  23
ATOM     23  C   UNL     1      -8.723   5.911   9.809  0.00  0.00    +0.152 C 
BRANCH  23  26
ATOM     24  C   UNL     1     -11.218   7.416   7.560  0.00  0.00    +0.144 A 
ATOM     25  N   UNL     1     -10.069   7.072   8.131  0.00  0.00    -0.240 NA
ATOM     26  C   UNL     1     -10.041   6.289   9.184  0.00  0.00    +0.058 A 
ATOM     27  C   UNL     1     -11.203   5.824   9.715  0.00  0.00    +0.071 A 
ATOM     28  S   UNL     1     -12.394   6.568   8.607  0.00  0.00    -0.072 S 
BRANCH  24  31
ATOM     29  C   UNL     1     -12.435   9.416   4.751  0.00  0.00    +0.042 A 
ATOM     30  C   UNL     1     -12.675   8.577   5.856  0.00  0.00    +0.052 A 
ATOM     31  C   UNL     1     -11.458   8.269   6.386  0.00  0.00    +0.160 A 
ATOM     32  O   UNL     1     -10.512   8.877   5.643  0.00  0.00    -0.461 OA
ATOM     33  C   UNL     1     -11.099   9.571   4.654  0.00  0.00    +0.196 A 
ENDBRANCH  24  31
ENDBRANCH  23  26
ENDBRANCH  19  23
ENDBRANCH   1  21
TORSDOF 7
