REMARK  Name = ZINC67470832
REMARK  7 active torsions:
REMARK  status: ('A' for Active; 'I' for Inactive)
REMARK    1  A    between atoms: C_1  and  C_2
REMARK    2  A    between atoms: C_2  and  C_3
REMARK    3  A    between atoms: C_2  and  C_4
REMARK    4  A    between atoms: N_14  and  C_15
REMARK    5  A    between atoms: C_15  and  C_16
REMARK    6  A    between atoms: C_15  and  C_17
REMARK    7  A    between atoms: C_15  and  C_18
REMARK                            x       y       z     vdW  Elec       q    Type
REMARK                         _______ _______ _______ _____ _____    ______ ____
ROOT
ATOM      1  C   UNL     1      -1.317  -0.516   0.192  0.00  0.00    +0.218 C 
ATOM      2  O   UNL     1      -2.243   0.232  -0.039  0.00  0.00    -0.275 OA
ATOM      3  N   UNL     1      -1.531  -1.843   0.292  0.00  0.00    -0.298 N 
ATOM      4  C   UNL     1      -0.443  -2.749   0.687  0.00  0.00    +0.127 C 
ATOM      5  C   UNL     1      -0.900  -3.561   1.905  0.00  0.00    +0.128 C 
ATOM      6  N   UNL     1      -2.226  -4.128   1.622  0.00  0.00    -0.283 N 
ATOM      7  C   UNL     1      -3.314  -3.222   1.227  0.00  0.00    +0.128 C 
ATOM      8  C   UNL     1      -2.858  -2.409   0.014  0.00  0.00    +0.127 C 
ATOM      9  C   UNL     1      -2.440  -5.455   1.722  0.00  0.00    +0.303 C 
ATOM     10  O   UNL     1      -1.512  -6.205   1.957  0.00  0.00    -0.253 OA
ATOM     11  N   UNL     1      -3.683  -5.951   1.560  0.00  0.00    -0.290 N 
ATOM     12  H   UNL     1      -4.409  -5.364   1.299  0.00  0.00    +0.151 HD
ENDROOT
BRANCH   1  14
ATOM     13  C   UNL     1       0.197   1.358  -0.396  0.00  0.00    +0.017 C 
ATOM     14  C   UNL     1       0.074   0.037   0.367  0.00  0.00    +0.069 C 
ATOM     15  C   UNL     1       0.342   0.281   1.854  0.00  0.00    +0.017 C 
ENDBRANCH   1  14
BRANCH  11  16
ATOM     16  C   UNL     1      -3.937  -7.377   1.780  0.00  0.00    +0.056 C 
ATOM     17  C   UNL     1      -3.146  -8.199   0.761  0.00  0.00    +0.036 C 
ATOM     18  C   UNL     1      -3.499  -7.761   3.195  0.00  0.00    +0.036 C 
BRANCH  16  19
ATOM     19  C   UNL     1      -5.409  -7.656   1.617  0.00  0.00    -0.025 A 
ATOM     20  C   UNL     1      -5.837  -8.922   1.264  0.00  0.00    +0.007 A 
ATOM     21  C   UNL     1      -7.187  -9.179   1.114  0.00  0.00    +0.020 A 
ATOM     22  C   UNL     1      -8.110  -8.168   1.317  0.00  0.00    +0.041 A 
ATOM     23  C   UNL     1      -7.680  -6.901   1.670  0.00  0.00    +0.020 A 
ATOM     24  C   UNL     1      -6.331  -6.647   1.825  0.00  0.00    +0.007 A 
ATOM     25 CL   UNL     1      -9.805  -8.489   1.128  0.00  0.00    -0.084 Cl
ENDBRANCH  16  19
ENDBRANCH  11  16
TORSDOF 3
