REMARK  Name = ZINC02793575
REMARK  9 active torsions:
REMARK  status: ('A' for Active; 'I' for Inactive)
REMARK    1  A    between atoms: C_1  and  C_2
REMARK    2  A    between atoms: C_2  and  C_3
REMARK    3  A    between atoms: C_8  and  N_9
REMARK    4  A    between atoms: N_9  and  C_10
REMARK    5  A    between atoms: C_10  and  N_12
REMARK    6  A    between atoms: N_12  and  N_13
REMARK    7  A    between atoms: C_14  and  C_16
REMARK    8  A    between atoms: C_19  and  C_21
REMARK    9  A    between atoms: C_24  and  C_27
REMARK                            x       y       z     vdW  Elec       q    Type
REMARK                         _______ _______ _______ _____ _____    ______ ____
ROOT
ATOM      1  N   UNL     1      -0.849   4.401   3.519  0.00  0.00    -0.246 N 
ATOM      2  H   UNL     1      -0.937   5.232   3.026  0.00  0.00    +0.172 HD
ENDROOT
BRANCH   1   3
ATOM      3  N   UNL     1      -0.737   3.186   2.830  0.00  0.00    -0.235 N 
ATOM      4  C   UNL     1      -0.751   3.171   1.483  0.00  0.00    +0.233 C 
ATOM      5  O   UNL     1      -0.861   4.210   0.866  0.00  0.00    -0.274 OA
ATOM      6  H   UNL     1      -0.649   2.356   3.324  0.00  0.00    +0.173 HD
BRANCH   4   7
ATOM      7  C   UNL     1      -0.630   1.864   0.742  0.00  0.00    +0.084 C 
ATOM      8  C   UNL     1       0.655   1.618  -0.050  0.00  0.00    +0.022 C 
ATOM      9  C   UNL     1      -0.653   1.914  -0.787  0.00  0.00    +0.032 C 
BRANCH   9  10
ATOM     10  C   UNL     1      -1.317   0.772  -1.512  0.00  0.00    -0.044 A 
ATOM     11  C   UNL     1      -0.842  -0.516  -1.354  0.00  0.00    +0.004 A 
ATOM     12  C   UNL     1      -1.455  -1.565  -2.015  0.00  0.00    +0.003 A 
ATOM     13  C   UNL     1      -2.536  -1.323  -2.841  0.00  0.00    -0.050 A 
ATOM     14  C   UNL     1      -3.008  -0.034  -3.003  0.00  0.00    +0.003 A 
ATOM     15  C   UNL     1      -2.398   1.014  -2.339  0.00  0.00    +0.004 A 
ATOM     16  C   UNL     1      -3.202  -2.465  -3.565  0.00  0.00    +0.044 C 
ENDBRANCH   9  10
ENDBRANCH   4   7
ENDBRANCH   1   3
BRANCH   1  17
ATOM     17  C   UNL     1      -0.835   4.416   4.866  0.00  0.00    +0.151 C 
ATOM     18  S   UNL     1      -0.973   5.901   5.708  0.00  0.00    -0.017 S 
BRANCH  17  19
ATOM     19  N   UNL     1      -0.713   3.262   5.552  0.00  0.00    -0.296 N 
ATOM     20  H   UNL     1      -0.715   2.415   5.079  0.00  0.00    +0.154 HD
BRANCH  19  26
ATOM     21  C   UNL     1      -1.307   2.395   7.726  0.00  0.00    -0.026 A 
ATOM     22  C   UNL     1      -1.176   2.421   9.101  0.00  0.00    +0.005 A 
ATOM     23  C   UNL     1      -0.326   3.333   9.699  0.00  0.00    +0.000 A 
ATOM     24  C   UNL     1       0.397   4.221   8.923  0.00  0.00    +0.002 A 
ATOM     25  C   UNL     1       0.275   4.197   7.548  0.00  0.00    +0.023 A 
ATOM     26  C   UNL     1      -0.583   3.286   6.944  0.00  0.00    +0.036 A 
BRANCH  21  28
ATOM     27  C   UNL     1      -1.439   0.161   6.658  0.00  0.00    +0.009 C 
ATOM     28  C   UNL     1      -2.233   1.401   7.075  0.00  0.00    +0.033 C 
ENDBRANCH  21  28
ENDBRANCH  19  26
ENDBRANCH  17  19
ENDBRANCH   1  17
TORSDOF 7
