REMARK  Name = ZINC21075601
REMARK  9 active torsions:
REMARK  status: ('A' for Active; 'I' for Inactive)
REMARK    1  A    between atoms: C_3  and  N_13
REMARK    2  A    between atoms: C_5  and  N_7
REMARK    3  A    between atoms: C_14  and  C_16
REMARK    4  A    between atoms: C_16  and  C_17
REMARK    5  A    between atoms: C_17  and  S_18
REMARK    6  A    between atoms: S_18  and  C_19
REMARK    7  A    between atoms: N_24  and  N_25
REMARK    8  A    between atoms: C_26  and  C_27
REMARK    9  A    between atoms: C_29  and  N_34
REMARK                            x       y       z     vdW  Elec       q    Type
REMARK                         _______ _______ _______ _____ _____    ______ ____
ROOT
ATOM      1  C   UNL     1       1.388  -0.308   0.627  0.00  0.00    +0.210 A 
ATOM      2  N   UNL     1       0.079   0.068   0.731  0.00  0.00    -0.186 NA
ATOM      3  C   UNL     1       0.087   1.428   0.922  0.00  0.00    +0.232 A 
ATOM      4  N   UNL     1       1.373   1.824   0.927  0.00  0.00    -0.245 N 
ATOM      5  N   UNL     1       2.138   0.805   0.754  0.00  0.00    -0.144 NA
ATOM      6  N   UNL     1      -0.985   2.214   1.069  0.00  0.00    -0.205 N 
ATOM      7  H   UNL     1      -1.995   1.778   1.043  0.00  0.00    +0.177 HD
ATOM      8  H   UNL     1       1.621   2.887   1.067  0.00  0.00    +0.192 HD
ENDROOT
BRANCH   6   9
ATOM      9  N   UNL     1      -0.835   3.483   1.242  0.00  0.00    -0.187 NA
ATOM     10  C   UNL     1      -1.892   4.258   1.388  0.00  0.00    +0.142 C 
BRANCH  10  11
ATOM     11  C   UNL     1      -1.727   5.652   1.578  0.00  0.00    +0.043 A 
ATOM     12  C   UNL     1      -2.850   6.484   1.733  0.00  0.00    +0.046 A 
ATOM     13  C   UNL     1      -2.683   7.826   1.916  0.00  0.00    +0.127 A 
ATOM     14  C   UNL     1      -1.411   8.381   1.950  0.00  0.00    +0.036 A 
ATOM     15  C   UNL     1      -0.292   7.585   1.800  0.00  0.00    +0.054 A 
ATOM     16  C   UNL     1      -0.433   6.218   1.618  0.00  0.00    +0.188 A 
ATOM     17  O   UNL     1       0.661   5.431   1.476  0.00  0.00    -0.287 OA
BRANCH  13  18
ATOM     18  N   UNL     1      -3.869   8.697   2.079  0.00  0.00    +0.056 N 
ATOM     19  O   UNL     1      -5.078   8.175   2.048  0.00  0.00    -0.126 OA
ATOM     20  O   UNL     1      -3.715   9.992   2.256  0.00  0.00    -0.126 OA
ENDBRANCH  13  18
ENDBRANCH  10  11
ENDBRANCH   6   9
BRANCH   1  21
ATOM     21  S   UNL     1       1.970  -1.899   0.381  0.00  0.00    -0.084 S 
BRANCH  21  22
ATOM     22  C   UNL     1       3.752  -1.582   0.355  0.00  0.00    +0.086 C 
BRANCH  22  23
ATOM     23  C   UNL     1       4.501  -2.899   0.141  0.00  0.00    +0.107 C 
BRANCH  23  25
ATOM     24  N   UNL     1       6.848  -3.655  -0.058  0.00  0.00    -0.285 N 
ATOM     25  C   UNL     1       5.984  -2.635   0.120  0.00  0.00    +0.218 C 
ATOM     26  O   UNL     1       6.401  -1.505   0.263  0.00  0.00    -0.275 OA
ATOM     27  H   UNL     1       6.476  -4.689  -0.100  0.00  0.00    +0.155 HD
BRANCH  24  30
ATOM     28  C   UNL     1      10.002  -1.976  -0.934  0.00  0.00    +0.004 A 
ATOM     29  C   UNL     1       8.649  -2.233  -0.810  0.00  0.00    +0.023 A 
ATOM     30  C   UNL     1       8.217  -3.397  -0.188  0.00  0.00    +0.035 A 
ATOM     31  C   UNL     1       9.144  -4.308   0.299  0.00  0.00    +0.046 A 
ATOM     32  C   UNL     1      10.501  -4.050   0.168  0.00  0.00    +0.038 A 
ATOM     33  C   UNL     1      10.927  -2.881  -0.451  0.00  0.00    +0.023 A 
BRANCH  32  34
ATOM     34  N   UNL     1      11.439  -4.965   0.657  0.00  0.00    -0.271 N 
ATOM     35  C   UNL     1      12.888  -4.735   0.677  0.00  0.00    +0.114 C 
ATOM     36  C   UNL     1      13.524  -6.129   0.876  0.00  0.00    +0.029 C 
ATOM     37  C   UNL     1      12.386  -6.896   1.590  0.00  0.00    +0.098 C 
ATOM     38  C   UNL     1      11.128  -6.167   1.174  0.00  0.00    +0.220 C 
ATOM     39  O   UNL     1      10.002  -6.603   1.288  0.00  0.00    -0.275 OA
ENDBRANCH  32  34
ENDBRANCH  24  30
ENDBRANCH  23  25
ENDBRANCH  22  23
ENDBRANCH  21  22
ENDBRANCH   1  21
TORSDOF 9
