REMARK  Name = ZINC09298317
REMARK  7 active torsions:
REMARK  status: ('A' for Active; 'I' for Inactive)
REMARK    1  A    between atoms: C_1  and  C_2
REMARK    2  A    between atoms: C_2  and  O_3
REMARK    3  A    between atoms: O_3  and  C_4
REMARK    4  A    between atoms: C_7  and  C_9
REMARK    5  A    between atoms: C_13  and  N_14
REMARK    6  A    between atoms: C_15  and  C_17
REMARK    7  A    between atoms: C_29  and  C_33
REMARK                            x       y       z     vdW  Elec       q    Type
REMARK                         _______ _______ _______ _____ _____    ______ ____
ROOT
ATOM      1  C   UNL     1       5.601  -3.707  -0.273  0.00  0.00    +0.069 A 
ATOM      2  C   UNL     1       6.929  -4.066   0.193  0.00  0.00    -0.023 A 
ATOM      3  C   UNL     1       7.599  -3.084   0.834  0.00  0.00    -0.004 A 
ATOM      4  S   UNL     1       6.497  -1.699   0.820  0.00  0.00    -0.077 S 
ATOM      5  C   UNL     1       5.159  -2.415  -0.018  0.00  0.00    +0.085 A 
ATOM      6  C   UNL     1       8.976  -3.163   1.419  0.00  0.00    +0.046 C 
ATOM      7  C   UNL     1       9.670  -4.412   0.857  0.00  0.00    -0.009 C 
ATOM      8  C   UNL     1       8.714  -5.603   0.977  0.00  0.00    +0.008 C 
ATOM      9  C   UNL     1       7.555  -5.441  -0.008  0.00  0.00    +0.037 C 
ATOM     10  C   UNL     1      10.944  -4.695   1.655  0.00  0.00    +0.008 C 
ENDROOT
BRANCH   1  14
ATOM     11  C   UNL     1       3.143  -6.356  -0.950  0.00  0.00    +0.407 C 
ATOM     12  O   UNL     1       3.201  -6.436  -2.161  0.00  0.00    -0.226 OA
ATOM     13  N   UNL     1       3.918  -5.469  -0.296  0.00  0.00    -0.217 N 
ATOM     14  C   UNL     1       4.758  -4.671  -0.984  0.00  0.00    +0.255 C 
ATOM     15  O   UNL     1       4.816  -4.751  -2.197  0.00  0.00    -0.270 OA
ATOM     16  H   UNL     1       3.872  -5.405   0.671  0.00  0.00    +0.161 HD
BRANCH  11  17
ATOM     17  O   UNL     1       2.305  -7.154  -0.263  0.00  0.00    -0.450 OA
BRANCH  17  19
ATOM     18  C   UNL     1       0.617  -8.900  -0.087  0.00  0.00    +0.048 C 
ATOM     19  C   UNL     1       1.500  -8.085  -1.033  0.00  0.00    +0.230 C 
ENDBRANCH  17  19
ENDBRANCH  11  17
ENDBRANCH   1  14
BRANCH   5  20
ATOM     20  N   UNL     1       3.946  -1.837  -0.356  0.00  0.00    -0.276 N 
ATOM     21  C   UNL     1       3.693  -0.556  -0.021  0.00  0.00    +0.262 C 
ATOM     22  O   UNL     1       4.527   0.090   0.577  0.00  0.00    -0.271 OA
ATOM     23  H   UNL     1       3.279  -2.354  -0.834  0.00  0.00    +0.155 HD
BRANCH  21  24
ATOM     24  C   UNL     1       2.373   0.072  -0.388  0.00  0.00    +0.296 C 
ATOM     25  C   UNL     1       1.236  -0.633   0.363  0.00  0.00    +0.283 C 
ATOM     26  O   UNL     1       0.002  -0.004   0.002  0.00  0.00    -0.484 OA
ATOM     27  C   UNL     1      -0.016   1.357   0.009  0.00  0.00    +0.162 A 
ATOM     28  C   UNL     1      -1.234   2.021   0.019  0.00  0.00    +0.049 A 
ATOM     29  C   UNL     1      -1.269   3.403   0.030  0.00  0.00    +0.004 A 
ATOM     30  C   UNL     1      -0.091   4.126   0.019  0.00  0.00    +0.004 A 
ATOM     31  C   UNL     1       1.126   3.471   0.006  0.00  0.00    +0.049 A 
ATOM     32  C   UNL     1       1.168   2.084   0.002  0.00  0.00    +0.163 A 
ATOM     33  O   UNL     1       2.373   1.453  -0.008  0.00  0.00    -0.473 OA
ENDBRANCH  21  24
ENDBRANCH   5  20
TORSDOF 5
