REMARK  Name = ZINC67341791
REMARK  10 active torsions:
REMARK  status: ('A' for Active; 'I' for Inactive)
REMARK    1  A    between atoms: C_1  and  C_2
REMARK    2  A    between atoms: C_2  and  O_3
REMARK    3  A    between atoms: O_3  and  C_4
REMARK    4  A    between atoms: C_4  and  C_6
REMARK    5  A    between atoms: C_10  and  N_11
REMARK    6  A    between atoms: N_14  and  C_15
REMARK    7  A    between atoms: C_20  and  C_21
REMARK    8  A    between atoms: C_29  and  O_31
REMARK    9  A    between atoms: O_31  and  C_32
REMARK   10  A    between atoms: C_32  and  C_33
REMARK                            x       y       z     vdW  Elec       q    Type
REMARK                         _______ _______ _______ _____ _____    ______ ____
ROOT
ATOM      1  C   UNL     1       1.454  -2.313  -2.526  0.00  0.00    +0.091 A 
ATOM      2  C   UNL     1       2.882  -2.586  -2.525  0.00  0.00    -0.018 A 
ATOM      3  C   UNL     1       3.344  -3.097  -3.686  0.00  0.00    +0.013 A 
ATOM      4  S   UNL     1       1.923  -3.201  -4.733  0.00  0.00    -0.076 S 
ATOM      5  C   UNL     1       0.753  -2.604  -3.687  0.00  0.00    +0.088 A 
ATOM      6  C   UNL     1       4.759  -3.487  -3.992  0.00  0.00    +0.153 C 
ATOM      7  N   UNL     1       5.596  -2.989  -2.882  0.00  0.00    -0.262 N 
ATOM      8  C   UNL     1       5.082  -3.154  -1.514  0.00  0.00    +0.116 C 
ATOM      9  C   UNL     1       3.804  -2.328  -1.343  0.00  0.00    +0.056 C 
ATOM     10  C   UNL     1       6.788  -2.405  -3.114  0.00  0.00    +0.403 C 
ATOM     11  O   UNL     1       7.459  -2.003  -2.184  0.00  0.00    -0.226 OA
ENDROOT
BRANCH   5  12
ATOM     12  N   UNL     1      -0.602  -2.439  -3.929  0.00  0.00    -0.263 N 
ATOM     13  C   UNL     1      -1.119  -2.778  -5.126  0.00  0.00    +0.309 C 
ATOM     14  O   UNL     1      -0.397  -3.229  -5.994  0.00  0.00    -0.252 OA
ATOM     15  N   UNL     1      -2.436  -2.617  -5.362  0.00  0.00    -0.269 N 
ATOM     16  H   UNL     1      -1.177  -2.079  -3.236  0.00  0.00    +0.157 HD
ATOM     17  H   UNL     1      -3.026  -2.334  -4.645  0.00  0.00    +0.156 HD
BRANCH  15  18
ATOM     18  C   UNL     1      -2.953  -2.857  -6.640  0.00  0.00    +0.046 A 
ATOM     19  C   UNL     1      -2.130  -2.753  -7.754  0.00  0.00    +0.024 A 
ATOM     20  C   UNL     1      -2.643  -2.991  -9.014  0.00  0.00    +0.002 A 
ATOM     21  C   UNL     1      -3.975  -3.332  -9.167  0.00  0.00    +0.001 A 
ATOM     22  C   UNL     1      -4.797  -3.435  -8.059  0.00  0.00    +0.014 A 
ATOM     23  C   UNL     1      -4.288  -3.205  -6.796  0.00  0.00    +0.076 A 
BRANCH  23  24
ATOM     24  C   UNL     1      -5.182  -3.325  -5.589  0.00  0.00    +0.419 C 
ATOM     25  F   UNL     1      -6.471  -3.684  -5.998  0.00  0.00    -0.166 F 
ATOM     26  F   UNL     1      -4.676  -4.306  -4.729  0.00  0.00    -0.166 F 
ATOM     27  F   UNL     1      -5.230  -2.098  -4.920  0.00  0.00    -0.166 F 
ENDBRANCH  23  24
ENDBRANCH  15  18
ENDBRANCH   5  12
BRANCH   1  28
ATOM     28  C   UNL     1       0.783  -1.758  -1.349  0.00  0.00    +0.342 C 
ATOM     29  O   UNL     1       0.321  -2.503  -0.505  0.00  0.00    -0.245 OA
BRANCH  28  30
ATOM     30  O   UNL     1       0.676  -0.422  -1.200  0.00  0.00    -0.461 OA
BRANCH  30  32
ATOM     31  C   UNL     1      -0.013   1.579  -0.034  0.00  0.00    +0.048 C 
ATOM     32  C   UNL     1       0.009   0.049  -0.028  0.00  0.00    +0.229 C 
ENDBRANCH  30  32
ENDBRANCH  28  30
ENDBRANCH   1  28
BRANCH  10  33
ATOM     33  O   UNL     1       7.236  -2.267  -4.376  0.00  0.00    -0.451 OA
BRANCH  33  34
ATOM     34  C   UNL     1       8.508  -1.639  -4.548  0.00  0.00    +0.230 C 
ATOM     35  C   UNL     1       8.845  -1.571  -6.039  0.00  0.00    +0.048 C 
ENDBRANCH  33  34
ENDBRANCH  10  33
TORSDOF 8
