REMARK  Name = ZINC08604342
REMARK  11 active torsions:
REMARK  status: ('A' for Active; 'I' for Inactive)
REMARK    1  A    between atoms: C_1  and  O_2
REMARK    2  A    between atoms: O_2  and  C_3
REMARK    3  A    between atoms: C_6  and  O_36
REMARK    4  A    between atoms: C_7  and  C_9
REMARK    5  A    between atoms: C_9  and  C_10
REMARK    6  A    between atoms: C_10  and  N_11
REMARK    7  A    between atoms: C_12  and  C_14
REMARK    8  A    between atoms: C_14  and  N_15
REMARK    9  A    between atoms: C_18  and  S_26
REMARK   10  A    between atoms: S_26  and  N_29
REMARK   11  A    between atoms: O_36  and  C_37
REMARK                            x       y       z     vdW  Elec       q    Type
REMARK                         _______ _______ _______ _____ _____    ______ ____
ROOT
ATOM      1  N   UNL     1       5.118  -8.701  -0.873  0.00  0.00    -0.256 N 
ATOM      2  C   UNL     1       6.239  -8.850  -1.702  0.00  0.00    +0.081 A 
ATOM      3  C   UNL     1       6.273  -8.265  -2.957  0.00  0.00    +0.055 A 
ATOM      4  C   UNL     1       7.388  -8.424  -3.760  0.00  0.00    +0.107 A 
ATOM      5  C   UNL     1       8.467  -9.164  -3.313  0.00  0.00    +0.032 A 
ATOM      6  C   UNL     1       8.440  -9.749  -2.060  0.00  0.00    +0.049 A 
ATOM      7  C   UNL     1       7.328  -9.594  -1.250  0.00  0.00    +0.143 A 
ATOM      8  O   UNL     1       7.285 -10.159  -0.015  0.00  0.00    -0.481 OA
ATOM      9  C   UNL     1       6.560  -9.449   0.993  0.00  0.00    +0.325 C 
ATOM     10  C   UNL     1       5.232  -8.996   0.441  0.00  0.00    +0.258 C 
ATOM     11  O   UNL     1       4.269  -8.901   1.172  0.00  0.00    -0.271 OA
ENDROOT
BRANCH   4  12
ATOM     12  S   UNL     1       7.433  -7.683  -5.358  0.00  0.00    +0.061 S 
ATOM     13  O   UNL     1       8.361  -8.434  -6.128  0.00  0.00    -0.153 OA
ATOM     14  O   UNL     1       6.082  -7.500  -5.759  0.00  0.00    -0.153 OA
BRANCH  12  15
ATOM     15  N   UNL     1       8.081  -6.170  -5.177  0.00  0.00    -0.177 NA
ATOM     16  C   UNL     1       7.192  -5.062  -4.908  0.00  0.00    +0.109 C 
ATOM     17  C   UNL     1       6.714  -4.443  -6.245  0.00  0.00    +0.017 C 
ATOM     18  C   UNL     1       7.817  -3.720  -6.896  0.00  0.00    +0.001 C 
ATOM     19  C   UNL     1       8.999  -4.600  -7.289  0.00  0.00    +0.001 C 
ATOM     20  C   UNL     1       9.923  -4.754  -6.106  0.00  0.00    +0.017 C 
ATOM     21  C   UNL     1       9.544  -6.009  -5.292  0.00  0.00    +0.109 C 
ENDBRANCH  12  15
ENDBRANCH   4  12
BRANCH   1  22
ATOM     22  C   UNL     1       3.845  -8.229  -1.421  0.00  0.00    +0.209 C 
BRANCH  22  24
ATOM     23  N   UNL     1       2.705  -6.064  -1.790  0.00  0.00    -0.314 N 
ATOM     24  C   UNL     1       3.791  -6.725  -1.341  0.00  0.00    +0.231 C 
ATOM     25  O   UNL     1       4.724  -6.109  -0.872  0.00  0.00    -0.274 OA
ATOM     26  H   UNL     1       1.959  -6.557  -2.165  0.00  0.00    +0.149 HD
BRANCH  23  27
ATOM     27  C   UNL     1       2.653  -4.602  -1.713  0.00  0.00    +0.109 C 
BRANCH  27  28
ATOM     28  C   UNL     1       1.323  -4.108  -2.285  0.00  0.00    +0.057 C 
BRANCH  28  33
ATOM     29  C   UNL     1       0.606  -0.608  -1.056  0.00  0.00    +0.121 A 
ATOM     30  C   UNL     1       1.173   0.161  -2.062  0.00  0.00    +0.049 A 
ATOM     31  C   UNL     1       1.786  -0.452  -3.138  0.00  0.00    +0.049 A 
ATOM     32  C   UNL     1       1.835  -1.836  -3.211  0.00  0.00    +0.124 A 
ATOM     33  C   UNL     1       1.269  -2.604  -2.205  0.00  0.00    -0.001 A 
ATOM     34  C   UNL     1       0.661  -1.991  -1.127  0.00  0.00    +0.053 A 
BRANCH  29  36
ATOM     35  C   UNL     1      -0.017   1.425   0.010  0.00  0.00    +0.277 C 
ATOM     36  O   UNL     1       0.002  -0.004   0.002  0.00  0.00    -0.495 OA
ENDBRANCH  29  36
BRANCH  32  37
ATOM     37  O   UNL     1       2.439  -2.439  -4.270  0.00  0.00    -0.495 OA
ATOM     38  C   UNL     1       3.000  -1.586  -5.269  0.00  0.00    +0.277 C 
ENDBRANCH  32  37
ENDBRANCH  28  33
ENDBRANCH  27  28
ENDBRANCH  23  27
ENDBRANCH  22  24
ENDBRANCH   1  22
TORSDOF 9
