REMARK  Name = ZINC02457860
REMARK  9 active torsions:
REMARK  status: ('A' for Active; 'I' for Inactive)
REMARK    1  A    between atoms: C_1  and  C_2
REMARK    2  A    between atoms: C_2  and  C_3
REMARK    3  A    between atoms: C_6  and  N_9
REMARK    4  A    between atoms: C_19  and  C_20
REMARK    5  A    between atoms: C_19  and  O_28
REMARK    6  A    between atoms: N_22  and  C_23
REMARK    7  A    between atoms: C_23  and  C_25
REMARK    8  A    between atoms: C_23  and  C_26
REMARK    9  A    between atoms: C_26  and  C_27
REMARK                            x       y       z     vdW  Elec       q    Type
REMARK                         _______ _______ _______ _____ _____    ______ ____
ROOT
ATOM      1  N   UNL     1      -1.533   5.769  -0.618  0.00  0.00    -0.214 N 
ATOM      2  C   UNL     1      -0.499   6.513  -0.186  0.00  0.00    +0.314 C 
ATOM      3  O   UNL     1      -0.515   6.919   0.960  0.00  0.00    -0.252 OA
ATOM      4  N   UNL     1       0.547   6.828  -0.961  0.00  0.00    -0.269 N 
ATOM      5  C   UNL     1       0.661   6.414  -2.288  0.00  0.00    +0.043 A 
ATOM      6  C   UNL     1       1.767   6.769  -3.050  0.00  0.00    +0.025 A 
ATOM      7  C   UNL     1       1.861   6.350  -4.362  0.00  0.00    +0.017 A 
ATOM      8  C   UNL     1       0.858   5.579  -4.924  0.00  0.00    +0.018 A 
ATOM      9  C   UNL     1      -0.247   5.223  -4.168  0.00  0.00    +0.025 A 
ATOM     10  C   UNL     1      -0.342   5.639  -2.860  0.00  0.00    +0.034 A 
ATOM     11  C   UNL     1      -1.532   5.272  -2.004  0.00  0.00    +0.247 C 
ATOM     12 BR   UNL     1       0.997   5.011  -6.722  0.00  0.00    -0.050 Br
ATOM     13  H   UNL     1       1.258   7.367  -0.581  0.00  0.00    +0.156 HD
ENDROOT
BRANCH   1  17
ATOM     14  C   UNL     1      -4.705   4.891   1.937  0.00  0.00    -0.048 A 
ATOM     15  C   UNL     1      -3.440   4.404   2.214  0.00  0.00    +0.005 A 
ATOM     16  C   UNL     1      -2.387   4.694   1.369  0.00  0.00    +0.024 A 
ATOM     17  C   UNL     1      -2.599   5.474   0.240  0.00  0.00    +0.041 A 
ATOM     18  C   UNL     1      -3.869   5.965  -0.033  0.00  0.00    +0.024 A 
ATOM     19  C   UNL     1      -4.919   5.667   0.814  0.00  0.00    +0.005 A 
BRANCH  14  21
ATOM     20  C   UNL     1      -5.951   5.653   3.941  0.00  0.00    +0.009 C 
ATOM     21  C   UNL     1      -5.852   4.573   2.862  0.00  0.00    +0.032 C 
ENDBRANCH  14  21
ENDBRANCH   1  17
BRANCH  11  22
ATOM     22  C   UNL     1      -1.626   3.769  -1.958  0.00  0.00    +0.269 C 
ATOM     23  O   UNL     1      -2.547   3.201  -2.507  0.00  0.00    -0.270 OA
ATOM     24  N   UNL     1      -0.687   3.054  -1.307  0.00  0.00    -0.309 N 
ATOM     25  H   UNL     1       0.050   3.508  -0.868  0.00  0.00    +0.149 HD
BRANCH  24  26
ATOM     26  C   UNL     1      -0.778   1.593  -1.263  0.00  0.00    +0.070 C 
ATOM     27  C   UNL     1      -0.142   1.004  -2.524  0.00  0.00    +0.028 C 
BRANCH  26  28
ATOM     28  C   UNL     1      -0.038   1.073  -0.028  0.00  0.00    +0.018 C 
ATOM     29  C   UNL     1      -0.749   1.561   1.235  0.00  0.00    +0.005 C 
ENDBRANCH  26  28
ENDBRANCH  24  26
ENDBRANCH  11  22
BRANCH  11  30
ATOM     30  O   UNL     1      -2.708   5.764  -2.650  0.00  0.00    -0.360 OA
ATOM     31  H   UNL     1      -2.824   5.442  -3.554  0.00  0.00    +0.213 HD
ENDBRANCH  11  30
TORSDOF 6
