REMARK  Name = ZINC01346743
REMARK  6 active torsions:
REMARK  status: ('A' for Active; 'I' for Inactive)
REMARK    1  A    between atoms: C_1  and  C_2
REMARK    2  A    between atoms: C_12  and  C_14
REMARK    3  A    between atoms: C_14  and  N_15
REMARK    4  A    between atoms: N_15  and  C_16
REMARK    5  A    between atoms: C_16  and  C_17
REMARK    6  A    between atoms: C_22  and  C_24
REMARK                            x       y       z     vdW  Elec       q    Type
REMARK                         _______ _______ _______ _____ _____    ______ ____
ROOT
ATOM      1  N   UNL     1       2.769   7.728  -0.085  0.00  0.00    -0.285 N 
ATOM      2  C   UNL     1       3.152   6.473   0.226  0.00  0.00    +0.255 C 
ATOM      3  O   UNL     1       4.335   6.200   0.303  0.00  0.00    -0.269 OA
ENDROOT
BRANCH   2   4
ATOM      4  C   UNL     1       2.142   5.436   0.470  0.00  0.00    +0.093 A 
ATOM      5  C   UNL     1       2.327   4.103   0.672  0.00  0.00    +0.068 A 
ATOM      6  C   UNL     1       1.216   3.267   0.892  0.00  0.00    +0.008 A 
ATOM      7  C   UNL     1       1.203   1.867   1.121  0.00  0.00    +0.010 A 
ATOM      8  C   UNL     1       0.034   1.206   1.317  0.00  0.00    +0.001 A 
ATOM      9  C   UNL     1      -1.189   1.867   1.298  0.00  0.00    +0.001 A 
ATOM     10  C   UNL     1      -1.221   3.230   1.086  0.00  0.00    +0.016 A 
ATOM     11  C   UNL     1      -0.041   3.914   0.884  0.00  0.00    +0.021 A 
ATOM     12  S   UNL     1       0.370   5.614   0.577  0.00  0.00    -0.082 S 
ATOM     13 CL   UNL     1       3.929   3.436   0.657  0.00  0.00    -0.082 Cl
ENDBRANCH   2   4
BRANCH   1  14
ATOM     14  C   UNL     1       3.773   8.734  -0.437  0.00  0.00    +0.149 C 
BRANCH  14  26
ATOM     15  C   UNL     1       5.756   7.532  -6.588  0.00  0.00    +0.046 C 
ATOM     16  C   UNL     1       4.765   8.525  -6.038  0.00  0.00    -0.026 A 
ATOM     17  C   UNL     1       4.099   9.382  -6.888  0.00  0.00    +0.005 A 
ATOM     18  C   UNL     1       3.184  10.301  -6.394  0.00  0.00    +0.001 A 
ATOM     19  C   UNL     1       2.925  10.373  -5.055  0.00  0.00    +0.010 A 
ATOM     20  C   UNL     1       3.589   9.514  -4.173  0.00  0.00    -0.001 A 
ATOM     21  C   UNL     1       4.519   8.581  -4.670  0.00  0.00    +0.052 A 
ATOM     22  N   UNL     1       5.171   7.737  -3.796  0.00  0.00    -0.322 N 
ATOM     23  H   UNL     1       5.811   7.095  -4.141  0.00  0.00    +0.169 HD
ATOM     24  C   UNL     1       4.932   7.791  -2.474  0.00  0.00    +0.254 A 
ATOM     25  O   UNL     1       5.526   7.029  -1.732  0.00  0.00    -0.268 OA
ATOM     26  C   UNL     1       4.010   8.708  -1.925  0.00  0.00    +0.035 A 
ATOM     27  C   UNL     1       3.333   9.562  -2.732  0.00  0.00    +0.020 A 
ENDBRANCH  14  26
ENDBRANCH   1  14
BRANCH   1  28
ATOM     28  C   UNL     1       1.348   8.084  -0.070  0.00  0.00    +0.182 C 
BRANCH  28  29
ATOM     29  C   UNL     1       0.934   8.438   1.335  0.00  0.00    +0.122 A 
ATOM     30  C   UNL     1       0.977   9.666   1.882  0.00  0.00    +0.046 A 
ATOM     31  C   UNL     1       0.500   9.541   3.207  0.00  0.00    +0.041 A 
ATOM     32  C   UNL     1       0.194   8.244   3.390  0.00  0.00    +0.195 A 
ATOM     33  O   UNL     1       0.453   7.582   2.251  0.00  0.00    -0.466 OA
ENDBRANCH  28  29
ENDBRANCH   1  28
TORSDOF 5
