REMARK  Name = ZINC15002544
REMARK  9 active torsions:
REMARK  status: ('A' for Active; 'I' for Inactive)
REMARK    1  A    between atoms: C_1  and  C_2
REMARK    2  A    between atoms: C_4  and  C_34
REMARK    3  A    between atoms: C_6  and  C_8
REMARK    4  A    between atoms: C_8  and  N_67
REMARK    5  A    between atoms: C_11  and  C_14
REMARK    6  A    between atoms: C_14  and  C_28
REMARK    7  A    between atoms: N_17  and  C_21
REMARK    8  A    between atoms: C_21  and  C_22
REMARK    9  A    between atoms: C_22  and  C_23
REMARK                            x       y       z     vdW  Elec       q    Type
REMARK                         _______ _______ _______ _____ _____    ______ ____
ROOT
ATOM      1  C   UNL     1       2.906   8.880   1.463  0.00  0.00    +0.157 C 
ATOM      2  C   UNL     1       1.697   9.763   1.704  0.00  0.00    +0.253 C 
ATOM      3  O   UNL     1       0.718   9.873   0.997  0.00  0.00    -0.272 OA
ATOM      4  N   UNL     1       1.937  10.400   2.866  0.00  0.00    -0.224 N 
ATOM      5  C   UNL     1       3.114  10.042   3.392  0.00  0.00    +0.310 C 
ATOM      6  O   UNL     1       3.548  10.479   4.439  0.00  0.00    -0.252 OA
ATOM      7  N   UNL     1       3.764   9.143   2.631  0.00  0.00    -0.280 N 
ATOM      8  H   UNL     1       4.629   8.744   2.815  0.00  0.00    +0.152 HD
ENDROOT
BRANCH   1  11
ATOM      9  C   UNL     1       4.611  11.173  -1.117  0.00  0.00    -0.078 C 
ATOM     10  C   UNL     1       3.841  10.791   0.149  0.00  0.00    -0.012 C 
ATOM     11  C   UNL     1       3.621   9.276   0.169  0.00  0.00    +0.024 C 
ATOM     12  C   UNL     1       4.977   8.569   0.098  0.00  0.00    -0.012 C 
ATOM     13  C   UNL     1       5.714   9.016  -1.167  0.00  0.00    -0.078 C 
ATOM     14  N   UNL     1       5.916  10.480  -1.113  0.00  0.00    +0.382 N 
ATOM     15  H   UNL     1       6.416  10.715  -0.248  0.00  0.00    -0.081 HD
BRANCH  14  16
ATOM     16  C   UNL     1       6.725  10.920  -2.269  0.00  0.00    -0.043 C 
BRANCH  16  22
ATOM     17  C   UNL     1      11.405  11.378  -0.557  0.00  0.00    +0.044 C 
ATOM     18  C   UNL     1      10.360  10.590  -1.303  0.00  0.00    -0.050 A 
ATOM     19  C   UNL     1      10.681   9.363  -1.853  0.00  0.00    +0.006 A 
ATOM     20  C   UNL     1       9.722   8.640  -2.537  0.00  0.00    -0.050 A 
ATOM     21  C   UNL     1       8.442   9.144  -2.672  0.00  0.00    +0.005 A 
ATOM     22  C   UNL     1       8.121  10.370  -2.122  0.00  0.00    -0.063 A 
ATOM     23  C   UNL     1       9.081  11.096  -1.441  0.00  0.00    +0.005 A 
ATOM     24  C   UNL     1      10.073   7.303  -3.137  0.00  0.00    +0.044 C 
ENDBRANCH  16  22
ENDBRANCH  14  16
ENDBRANCH   1  11
BRANCH   1  25
ATOM     25  C   UNL     1       2.498   7.430   1.419  0.00  0.00    +0.074 A 
ATOM     26  C   UNL     1       1.905   6.854   2.526  0.00  0.00    +0.026 A 
ATOM     27  C   UNL     1       1.533   5.519   2.476  0.00  0.00    +0.003 A 
ATOM     28  C   UNL     1       1.774   4.811   1.308  0.00  0.00    +0.020 A 
ATOM     29  C   UNL     1       2.372   5.454   0.241  0.00  0.00    +0.111 A 
ATOM     30  N   UNL     1       2.707   6.727   0.323  0.00  0.00    -0.257 NA
ENDBRANCH   1  25
BRANCH   4  31
ATOM     31  C   UNL     1       1.020  11.363   3.482  0.00  0.00    +0.123 C 
BRANCH  31  32
ATOM     32  C   UNL     1       1.347  12.771   2.981  0.00  0.00    +0.062 C 
BRANCH  32  33
ATOM     33  C   UNL     1       0.403  13.761   3.615  0.00  0.00    -0.009 A 
ATOM     34  C   UNL     1       0.541  14.450   4.773  0.00  0.00    +0.011 A 
ATOM     35  C   UNL     1      -0.462  15.319   5.160  0.00  0.00    +0.008 A 
ATOM     36  C   UNL     1      -1.559  15.448   4.374  0.00  0.00    +0.045 A 
ATOM     37  S   UNL     1      -1.186  14.330   3.033  0.00  0.00    -0.102 S 
ENDBRANCH  32  33
ENDBRANCH  31  32
ENDBRANCH   4  31
TORSDOF 7
