REMARK  Name = ZINC09962723
REMARK  12 active torsions:
REMARK  status: ('A' for Active; 'I' for Inactive)
REMARK    1  A    between atoms: C_1  and  C_2
REMARK    2  A    between atoms: C_2  and  O_3
REMARK    3  A    between atoms: O_3  and  C_4
REMARK    4  A    between atoms: C_4  and  C_6
REMARK    5  A    between atoms: C_7  and  C_15
REMARK    6  A    between atoms: C_12  and  C_14
REMARK    7  A    between atoms: C_15  and  S_16
REMARK    8  A    between atoms: S_16  and  C_17
REMARK    9  A    between atoms: C_20  and  C_30
REMARK   10  A    between atoms: N_21  and  C_22
REMARK   11  A    between atoms: C_27  and  O_28
REMARK   12  A    between atoms: O_28  and  C_29
REMARK                            x       y       z     vdW  Elec       q    Type
REMARK                         _______ _______ _______ _____ _____    ______ ____
ROOT
ATOM      1  C   UNL     1       1.683  -0.023   0.240  0.00  0.00    +0.197 A 
ATOM      2  N   UNL     1       2.464   1.022   0.092  0.00  0.00    -0.122 NA
ATOM      3  N   UNL     1       1.772   2.104   0.141  0.00  0.00    -0.127 NA
ATOM      4  C   UNL     1       0.501   1.817   0.324  0.00  0.00    +0.176 A 
ATOM      5  N   UNL     1       0.405   0.443   0.393  0.00  0.00    -0.266 N 
ENDROOT
BRANCH   5   6
ATOM      6  C   UNL     1      -0.760  -0.317   0.581  0.00  0.00    +0.092 A 
ATOM      7  C   UNL     1      -1.497  -0.743  -0.515  0.00  0.00    +0.030 A 
ATOM      8  C   UNL     1      -2.643  -1.492  -0.327  0.00  0.00    +0.002 A 
ATOM      9  C   UNL     1      -3.057  -1.820   0.950  0.00  0.00    +0.004 A 
ATOM     10  C   UNL     1      -2.328  -1.399   2.047  0.00  0.00    +0.048 A 
ATOM     11  C   UNL     1      -1.175  -0.652   1.867  0.00  0.00    +0.144 A 
BRANCH  11  12
ATOM     12  O   UNL     1      -0.454  -0.242   2.944  0.00  0.00    -0.493 OA
ATOM     13  C   UNL     1      -0.939  -0.623   4.233  0.00  0.00    +0.277 C 
ENDBRANCH  11  12
ENDBRANCH   5   6
BRANCH   4  14
ATOM     14  C   UNL     1      -0.607   2.779   0.428  0.00  0.00    +0.057 A 
ATOM     15  C   UNL     1      -0.560   4.132   0.650  0.00  0.00    +0.019 A 
ATOM     16  C   UNL     1      -1.743   4.834   0.705  0.00  0.00    +0.008 A 
ATOM     17  C   UNL     1      -2.916   4.168   0.549  0.00  0.00    +0.046 A 
ATOM     18  S   UNL     1      -2.365   2.488   0.306  0.00  0.00    -0.094 S 
ENDBRANCH   4  14
BRANCH   1  19
ATOM     19  S   UNL     1       2.186  -1.712   0.242  0.00  0.00    -0.080 S 
BRANCH  19  20
ATOM     20  C   UNL     1       3.968  -1.509  -0.006  0.00  0.00    +0.128 C 
BRANCH  20  22
ATOM     21  C   UNL     1       5.031  -3.377  -1.221  0.00  0.00    +0.074 C 
ATOM     22  C   UNL     1       4.628  -2.863  -0.039  0.00  0.00    +0.034 C 
ATOM     23  N   UNL     1       4.814  -3.548   1.128  0.00  0.00    -0.272 N 
ATOM     24  C   UNL     1       5.385  -4.757   1.196  0.00  0.00    +0.304 C 
ATOM     25  O   UNL     1       5.503  -5.292   2.281  0.00  0.00    -0.253 OA
ATOM     26  N   UNL     1       5.839  -5.399   0.101  0.00  0.00    -0.292 N 
ATOM     27  C   UNL     1       5.691  -4.741  -1.208  0.00  0.00    +0.110 C 
ATOM     28  C   UNL     1       7.084  -4.597  -1.824  0.00  0.00    +0.033 C 
ATOM     29  H   UNL     1       4.512  -3.138   1.953  0.00  0.00    +0.156 HD
ATOM     30  H   UNL     1       6.253  -6.273   0.173  0.00  0.00    +0.151 HD
BRANCH  21  31
ATOM     31  C   UNL     1       4.843  -2.667  -2.429  0.00  0.00    +0.338 C 
ATOM     32  O   UNL     1       3.923  -2.958  -3.170  0.00  0.00    -0.245 OA
BRANCH  31  33
ATOM     33  O   UNL     1       5.685  -1.665  -2.761  0.00  0.00    -0.462 OA
BRANCH  33  35
ATOM     34  C   UNL     1       6.485   0.105  -4.199  0.00  0.00    +0.048 C 
ATOM     35  C   UNL     1       5.436  -0.991  -3.996  0.00  0.00    +0.229 C 
ENDBRANCH  33  35
ENDBRANCH  31  33
ENDBRANCH  21  31
ENDBRANCH  20  22
ENDBRANCH  19  20
ENDBRANCH   1  19
TORSDOF 9
