REMARK  Name = ZINC39469976
REMARK  9 active torsions:
REMARK  status: ('A' for Active; 'I' for Inactive)
REMARK    1  A    between atoms: C_1  and  C_2
REMARK    2  A    between atoms: C_2  and  O_3
REMARK    3  A    between atoms: O_3  and  C_4
REMARK    4  A    between atoms: P_13  and  S_29
REMARK    5  A    between atoms: C_21  and  C_22
REMARK    6  A    between atoms: C_22  and  C_23
REMARK    7  A    between atoms: S_29  and  C_32
REMARK    8  A    between atoms: C_32  and  C_33
REMARK    9  A    between atoms: C_32  and  C_34
REMARK                            x       y       z     vdW  Elec       q    Type
REMARK                         _______ _______ _______ _____ _____    ______ ____
ROOT
ATOM      1  C   UNL     1      -1.498  -1.848   0.006  0.00  0.00    +0.120 C 
ATOM      2  C   UNL     1      -0.430  -2.650  -0.003  0.00  0.00    +0.023 C 
ATOM      3  C   UNL     1      -0.625  -4.148   0.003  0.00  0.00    +0.025 C 
ATOM      4  C   UNL     1      -0.904  -4.611  -1.428  0.00  0.00    +0.031 C 
ATOM      5  C   UNL     1      -1.225  -6.109  -1.457  0.00  0.00    +0.100 C 
ATOM      6  C   UNL     1      -1.509  -6.481  -2.918  0.00  0.00    +0.191 C 
ATOM      7  O   UNL     1      -1.788  -7.889  -3.014  0.00  0.00    -0.299 OA
ATOM      8  P   UNL     1      -2.906  -8.510  -2.009  0.00  0.00    +0.419 P 
ATOM      9  O   UNL     1      -2.706  -9.969  -1.857  0.00  0.00    -0.246 OA
ATOM     10  N   UNL     1      -2.665  -7.746  -0.566  0.00  0.00    -0.161 NA
ATOM     11  N   UNL     1      -2.379  -6.396  -0.600  0.00  0.00    -0.228 NA
ATOM     12  C   UNL     1      -2.141  -5.971   0.790  0.00  0.00    +0.111 C 
ATOM     13  C   UNL     1      -1.831  -4.482   0.885  0.00  0.00    +0.034 C 
ATOM     14  C   UNL     1      -3.023  -3.684   0.432  0.00  0.00    -0.014 C 
ATOM     15  C   UNL     1      -2.853  -2.434   0.016  0.00  0.00    -0.005 C 
ATOM     16  H   UNL     1      -2.724  -8.228   0.273  0.00  0.00    +0.152 HD
ENDROOT
BRANCH   8  17
ATOM     17  S   UNL     1      -4.855  -8.110  -2.740  0.00  0.00    +0.058 S 
ATOM     18  O   UNL     1      -5.726  -8.777  -1.837  0.00  0.00    -0.164 OA
ATOM     19  O   UNL     1      -4.905  -6.697  -2.885  0.00  0.00    -0.164 OA
BRANCH  17  20
ATOM     20  C   UNL     1      -4.915  -8.907  -4.369  0.00  0.00    +0.136 C 
ATOM     21  C   UNL     1      -4.667 -10.409  -4.211  0.00  0.00    +0.032 C 
ATOM     22  C   UNL     1      -6.291  -8.681  -4.997  0.00  0.00    +0.032 C 
ENDBRANCH  17  20
ENDBRANCH   8  17
BRANCH   1  23
ATOM     23  O   UNL     1      -1.339  -0.499   0.012  0.00  0.00    -0.492 OA
BRANCH  23  25
ATOM     24  C   UNL     1      -0.019   1.526   0.010  0.00  0.00    +0.048 C 
ATOM     25  C   UNL     1       0.002  -0.004   0.002  0.00  0.00    +0.225 C 
ENDBRANCH  23  25
ENDBRANCH   1  23
BRANCH  15  26
ATOM     26  C   UNL     1      -4.035  -1.623  -0.447  0.00  0.00    +0.073 C 
BRANCH  26  27
ATOM     27  C   UNL     1      -4.549  -0.785   0.696  0.00  0.00    -0.043 A 
ATOM     28  C   UNL     1      -5.516  -1.291   1.544  0.00  0.00    +0.004 A 
ATOM     29  C   UNL     1      -5.987  -0.523   2.592  0.00  0.00    +0.000 A 
ATOM     30  C   UNL     1      -5.490   0.751   2.792  0.00  0.00    +0.000 A 
ATOM     31  C   UNL     1      -4.523   1.258   1.945  0.00  0.00    +0.000 A 
ATOM     32  C   UNL     1      -4.048   0.488   0.899  0.00  0.00    +0.004 A 
ENDBRANCH  26  27
ENDBRANCH  15  26
TORSDOF 6
