REMARK  Name = ZINC38180216
REMARK  14 active torsions:
REMARK  status: ('A' for Active; 'I' for Inactive)
REMARK    1  A    between atoms: C_1  and  C_2
REMARK    2  A    between atoms: C_2  and  C_3
REMARK    3  A    between atoms: C_3  and  N_4
REMARK    4  A    between atoms: N_8  and  N_9
REMARK    5  A    between atoms: C_10  and  C_12
REMARK    6  A    between atoms: C_12  and  C_13
REMARK    7  A    between atoms: C_13  and  C_14
REMARK    8  A    between atoms: C_14  and  C_15
REMARK    9  A    between atoms: N_17  and  N_18
REMARK   10  A    between atoms: N_22  and  C_30
REMARK   11  A    between atoms: C_26  and  C_29
REMARK   12  A    between atoms: C_30  and  C_31
REMARK   13  A    between atoms: C_31  and  C_32
REMARK   14  A    between atoms: C_37  and  C_39
REMARK                            x       y       z     vdW  Elec       q    Type
REMARK                         _______ _______ _______ _____ _____    ______ ____
ROOT
ATOM      1  C   UNL     1       2.321  -9.954   0.474  0.00  0.00    +0.018 C 
ENDROOT
BRANCH   1   2
ATOM      2  C   UNL     1       1.266  -8.923   0.068  0.00  0.00    +0.098 C 
BRANCH   2   4
ATOM      3  N   UNL     1       1.091  -6.462  -0.114  0.00  0.00    -0.206 N 
ATOM      4  C   UNL     1       1.845  -7.537   0.193  0.00  0.00    +0.232 C 
ATOM      5  O   UNL     1       2.988  -7.388   0.569  0.00  0.00    -0.274 OA
ATOM      6  H   UNL     1       0.177  -6.581  -0.415  0.00  0.00    +0.177 HD
BRANCH   3  11
ATOM      7  N   UNL     1       0.174  -1.964  -0.430  0.00  0.00    -0.266 N 
ATOM      8  C   UNL     1       1.275  -2.708  -0.226  0.00  0.00    +0.271 C 
ATOM      9  O   UNL     1       2.410  -2.287  -0.099  0.00  0.00    -0.268 OA
ATOM     10  C   UNL     1       0.863  -4.125  -0.180  0.00  0.00    +0.153 C 
ATOM     11  N   UNL     1       1.629  -5.174   0.001  0.00  0.00    -0.175 NA
ATOM     12  C   UNL     1      -0.604  -4.104  -0.383  0.00  0.00    +0.029 A 
ATOM     13  C   UNL     1      -0.964  -2.757  -0.524  0.00  0.00    +0.046 A 
ATOM     14  C   UNL     1      -2.301  -2.433  -0.724  0.00  0.00    +0.024 A 
ATOM     15  C   UNL     1      -3.255  -3.430  -0.777  0.00  0.00    +0.005 A 
ATOM     16  C   UNL     1      -2.896  -4.759  -0.634  0.00  0.00    -0.050 A 
ATOM     17  C   UNL     1      -1.571  -5.100  -0.444  0.00  0.00    +0.015 A 
ATOM     18  C   UNL     1      -3.950  -5.834  -0.694  0.00  0.00    +0.044 C 
BRANCH   7  19
ATOM     19  C   UNL     1       0.173  -0.503  -0.536  0.00  0.00    +0.114 C 
BRANCH  19  21
ATOM     20  C   UNL     1      -0.017   1.634   0.744  0.00  0.00    +0.005 C 
ATOM     21  C   UNL     1      -0.015   0.108   0.854  0.00  0.00    +0.016 C 
ENDBRANCH  19  21
ENDBRANCH   7  19
ENDBRANCH   3  11
ENDBRANCH   2   4
ENDBRANCH   1   2
BRANCH   1  22
ATOM     22  C   UNL     1       1.734 -11.361   0.348  0.00  0.00    +0.098 C 
BRANCH  22  23
ATOM     23  C   UNL     1       2.773 -12.377   0.747  0.00  0.00    +0.232 C 
ATOM     24  O   UNL     1       3.874 -12.011   1.099  0.00  0.00    -0.274 OA
ATOM     25  N   UNL     1       2.478 -13.692   0.714  0.00  0.00    -0.206 N 
ATOM     26  H   UNL     1       1.596 -13.984   0.433  0.00  0.00    +0.177 HD
BRANCH  25  27
ATOM     27  N   UNL     1       3.444 -14.636   1.086  0.00  0.00    -0.175 NA
ATOM     28  C   UNL     1       3.199 -15.915   0.940  0.00  0.00    +0.153 C 
ATOM     29  C   UNL     1       4.032 -17.048   1.396  0.00  0.00    +0.271 C 
ATOM     30  O   UNL     1       5.091 -16.965   1.988  0.00  0.00    -0.268 OA
ATOM     31  N   UNL     1       3.410 -18.185   1.041  0.00  0.00    -0.266 N 
ATOM     32  C   UNL     1       2.216 -17.927   0.377  0.00  0.00    +0.046 A 
ATOM     33  C   UNL     1       2.026 -16.541   0.288  0.00  0.00    +0.029 A 
ATOM     34  C   UNL     1       0.893 -16.026  -0.331  0.00  0.00    +0.015 A 
ATOM     35  C   UNL     1      -0.051 -16.885  -0.858  0.00  0.00    -0.050 A 
ATOM     36  C   UNL     1       0.132 -18.254  -0.770  0.00  0.00    +0.005 A 
ATOM     37  C   UNL     1       1.258 -18.776  -0.164  0.00  0.00    +0.024 A 
ATOM     38  C   UNL     1      -1.281 -16.331  -1.530  0.00  0.00    +0.044 C 
BRANCH  31  39
ATOM     39  C   UNL     1       3.926 -19.528   1.318  0.00  0.00    +0.114 C 
BRANCH  39  40
ATOM     40  C   UNL     1       3.403 -20.006   2.674  0.00  0.00    +0.016 C 
ATOM     41  C   UNL     1       3.942 -21.408   2.963  0.00  0.00    +0.005 C 
ENDBRANCH  39  40
ENDBRANCH  31  39
ENDBRANCH  25  27
ENDBRANCH  22  23
ENDBRANCH   1  22
TORSDOF 10
