REMARK  Name = ZINC09481406
REMARK  7 active torsions:
REMARK  status: ('A' for Active; 'I' for Inactive)
REMARK    1  A    between atoms: C_1  and  C_2
REMARK    2  A    between atoms: C_2  and  C_3
REMARK    3  A    between atoms: C_6  and  C_9
REMARK    4  A    between atoms: C_12  and  S_15
REMARK    5  A    between atoms: S_15  and  C_16
REMARK    6  A    between atoms: C_16  and  C_17
REMARK    7  A    between atoms: N_21  and  C_22
REMARK                            x       y       z     vdW  Elec       q    Type
REMARK                         _______ _______ _______ _____ _____    ______ ____
ROOT
ATOM      1  C   UNL     1       2.788  -1.912   4.668  0.00  0.00    +0.182 A 
ATOM      2  N   UNL     1       2.224  -2.191   5.852  0.00  0.00    -0.201 NA
ATOM      3  H   UNL     1       5.196  -2.850   6.417  0.00  0.00    +0.191 HD
ATOM      4  C   UNL     1       3.147  -2.604   6.694  0.00  0.00    +0.185 A 
ATOM      5  N   UNL     1       4.335  -2.596   6.050  0.00  0.00    -0.253 N 
ATOM      6  N   UNL     1       4.077  -2.151   4.743  0.00  0.00    -0.152 NA
ENDROOT
BRANCH   1  10
ATOM      7  C   UNL     1       0.731  -0.503   1.223  0.00  0.00    -0.048 A 
ATOM      8  C   UNL     1       2.098  -0.709   1.173  0.00  0.00    +0.004 A 
ATOM      9  C   UNL     1       2.771  -1.166   2.288  0.00  0.00    +0.012 A 
ATOM     10  C   UNL     1       2.070  -1.420   3.466  0.00  0.00    +0.021 A 
ATOM     11  C   UNL     1       0.693  -1.212   3.510  0.00  0.00    +0.012 A 
ATOM     12  C   UNL     1       0.031  -0.749   2.391  0.00  0.00    +0.004 A 
BRANCH   7  14
ATOM     13  C   UNL     1      -0.019   1.526   0.010  0.00  0.00    +0.009 C 
ATOM     14  C   UNL     1       0.002  -0.004   0.002  0.00  0.00    +0.032 C 
ENDBRANCH   7  14
ENDBRANCH   1  10
BRANCH   4  15
ATOM     15  S   UNL     1       2.880  -3.084   8.368  0.00  0.00    -0.079 S 
BRANCH  15  16
ATOM     16  C   UNL     1       1.095  -2.869   8.607  0.00  0.00    +0.155 C 
BRANCH  16  17
ATOM     17  C   UNL     1       0.728  -3.251  10.018  0.00  0.00    +0.167 A 
ATOM     18  N   UNL     1       0.383  -4.441  10.435  0.00  0.00    -0.112 NA
ATOM     19  N   UNL     1       0.134  -4.425  11.695  0.00  0.00    -0.023 NA
ATOM     20  N   UNL     1       0.299  -3.237  12.167  0.00  0.00    -0.039 NA
ATOM     21  N   UNL     1       0.699  -2.427  11.089  0.00  0.00    -0.196 N 
BRANCH  21  22
ATOM     22  C   UNL     1       1.000  -1.058  11.118  0.00  0.00    +0.069 A 
ATOM     23  C   UNL     1       1.994  -0.546  10.294  0.00  0.00    +0.028 A 
ATOM     24  C   UNL     1       2.288   0.803  10.325  0.00  0.00    +0.002 A 
ATOM     25  C   UNL     1       1.595   1.644  11.176  0.00  0.00    +0.000 A 
ATOM     26  C   UNL     1       0.605   1.137  11.998  0.00  0.00    +0.002 A 
ATOM     27  C   UNL     1       0.302  -0.210  11.967  0.00  0.00    +0.028 A 
ENDBRANCH  21  22
ENDBRANCH  16  17
ENDBRANCH  15  16
ENDBRANCH   4  15
TORSDOF 6
