REMARK  Name = ZINC01183006
REMARK  3 active torsions:
REMARK  status: ('A' for Active; 'I' for Inactive)
REMARK    1  A    between atoms: C_6  and  C_7
REMARK    2  A    between atoms: C_10  and  C_13
REMARK    3  A    between atoms: C_18  and  O_19
REMARK                            x       y       z     vdW  Elec       q    Type
REMARK                         _______ _______ _______ _____ _____    ______ ____
ROOT
ATOM      1  C   UNL     1      -1.293  -0.775   0.010  0.00  0.00    +0.125 C 
ATOM      2  C   UNL     1      -1.617  -1.306  -1.400  0.00  0.00    +0.086 C 
ATOM      3  C   UNL     1      -1.634  -2.808  -1.229  0.00  0.00    +0.072 C 
ATOM      4  N   UNL     1      -1.379  -3.104  -0.002  0.00  0.00    -0.190 NA
ATOM      5  N   UNL     1      -1.163  -1.996   0.821  0.00  0.00    -0.261 N 
ATOM      6  H   UNL     1      -0.961  -2.025   1.769  0.00  0.00    +0.169 HD
ENDROOT
BRANCH   1  12
ATOM      7  C   UNL     1      -0.017   1.378   0.010  0.00  0.00    +0.006 A 
ATOM      8  C   UNL     1       1.171   2.086   0.002  0.00  0.00    +0.015 A 
ATOM      9  C   UNL     1       2.378   1.411  -0.013  0.00  0.00    +0.018 A 
ATOM     10  C   UNL     1       2.396   0.027  -0.021  0.00  0.00    +0.015 A 
ATOM     11  C   UNL     1       1.208  -0.679  -0.013  0.00  0.00    +0.006 A 
ATOM     12  C   UNL     1       0.002  -0.004   0.002  0.00  0.00    -0.025 A 
ATOM     13 BR   UNL     1       4.003   2.378  -0.024  0.00  0.00    -0.050 Br
ENDBRANCH   1  12
BRANCH   3  14
ATOM     14  C   UNL     1      -1.901  -3.784  -2.302  0.00  0.00    +0.041 A 
ATOM     15  C   UNL     1      -2.160  -3.344  -3.602  0.00  0.00    +0.033 A 
ATOM     16  C   UNL     1      -2.409  -4.263  -4.601  0.00  0.00    +0.042 A 
ATOM     17  C   UNL     1      -2.403  -5.619  -4.320  0.00  0.00    +0.023 A 
ATOM     18  C   UNL     1      -2.148  -6.065  -3.037  0.00  0.00    +0.047 A 
ATOM     19  C   UNL     1      -1.890  -5.157  -2.024  0.00  0.00    +0.126 A 
ATOM     20 CL   UNL     1      -2.731  -3.716  -6.217  0.00  0.00    -0.084 Cl
BRANCH  19  21
ATOM     21  O   UNL     1      -1.633  -5.595  -0.764  0.00  0.00    -0.506 OA
ATOM     22  H   UNL     1      -2.422  -5.691  -0.212  0.00  0.00    +0.292 HD
ENDBRANCH  19  21
ENDBRANCH   3  14
TORSDOF 3
