REMARK  Name = ZINC39630680
REMARK  12 active torsions:
REMARK  status: ('A' for Active; 'I' for Inactive)
REMARK    1  A    between atoms: C_1  and  C_2
REMARK    2  A    between atoms: C_2  and  C_3
REMARK    3  A    between atoms: C_2  and  C_4
REMARK    4  A    between atoms: C_2  and  C_32
REMARK    5  A    between atoms: C_4  and  N_5
REMARK    6  A    between atoms: C_6  and  C_8
REMARK    7  A    between atoms: C_19  and  C_21
REMARK    8  A    between atoms: C_24  and  O_27
REMARK    9  A    between atoms: O_27  and  C_28
REMARK   10  A    between atoms: C_32  and  N_33
REMARK   11  A    between atoms: N_33  and  C_34
REMARK   12  A    between atoms: N_33  and  C_35
REMARK                            x       y       z     vdW  Elec       q    Type
REMARK                         _______ _______ _______ _____ _____    ______ ____
ROOT
ATOM      1  C   UNL     1      -5.479  -0.271   2.115  0.00  0.00    +0.100 C 
ATOM      2  C   UNL     1      -5.304  -0.402   3.645  0.00  0.00    +0.121 C 
ATOM      3  N   UNL     1      -6.680  -0.580   4.165  0.00  0.00    -0.296 N 
ATOM      4  C   UNL     1      -7.338  -1.462   3.172  0.00  0.00    +0.115 C 
ATOM      5  C   UNL     1      -6.815  -0.968   1.809  0.00  0.00    -0.004 C 
ATOM      6  C   UNL     1      -7.799   0.022   1.193  0.00  0.00    -0.010 C 
ATOM      7  C   UNL     1      -9.099  -0.708   0.846  0.00  0.00    -0.082 C 
ATOM      8  N   UNL     1      -8.815  -1.796  -0.097  0.00  0.00    +0.379 N 
ATOM      9  C   UNL     1      -7.941  -2.792   0.536  0.00  0.00    -0.082 C 
ATOM     10  C   UNL     1      -6.592  -2.150   0.871  0.00  0.00    -0.010 C 
ATOM     11  C   UNL     1      -7.213  -0.057   5.287  0.00  0.00    +0.247 C 
ATOM     12  O   UNL     1      -6.576   0.741   5.948  0.00  0.00    -0.270 OA
ATOM     13  H   UNL     1      -9.680  -2.237  -0.372  0.00  0.00    -0.086 HD
ATOM     14  H   UNL     1      -8.357  -1.421  -0.914  0.00  0.00    -0.086 HD
ENDROOT
BRANCH  11  15
ATOM     15  C   UNL     1      -8.569  -0.453   5.715  0.00  0.00    +0.037 A 
ATOM     16  C   UNL     1      -9.127  -1.649   5.255  0.00  0.00    +0.016 A 
ATOM     17  C   UNL     1     -10.392  -2.016   5.656  0.00  0.00    +0.047 A 
ATOM     18  C   UNL     1     -11.114  -1.198   6.517  0.00  0.00    +0.130 A 
ATOM     19  C   UNL     1     -10.563  -0.007   6.976  0.00  0.00    +0.047 A 
ATOM     20  C   UNL     1      -9.296   0.364   6.584  0.00  0.00    +0.016 A 
BRANCH  18  21
ATOM     21  O   UNL     1     -12.361  -1.562   6.909  0.00  0.00    -0.406 OA
BRANCH  21  22
ATOM     22  C   UNL     1     -13.048  -0.674   7.795  0.00  0.00    +0.575 C 
ATOM     23  F   UNL     1     -13.197   0.574   7.181  0.00  0.00    -0.133 F 
ATOM     24  F   UNL     1     -14.309  -1.200   8.095  0.00  0.00    -0.133 F 
ATOM     25  F   UNL     1     -12.310  -0.529   8.974  0.00  0.00    -0.133 F 
ENDBRANCH  21  22
ENDBRANCH  18  21
ENDBRANCH  11  15
BRANCH   1  27
ATOM     26  N   UNL     1      -3.984  -0.555   0.165  0.00  0.00    -0.315 N 
ATOM     27  C   UNL     1      -4.349  -0.963   1.397  0.00  0.00    +0.218 C 
ATOM     28  O   UNL     1      -3.768  -1.886   1.927  0.00  0.00    -0.275 OA
ATOM     29  H   UNL     1      -4.448   0.183  -0.259  0.00  0.00    +0.149 HD
BRANCH  26  30
ATOM     30  C   UNL     1      -2.886  -1.228  -0.533  0.00  0.00    +0.108 C 
BRANCH  30  32
ATOM     31  C   UNL     1      -3.958  -0.701  -2.727  0.00  0.00    +0.010 C 
ATOM     32  C   UNL     1      -2.676  -0.576  -1.902  0.00  0.00    -0.034 C 
ATOM     33  C   UNL     1      -2.332   0.903  -1.715  0.00  0.00    +0.010 C 
BRANCH  32  34
ATOM     34  C   UNL     1      -1.530  -1.279  -2.631  0.00  0.00    -0.072 C 
BRANCH  34  35
ATOM     35  N   UNL     1      -1.335  -0.659  -3.949  0.00  0.00    +0.376 N 
ATOM     36  C   UNL     1      -0.445   0.502  -3.818  0.00  0.00    -0.097 C 
ATOM     37  C   UNL     1      -0.733  -1.637  -4.865  0.00  0.00    -0.097 C 
ATOM     38  H   UNL     1      -2.227  -0.360  -4.315  0.00  0.00    -0.083 HD
ENDBRANCH  34  35
ENDBRANCH  32  34
ENDBRANCH  30  32
ENDBRANCH  26  30
ENDBRANCH   1  27
TORSDOF 8
