REMARK  Name = ZINC14069804
REMARK  6 active torsions:
REMARK  status: ('A' for Active; 'I' for Inactive)
REMARK    1  A    between atoms: C_1  and  N_2
REMARK    2  A    between atoms: C_3  and  C_19
REMARK    3  A    between atoms: C_6  and  S_7
REMARK    4  A    between atoms: S_7  and  C_8
REMARK    5  A    between atoms: C_8  and  C_9
REMARK    6  A    between atoms: N_11  and  C_12
REMARK                            x       y       z     vdW  Elec       q    Type
REMARK                         _______ _______ _______ _____ _____    ______ ____
ROOT
ATOM      1  C   UNL     1      -0.054   1.755   0.239  0.00  0.00    +0.153 C 
ATOM      2  N   UNL     1      -0.049   0.292   0.161  0.00  0.00    -0.305 N 
ATOM      3  C   UNL     1      -0.160  -0.480  -0.972  0.00  0.00    +0.166 A 
ATOM      4  N   UNL     1      -0.108  -1.735  -0.590  0.00  0.00    -0.128 NA
ATOM      5  N   UNL     1       0.027  -1.799   0.687  0.00  0.00    -0.122 NA
ATOM      6  C   UNL     1       0.074  -0.589   1.197  0.00  0.00    +0.192 A 
ENDROOT
BRANCH   3   7
ATOM      7  C   UNL     1      -0.310   0.010  -2.358  0.00  0.00    +0.038 A 
ATOM      8  C   UNL     1       0.558   0.983  -2.856  0.00  0.00    +0.014 A 
ATOM      9  C   UNL     1       0.413   1.436  -4.150  0.00  0.00    +0.021 A 
ATOM     10  C   UNL     1      -0.592   0.929  -4.957  0.00  0.00    +0.042 A 
ATOM     11  C   UNL     1      -1.458  -0.036  -4.470  0.00  0.00    +0.040 A 
ATOM     12  C   UNL     1      -1.319  -0.502  -3.178  0.00  0.00    +0.053 A 
ATOM     13 CL   UNL     1      -2.400  -1.717  -2.571  0.00  0.00    -0.083 Cl
ATOM     14 CL   UNL     1      -0.768   1.506  -6.585  0.00  0.00    -0.083 Cl
ENDBRANCH   3   7
BRANCH   6  15
ATOM     15  S   UNL     1       0.259  -0.180   2.901  0.00  0.00    -0.077 S 
BRANCH  15  16
ATOM     16  C   UNL     1       0.366  -1.790   3.730  0.00  0.00    +0.173 C 
BRANCH  16  17
ATOM     17  C   UNL     1       0.528  -1.581   5.214  0.00  0.00    +0.228 C 
ATOM     18  O   UNL     1       0.567  -0.457   5.667  0.00  0.00    -0.275 OA
ATOM     19  N   UNL     1       0.629  -2.644   6.037  0.00  0.00    -0.284 N 
ATOM     20  H   UNL     1       0.679  -3.540   5.668  0.00  0.00    +0.155 HD
BRANCH  19  21
ATOM     21  C   UNL     1       0.662  -2.455   7.423  0.00  0.00    +0.052 A 
ATOM     22  C   UNL     1       0.096  -1.318   7.984  0.00  0.00    +0.025 A 
ATOM     23  C   UNL     1       0.129  -1.134   9.352  0.00  0.00    +0.002 A 
ATOM     24  C   UNL     1       0.726  -2.081  10.165  0.00  0.00    +0.002 A 
ATOM     25  C   UNL     1       1.291  -3.214   9.610  0.00  0.00    +0.022 A 
ATOM     26  C   UNL     1       1.256  -3.407   8.242  0.00  0.00    +0.062 A 
ATOM     27 CL   UNL     1       1.959  -4.834   7.547  0.00  0.00    -0.082 Cl
ENDBRANCH  19  21
ENDBRANCH  16  17
ENDBRANCH  15  16
ENDBRANCH   6  15
TORSDOF 5
