REMARK  Name = ZINC35877104
REMARK  4 active torsions:
REMARK  status: ('A' for Active; 'I' for Inactive)
REMARK    1  A    between atoms: C_1  and  C_2
REMARK    2  A    between atoms: C_5  and  N_8
REMARK    3  A    between atoms: C_26  and  C_36
REMARK    4  A    between atoms: C_39  and  O_42
REMARK                            x       y       z     vdW  Elec       q    Type
REMARK                         _______ _______ _______ _____ _____    ______ ____
ROOT
ATOM      1  N   UNL     1       0.059  -4.172  -0.021  0.00  0.00    -0.210 N 
ATOM      2  C   UNL     1       0.069  -4.945   1.120  0.00  0.00    +0.230 C 
ATOM      3  O   UNL     1      -0.216  -4.614   2.251  0.00  0.00    -0.274 OA
ATOM      4  C   UNL     1       0.516  -6.285   0.635  0.00  0.00    +0.091 C 
ATOM      5  C   UNL     1       0.046  -7.626   1.258  0.00  0.00    +0.007 C 
ATOM      6  C   UNL     1      -1.228  -8.012   0.397  0.00  0.00    +0.010 C 
ATOM      7  C   UNL     1      -0.589  -7.645  -1.035  0.00  0.00    +0.016 C 
ATOM      8  C   UNL     1      -0.368  -6.231  -0.680  0.00  0.00    +0.092 C 
ATOM      9  C   UNL     1       0.062  -4.937  -1.177  0.00  0.00    +0.230 C 
ATOM     10  O   UNL     1       0.351  -4.611  -2.309  0.00  0.00    -0.274 OA
ATOM     11  C   UNL     1       0.585  -8.615  -0.944  0.00  0.00    +0.061 C 
ATOM     12  C   UNL     1       1.083  -8.491   0.537  0.00  0.00    +0.019 C 
ATOM     13  C   UNL     1       1.891  -9.607   1.034  0.00  0.00    +0.063 C 
ATOM     14  C   UNL     1       3.079  -9.757   0.111  0.00  0.00    +0.032 A 
ATOM     15  C   UNL     1       3.298  -9.212  -1.105  0.00  0.00    +0.087 A 
ATOM     16  N   UNL     1       4.515  -9.523  -1.664  0.00  0.00    -0.311 N 
ATOM     17  H   UNL     1       4.761  -9.152  -2.526  0.00  0.00    +0.170 HD
ATOM     18  C   UNL     1       5.365 -10.342  -1.017  0.00  0.00    +0.289 A 
ATOM     19  O   UNL     1       6.467 -10.721  -1.373  0.00  0.00    -0.260 OA
ATOM     20  S   UNL     1       4.541 -10.717   0.400  0.00  0.00    -0.030 S 
ATOM     21  S   UNL     1       2.028  -8.221  -1.967  0.00  0.00    -0.103 S 
ENDROOT
BRANCH   1  26
ATOM     22  C   UNL     1      -0.018   1.503   0.010  0.00  0.00    +0.044 C 
ATOM     23  C   UNL     1       0.002  -0.004   0.002  0.00  0.00    -0.050 A 
ATOM     24  C   UNL     1       0.006  -0.688  -1.200  0.00  0.00    +0.005 A 
ATOM     25  C   UNL     1       0.025  -2.068  -1.211  0.00  0.00    +0.024 A 
ATOM     26  C   UNL     1       0.040  -2.771  -0.013  0.00  0.00    +0.044 A 
ATOM     27  C   UNL     1       0.037  -2.082   1.192  0.00  0.00    +0.024 A 
ATOM     28  C   UNL     1       0.023  -0.700   1.196  0.00  0.00    +0.005 A 
ENDBRANCH   1  26
BRANCH  13  29
ATOM     29  C   UNL     1       2.364  -9.312   2.434  0.00  0.00    -0.039 A 
ATOM     30  C   UNL     1       3.146  -8.198   2.679  0.00  0.00    +0.008 A 
ATOM     31  C   UNL     1       3.581  -7.926   3.961  0.00  0.00    +0.045 A 
ATOM     32  C   UNL     1       3.232  -8.771   5.005  0.00  0.00    +0.117 A 
ATOM     33  C   UNL     1       2.447  -9.888   4.757  0.00  0.00    +0.045 A 
ATOM     34  C   UNL     1       2.010 -10.153   3.473  0.00  0.00    +0.008 A 
BRANCH  32  35
ATOM     35  O   UNL     1       3.659  -8.506   6.267  0.00  0.00    -0.507 OA
ATOM     36  H   UNL     1       3.055  -7.950   6.778  0.00  0.00    +0.292 HD
ENDBRANCH  32  35
ENDBRANCH  13  29
TORSDOF 3
