REMARK  Name = ZINC00994626
REMARK  13 active torsions:
REMARK  status: ('A' for Active; 'I' for Inactive)
REMARK    1  A    between atoms: C_1  and  C_2
REMARK    2  A    between atoms: C_2  and  N_3
REMARK    3  A    between atoms: N_3  and  C_4
REMARK    4  A    between atoms: C_4  and  C_5
REMARK    5  A    between atoms: C_6  and  C_8
REMARK    6  A    between atoms: C_9  and  C_36
REMARK    7  A    between atoms: C_10  and  C_32
REMARK    8  A    between atoms: C_11  and  N_13
REMARK    9  A    between atoms: C_14  and  C_16
REMARK   10  A    between atoms: C_18  and  C_26
REMARK   11  A    between atoms: C_29  and  C_31
REMARK   12  A    between atoms: C_32  and  O_34
REMARK   13  A    between atoms: O_34  and  C_35
REMARK                            x       y       z     vdW  Elec       q    Type
REMARK                         _______ _______ _______ _____ _____    ______ ____
ROOT
ATOM      1  N   UNL     1      -6.587  -3.564   0.787  0.00  0.00    -0.275 N 
ATOM      2  C   UNL     1      -6.812  -3.799  -0.521  0.00  0.00    +0.249 C 
ATOM      3  O   UNL     1      -6.017  -3.411  -1.354  0.00  0.00    -0.270 OA
ATOM      4  H   UNL     1      -7.222  -3.874   1.451  0.00  0.00    +0.156 HD
ENDROOT
BRANCH   2   5
ATOM      5  C   UNL     1      -8.026  -4.530  -0.943  0.00  0.00    +0.048 A 
ATOM      6  C   UNL     1      -8.891  -5.087  -0.013  0.00  0.00    +0.042 A 
ATOM      7  C   UNL     1     -10.034  -5.774  -0.459  0.00  0.00    +0.079 A 
ATOM      8  N   UNL     1     -10.319  -5.909  -1.740  0.00  0.00    -0.246 NA
ATOM      9  C   UNL     1      -9.541  -5.404  -2.700  0.00  0.00    +0.072 A 
ATOM     10  C   UNL     1      -8.366  -4.689  -2.358  0.00  0.00    +0.013 A 
ATOM     11  C   UNL     1      -7.557  -4.157  -3.367  0.00  0.00    +0.011 A 
ATOM     12  C   UNL     1      -7.909  -4.329  -4.673  0.00  0.00    +0.001 A 
ATOM     13  C   UNL     1      -9.065  -5.026  -5.015  0.00  0.00    +0.002 A 
ATOM     14  C   UNL     1      -9.870  -5.565  -4.058  0.00  0.00    +0.028 A 
BRANCH   7  15
ATOM     15  C   UNL     1     -10.947  -6.362   0.540  0.00  0.00    +0.038 A 
ATOM     16  C   UNL     1     -12.104  -7.071   0.341  0.00  0.00    +0.018 A 
ATOM     17  C   UNL     1     -12.796  -7.528   1.439  0.00  0.00    +0.011 A 
ATOM     18  C   UNL     1     -12.315  -7.264   2.682  0.00  0.00    -0.013 A 
ATOM     19  S   UNL     1     -10.828  -6.344   2.321  0.00  0.00    -0.092 S 
ATOM     20  C   UNL     1     -12.887  -7.652   4.021  0.00  0.00    +0.051 C 
ENDBRANCH   7  15
ENDBRANCH   2   5
BRANCH   1  24
ATOM     21  C   UNL     1      -3.186  -1.558   1.472  0.00  0.00    +0.079 A 
ATOM     22  C   UNL     1      -3.864  -1.853   2.624  0.00  0.00    -0.015 A 
ATOM     23  C   UNL     1      -5.056  -2.548   2.477  0.00  0.00    +0.091 A 
ATOM     24  C   UNL     1      -5.454  -2.882   1.180  0.00  0.00    +0.087 A 
ATOM     25  S   UNL     1      -4.235  -2.254   0.211  0.00  0.00    -0.068 S 
ATOM     26  C   UNL     1      -3.344  -1.445   3.978  0.00  0.00    +0.046 C 
BRANCH  21  28
ATOM     27  N   UNL     1      -1.468  -0.533   0.083  0.00  0.00    -0.298 N 
ATOM     28  C   UNL     1      -1.918  -0.843   1.315  0.00  0.00    +0.254 C 
ATOM     29  O   UNL     1      -1.270  -0.529   2.296  0.00  0.00    -0.269 OA
BRANCH  27  31
ATOM     30  C   UNL     1      -0.270   1.597  -0.024  0.00  0.00    +0.024 C 
ATOM     31  C   UNL     1      -0.144   0.073  -0.082  0.00  0.00    +0.105 C 
ENDBRANCH  27  31
BRANCH  27  32
ATOM     32  C   UNL     1      -2.302  -0.802  -1.091  0.00  0.00    +0.105 C 
ATOM     33  C   UNL     1      -2.032  -2.222  -1.594  0.00  0.00    +0.024 C 
ENDBRANCH  27  32
ENDBRANCH  21  28
BRANCH  23  34
ATOM     34  C   UNL     1      -5.869  -2.920   3.640  0.00  0.00    +0.342 C 
ATOM     35  O   UNL     1      -6.728  -2.162   4.049  0.00  0.00    -0.245 OA
BRANCH  34  36
ATOM     36  O   UNL     1      -5.663  -4.101   4.257  0.00  0.00    -0.464 OA
ATOM     37  C   UNL     1      -6.491  -4.397   5.384  0.00  0.00    +0.280 C 
ENDBRANCH  34  36
ENDBRANCH  23  34
ENDBRANCH   1  24
TORSDOF 8
