REMARK  Name = ZINC62924671
REMARK  6 active torsions:
REMARK  status: ('A' for Active; 'I' for Inactive)
REMARK    1  A    between atoms: C_1  and  C_2
REMARK    2  A    between atoms: C_2  and  C_3
REMARK    3  A    between atoms: C_3  and  C_4
REMARK    4  A    between atoms: C_4  and  C_19
REMARK    5  A    between atoms: N_11  and  C_12
REMARK    6  A    between atoms: C_17  and  C_18
REMARK                            x       y       z     vdW  Elec       q    Type
REMARK                         _______ _______ _______ _____ _____    ______ ____
ROOT
ATOM      1  C   UNL     1       0.760  -2.000  -1.256  0.00  0.00    +0.089 C 
ATOM      2  C   UNL     1       1.544  -2.516  -2.484  0.00  0.00    +0.039 C 
ATOM      3  C   UNL     1       2.949  -2.807  -1.899  0.00  0.00    +0.110 C 
ATOM      4  N   UNL     1       2.651  -3.345  -0.552  0.00  0.00    -0.284 N 
ATOM      5  C   UNL     1       1.526  -2.544  -0.035  0.00  0.00    +0.127 C 
ATOM      6  C   UNL     1       3.279  -4.360   0.074  0.00  0.00    +0.306 C 
ATOM      7  O   UNL     1       2.927  -4.699   1.187  0.00  0.00    -0.252 OA
ATOM      8  N   UNL     1       4.298  -4.999  -0.534  0.00  0.00    -0.269 N 
ATOM      9  H   UNL     1       4.527  -4.785  -1.452  0.00  0.00    +0.156 HD
ENDROOT
BRANCH   8  10
ATOM     10  C   UNL     1       5.027  -5.973   0.158  0.00  0.00    +0.038 A 
ATOM     11  C   UNL     1       5.084  -5.943   1.546  0.00  0.00    +0.023 A 
ATOM     12  C   UNL     1       5.803  -6.906   2.227  0.00  0.00    +0.002 A 
ATOM     13  C   UNL     1       6.466  -7.898   1.528  0.00  0.00    +0.000 A 
ATOM     14  C   UNL     1       6.412  -7.931   0.147  0.00  0.00    +0.005 A 
ATOM     15  C   UNL     1       5.689  -6.974  -0.539  0.00  0.00    -0.029 A 
ATOM     16  C   UNL     1       5.625  -7.014  -2.045  0.00  0.00    +0.045 C 
ENDBRANCH   8  10
BRANCH   1  17
ATOM     17  C   UNL     1      -0.649  -2.532  -1.270  0.00  0.00    +0.364 C 
ATOM     18  O   UNL     1      -1.593  -1.760  -1.278  0.00  0.00    -0.246 OA
ATOM     19  O   UNL     1      -0.847  -3.735  -1.272  0.00  0.00    -0.246 OA
ENDBRANCH   1  17
BRANCH   1  20
ATOM     20  C   UNL     1       0.750  -0.470  -1.238  0.00  0.00    +0.019 C 
BRANCH  20  22
ATOM     21  C   UNL     1       0.022   1.550   0.041  0.00  0.00    +0.004 C 
ATOM     22  C   UNL     1       0.033   0.020   0.022  0.00  0.00    -0.002 C 
ENDBRANCH  20  22
ENDBRANCH   1  20
TORSDOF 4
