REMARK  Name = ZINC36492175
REMARK  12 active torsions:
REMARK  status: ('A' for Active; 'I' for Inactive)
REMARK    1  A    between atoms: C_1  and  C_2
REMARK    2  A    between atoms: C_2  and  C_3
REMARK    3  A    between atoms: C_3  and  C_4
REMARK    4  A    between atoms: C_5  and  C_6
REMARK    5  A    between atoms: C_6  and  C_8
REMARK    6  A    between atoms: C_6  and  N_22
REMARK    7  A    between atoms: N_10  and  C_11
REMARK    8  A    between atoms: C_11  and  S_12
REMARK    9  A    between atoms: S_12  and  C_15
REMARK   10  A    between atoms: C_18  and  C_21
REMARK   11  A    between atoms: N_22  and  C_23
REMARK   12  A    between atoms: C_29  and  C_31
REMARK                            x       y       z     vdW  Elec       q    Type
REMARK                         _______ _______ _______ _____ _____    ______ ____
ROOT
ATOM      1  C   UNL     1      -2.395  -4.226   0.788  0.00  0.00    +0.185 C 
ENDROOT
BRANCH   1   2
ATOM      2  C   UNL     1      -2.111  -4.602   2.219  0.00  0.00    +0.239 C 
ATOM      3  O   UNL     1      -1.035  -5.075   2.520  0.00  0.00    -0.273 OA
ATOM      4  N   UNL     1      -3.052  -4.414   3.165  0.00  0.00    -0.294 N 
ATOM      5  H   UNL     1      -3.913  -4.036   2.925  0.00  0.00    +0.150 HD
BRANCH   4   6
ATOM      6  C   UNL     1      -2.776  -4.780   4.557  0.00  0.00    +0.278 C 
BRANCH   6   7
ATOM      7  S   UNL     1      -2.192  -3.320   5.461  0.00  0.00    +0.013 S 
ATOM      8  O   UNL     1      -1.980  -3.643   6.829  0.00  0.00    -0.168 OA
ATOM      9  O   UNL     1      -1.189  -2.648   4.712  0.00  0.00    -0.168 OA
BRANCH   7  10
ATOM     10  C   UNL     1      -3.564  -2.213   5.469  0.00  0.00    +0.090 A 
ATOM     11  C   UNL     1      -3.721  -1.301   4.443  0.00  0.00    +0.027 A 
ATOM     12  C   UNL     1      -4.798  -0.433   4.449  0.00  0.00    +0.005 A 
ATOM     13  C   UNL     1      -5.716  -0.478   5.481  0.00  0.00    -0.050 A 
ATOM     14  C   UNL     1      -5.559  -1.391   6.506  0.00  0.00    +0.005 A 
ATOM     15  C   UNL     1      -4.485  -2.262   6.498  0.00  0.00    +0.027 A 
ATOM     16  C   UNL     1      -6.889   0.468   5.488  0.00  0.00    +0.044 C 
ENDBRANCH   7  10
ENDBRANCH   6   7
ENDBRANCH   4   6
ENDBRANCH   1   2
BRANCH   1  17
ATOM     17  N   UNL     1      -1.143  -4.218   0.027  0.00  0.00    -0.279 N 
ATOM     18  C   UNL     1      -1.063  -4.876  -1.147  0.00  0.00    +0.249 C 
ATOM     19  O   UNL     1      -1.978  -5.591  -1.505  0.00  0.00    -0.270 OA
BRANCH  18  20
ATOM     20  C   UNL     1       0.136  -4.727  -1.997  0.00  0.00    +0.055 A 
ATOM     21  C   UNL     1       1.329  -4.251  -1.450  0.00  0.00    +0.014 A 
ATOM     22  C   UNL     1       2.444  -4.115  -2.249  0.00  0.00    +0.001 A 
ATOM     23  C   UNL     1       2.384  -4.448  -3.591  0.00  0.00    +0.001 A 
ATOM     24  C   UNL     1       1.206  -4.919  -4.141  0.00  0.00    +0.021 A 
ATOM     25  C   UNL     1       0.082  -5.066  -3.351  0.00  0.00    +0.053 A 
ATOM     26 CL   UNL     1      -1.394  -5.665  -4.040  0.00  0.00    -0.083 Cl
ENDBRANCH  18  20
BRANCH  17  27
ATOM     27  C   UNL     1       0.023  -3.496   0.543  0.00  0.00    +0.077 C 
ATOM     28  C   UNL     1       1.055  -4.498   1.063  0.00  0.00    +0.022 C 
ATOM     29  C   UNL     1       2.272  -3.743   1.601  0.00  0.00    +0.002 C 
ATOM     30  C   UNL     1       1.837  -2.821   2.741  0.00  0.00    +0.000 C 
ATOM     31  C   UNL     1       0.805  -1.819   2.221  0.00  0.00    +0.002 C 
ATOM     32  C   UNL     1      -0.412  -2.573   1.683  0.00  0.00    +0.022 C 
ENDBRANCH  17  27
ENDBRANCH   1  17
BRANCH   1  34
ATOM     33  C   UNL     1      -2.469  -1.909   0.024  0.00  0.00    -0.029 C 
ATOM     34  C   UNL     1      -3.019  -2.855   0.743  0.00  0.00    +0.000 C 
BRANCH  33  35
ATOM     35  C   UNL     1      -3.148  -0.569  -0.106  0.00  0.00    +0.027 C 
BRANCH  35  37
ATOM     36  C   UNL     1      -2.869   1.896   0.189  0.00  0.00    +0.004 C 
ATOM     37  C   UNL     1      -2.180   0.536   0.320  0.00  0.00    +0.001 C 
ENDBRANCH  35  37
ENDBRANCH  33  35
ENDBRANCH   1  34
TORSDOF 10
