REMARK  Name = ZINC39618227
REMARK  15 active torsions:
REMARK  status: ('A' for Active; 'I' for Inactive)
REMARK    1  A    between atoms: C_1  and  C_2
REMARK    2  A    between atoms: C_4  and  C_18
REMARK    3  A    between atoms: C_5  and  C_17
REMARK    4  A    between atoms: N_6  and  C_7
REMARK    5  A    between atoms: C_10  and  S_13
REMARK    6  A    between atoms: S_13  and  N_16
REMARK    7  A    between atoms: C_18  and  C_20
REMARK    8  A    between atoms: C_20  and  O_21
REMARK    9  A    between atoms: O_21  and  C_22
REMARK   10  A    between atoms: C_22  and  C_24
REMARK   11  A    between atoms: C_25  and  C_26
REMARK   12  A    between atoms: C_30  and  O_34
REMARK   13  A    between atoms: C_31  and  O_32
REMARK   14  A    between atoms: O_32  and  C_33
REMARK   15  A    between atoms: O_34  and  C_35
REMARK                            x       y       z     vdW  Elec       q    Type
REMARK                         _______ _______ _______ _____ _____    ______ ____
ROOT
ATOM      1  C   UNL     1      -0.018   1.503   0.010  0.00  0.00    +0.064 C 
ATOM      2  C   UNL     1       0.002  -0.004   0.002  0.00  0.00    +0.022 A 
ATOM      3  C   UNL     1       0.008  -0.777  -1.097  0.00  0.00    +0.034 A 
ATOM      4  C   UNL     1       0.029  -2.168  -0.626  0.00  0.00    +0.042 A 
ATOM      5  C   UNL     1       0.034  -2.101   0.755  0.00  0.00    +0.032 A 
ATOM      6  N   UNL     1       0.024  -0.802   1.112  0.00  0.00    -0.317 N 
ATOM      7  C   UNL     1       0.053  -3.277   1.697  0.00  0.00    +0.064 C 
ENDROOT
BRANCH   6   8
ATOM      8  C   UNL     1       0.030  -0.336   2.433  0.00  0.00    +0.047 A 
ATOM      9  C   UNL     1       1.132  -0.562   3.246  0.00  0.00    +0.028 A 
ATOM     10  C   UNL     1       1.135  -0.101   4.548  0.00  0.00    +0.030 A 
ATOM     11  C   UNL     1       0.042   0.586   5.042  0.00  0.00    +0.105 A 
ATOM     12  C   UNL     1      -1.058   0.813   4.235  0.00  0.00    +0.030 A 
ATOM     13  C   UNL     1      -1.064   0.360   2.930  0.00  0.00    +0.028 A 
BRANCH  11  14
ATOM     14  S   UNL     1       0.049   1.172   6.704  0.00  0.00    +0.056 S 
ATOM     15  O   UNL     1      -1.311   1.308   7.093  0.00  0.00    -0.153 OA
ATOM     16  O   UNL     1       0.968   0.357   7.418  0.00  0.00    -0.153 OA
BRANCH  14  17
ATOM     17  N   UNL     1       0.690   2.699   6.681  0.00  0.00    -0.204 NA
ATOM     18  H   UNL     1       0.974   3.094   5.842  0.00  0.00    +0.144 HD
ATOM     19  H   UNL     1       0.781   3.199   7.507  0.00  0.00    +0.144 HD
ENDBRANCH  14  17
ENDBRANCH  11  14
ENDBRANCH   6   8
BRANCH   4  20
ATOM     20  C   UNL     1       0.041  -3.378  -1.450  0.00  0.00    +0.202 C 
ATOM     21  O   UNL     1       0.058  -4.471  -0.923  0.00  0.00    -0.288 OA
BRANCH  20  22
ATOM     22  C   UNL     1       0.033  -3.266  -2.953  0.00  0.00    +0.311 C 
BRANCH  22  23
ATOM     23  O   UNL     1       0.048  -4.574  -3.528  0.00  0.00    -0.453 OA
BRANCH  23  24
ATOM     24  C   UNL     1       0.043  -4.651  -4.875  0.00  0.00    +0.332 C 
ATOM     25  O   UNL     1       0.027  -3.634  -5.543  0.00  0.00    -0.246 OA
BRANCH  24  26
ATOM     26  C   UNL     1       0.057  -5.917  -5.513  0.00  0.00    +0.092 C 
ATOM     27  C   UNL     1       0.052  -5.994  -6.862  0.00  0.00    +0.018 C 
BRANCH  27  28
ATOM     28  C   UNL     1       0.066  -7.306  -7.523  0.00  0.00    +0.021 A 
ATOM     29  C   UNL     1       0.079  -8.480  -6.759  0.00  0.00    +0.012 A 
ATOM     30  C   UNL     1       0.093  -9.707  -7.383  0.00  0.00    +0.004 A 
ATOM     31  C   UNL     1       0.094  -9.790  -8.766  0.00  0.00    +0.049 A 
ATOM     32  C   UNL     1       0.082  -8.639  -9.537  0.00  0.00    +0.162 A 
ATOM     33  C   UNL     1       0.061  -7.391  -8.923  0.00  0.00    +0.169 A 
BRANCH  33  34
ATOM     34  O   UNL     1       0.043  -6.261  -9.675  0.00  0.00    -0.491 OA
ATOM     35  C   UNL     1       1.308  -5.704 -10.040  0.00  0.00    +0.277 C 
ENDBRANCH  33  34
BRANCH  32  36
ATOM     36  O   UNL     1       0.084  -8.729 -10.894  0.00  0.00    -0.491 OA
ATOM     37  C   UNL     1       0.099 -10.043 -11.456  0.00  0.00    +0.277 C 
ENDBRANCH  32  36
ENDBRANCH  27  28
ENDBRANCH  24  26
ENDBRANCH  23  24
ENDBRANCH  22  23
ENDBRANCH  20  22
ENDBRANCH   4  20
TORSDOF 11
