REMARK  Name = ZINC63204344
REMARK  6 active torsions:
REMARK  status: ('A' for Active; 'I' for Inactive)
REMARK    1  A    between atoms: C_7  and  C_10
REMARK    2  A    between atoms: C_10  and  C_11
REMARK    3  A    between atoms: C_11  and  C_13
REMARK    4  A    between atoms: C_11  and  N_27
REMARK    5  A    between atoms: N_15  and  C_16
REMARK    6  A    between atoms: C_28  and  C_30
REMARK                            x       y       z     vdW  Elec       q    Type
REMARK                         _______ _______ _______ _____ _____    ______ ____
ROOT
ATOM      1  C   UNL     1       0.458  -3.654  -1.468  0.00  0.00    +0.163 C 
ENDROOT
BRANCH   1   2
ATOM      2  C   UNL     1      -0.385  -4.903  -1.451  0.00  0.00    +0.238 C 
ATOM      3  O   UNL     1      -1.576  -4.834  -1.669  0.00  0.00    -0.273 OA
ATOM      4  N   UNL     1       0.185  -6.097  -1.193  0.00  0.00    -0.284 N 
ATOM      5  H   UNL     1       1.147  -6.162  -1.084  0.00  0.00    +0.155 HD
BRANCH   4   6
ATOM      6  C   UNL     1      -0.612  -7.244  -1.080  0.00  0.00    +0.037 A 
ATOM      7  C   UNL     1      -1.738  -7.387  -1.880  0.00  0.00    +0.027 A 
ATOM      8  C   UNL     1      -2.527  -8.517  -1.772  0.00  0.00    +0.051 A 
ATOM      9  C   UNL     1      -2.191  -9.508  -0.865  0.00  0.00    +0.162 A 
ATOM     10  C   UNL     1      -1.065  -9.368  -0.065  0.00  0.00    +0.164 A 
ATOM     11  C   UNL     1      -0.271  -8.240  -0.174  0.00  0.00    +0.072 A 
ATOM     12  O   UNL     1      -0.744 -10.352   0.824  0.00  0.00    -0.488 OA
ATOM     13  C   UNL     1      -1.637 -10.513   1.928  0.00  0.00    +0.232 C 
ATOM     14  C   UNL     1      -2.813 -11.398   1.546  0.00  0.00    +0.082 C 
ATOM     15  C   UNL     1      -3.686 -10.768   0.472  0.00  0.00    +0.232 C 
ATOM     16  O   UNL     1      -2.963 -10.628  -0.752  0.00  0.00    -0.488 OA
ENDBRANCH   4   6
ENDBRANCH   1   2
BRANCH   1  17
ATOM     17  N   UNL     1      -0.240  -2.604  -2.214  0.00  0.00    -0.300 N 
ATOM     18  C   UNL     1      -1.450  -2.175  -1.801  0.00  0.00    +0.246 C 
ATOM     19  O   UNL     1      -1.961  -2.660  -0.811  0.00  0.00    -0.270 OA
ATOM     20  H   UNL     1       0.168  -2.218  -3.005  0.00  0.00    +0.150 HD
BRANCH  18  21
ATOM     21  C   UNL     1      -2.154  -1.116  -2.554  0.00  0.00    +0.055 A 
ATOM     22  C   UNL     1      -1.573  -0.562  -3.695  0.00  0.00    +0.014 A 
ATOM     23  C   UNL     1      -2.235   0.426  -4.393  0.00  0.00    +0.001 A 
ATOM     24  C   UNL     1      -3.475   0.869  -3.964  0.00  0.00    +0.001 A 
ATOM     25  C   UNL     1      -4.057   0.325  -2.834  0.00  0.00    +0.021 A 
ATOM     26  C   UNL     1      -3.408  -0.669  -2.129  0.00  0.00    +0.053 A 
ATOM     27 CL   UNL     1      -4.144  -1.357  -0.715  0.00  0.00    -0.083 Cl
ENDBRANCH  18  21
ENDBRANCH   1  17
BRANCH   1  28
ATOM     28  C   UNL     1       0.703  -3.184  -0.033  0.00  0.00    +0.065 C 
BRANCH  28  35
ATOM     29  C   UNL     1       0.002   1.351  -0.004  0.00  0.00    +0.001 A 
ATOM     30  C   UNL     1       1.185   2.102  -0.021  0.00  0.00    +0.002 A 
ATOM     31  C   UNL     1       2.409   1.534  -0.043  0.00  0.00    +0.026 A 
ATOM     32  C   UNL     1       2.545   0.119  -0.050  0.00  0.00    +0.043 A 
ATOM     33  N   UNL     1       3.602  -0.657  -0.071  0.00  0.00    -0.380 N 
ATOM     34  C   UNL     1       3.156  -2.055  -0.069  0.00  0.00    +0.144 C 
ATOM     35  C   UNL     1       1.645  -2.008  -0.043  0.00  0.00    -0.039 C 
ATOM     36  C   UNL     1       1.310  -0.698  -0.033  0.00  0.00    -0.001 A 
ATOM     37  C   UNL     1       0.018  -0.002  -0.009  0.00  0.00    +0.010 A 
ATOM     38  H   UNL     1       4.524  -0.356  -0.086  0.00  0.00    +0.160 HD
ENDBRANCH  28  35
ENDBRANCH   1  28
TORSDOF 6
