REMARK  Name = ZINC18324071
REMARK  12 active torsions:
REMARK  status: ('A' for Active; 'I' for Inactive)
REMARK    1  A    between atoms: C_1  and  C_2
REMARK    2  A    between atoms: C_2  and  C_34
REMARK    3  A    between atoms: C_6  and  C_16
REMARK    4  A    between atoms: C_18  and  C_27
REMARK    5  A    between atoms: C_19  and  O_26
REMARK    6  A    between atoms: C_20  and  C_22
REMARK    7  A    between atoms: C_22  and  C_23
REMARK    8  A    between atoms: C_22  and  C_24
REMARK    9  A    between atoms: C_22  and  C_25
REMARK   10  A    between atoms: C_27  and  C_28
REMARK   11  A    between atoms: C_27  and  C_29
REMARK   12  A    between atoms: C_27  and  C_30
REMARK                            x       y       z     vdW  Elec       q    Type
REMARK                         _______ _______ _______ _____ _____    ______ ____
ROOT
ATOM      1  C   UNL     1      -1.828   1.284   2.831  0.00  0.00    +0.011 C 
ATOM      2  C   UNL     1      -2.079   1.835   1.426  0.00  0.00    -0.023 C 
ATOM      3  C   UNL     1      -3.519   1.540   0.996  0.00  0.00    +0.058 C 
ATOM      4  C   UNL     1      -3.763   2.073  -0.406  0.00  0.00    +0.017 C 
ATOM      5  C   UNL     1      -2.769   2.091  -1.309  0.00  0.00    +0.036 C 
ATOM      6  C   UNL     1      -2.878   2.569  -2.738  0.00  0.00    +0.136 C 
ATOM      7  N   UNL     1      -4.103   3.280  -3.041  0.00  0.00    -0.331 N 
ATOM      8  C   UNL     1      -5.340   2.640  -2.983  0.00  0.00    +0.049 A 
ATOM      9  C   UNL     1      -6.085   2.404  -4.128  0.00  0.00    +0.025 A 
ATOM     10  C   UNL     1      -7.254   1.669  -4.038  0.00  0.00    +0.002 A 
ATOM     11  C   UNL     1      -7.679   1.175  -2.818  0.00  0.00    +0.002 A 
ATOM     12  C   UNL     1      -6.947   1.428  -1.670  0.00  0.00    +0.025 A 
ATOM     13  C   UNL     1      -5.787   2.177  -1.755  0.00  0.00    +0.052 A 
ATOM     14  N   UNL     1      -5.029   2.504  -0.636  0.00  0.00    -0.316 N 
ATOM     15  C   UNL     1      -1.477   1.635  -0.956  0.00  0.00    +0.163 C 
ATOM     16  O   UNL     1      -0.603   1.640  -1.800  0.00  0.00    -0.292 OA
ATOM     17  C   UNL     1      -1.148   1.145   0.422  0.00  0.00    +0.086 C 
ATOM     18  C   UNL     1      -1.833   3.345   1.408  0.00  0.00    +0.011 C 
ATOM     19  H   UNL     1      -4.061   4.217  -3.287  0.00  0.00    +0.147 HD
ATOM     20  H   UNL     1      -5.436   3.082   0.028  0.00  0.00    +0.152 HD
ENDROOT
BRANCH   6  21
ATOM     21  C   UNL     1      -2.782   1.373  -3.650  0.00  0.00    -0.022 A 
ATOM     22  C   UNL     1      -3.702   0.347  -3.542  0.00  0.00    +0.013 A 
ATOM     23  C   UNL     1      -3.620  -0.747  -4.382  0.00  0.00    +0.000 A 
ATOM     24  C   UNL     1      -2.606  -0.822  -5.325  0.00  0.00    +0.124 A 
ATOM     25  C   UNL     1      -1.680   0.206  -5.428  0.00  0.00    +0.000 A 
ATOM     26  C   UNL     1      -1.770   1.302  -4.590  0.00  0.00    +0.013 A 
BRANCH  25  27
ATOM     27  C   UNL     1      -0.577   0.129  -6.452  0.00  0.00    -0.009 C 
ATOM     28  C   UNL     1       0.297   1.381  -6.355  0.00  0.00    +0.015 C 
ATOM     29  C   UNL     1       0.278  -1.112  -6.188  0.00  0.00    +0.015 C 
ATOM     30  C   UNL     1      -1.187   0.040  -7.852  0.00  0.00    +0.015 C 
ENDBRANCH  25  27
BRANCH  23  31
ATOM     31  C   UNL     1      -4.628  -1.862  -4.268  0.00  0.00    -0.009 C 
ATOM     32  C   UNL     1      -5.638  -1.527  -3.169  0.00  0.00    +0.015 C 
ATOM     33  C   UNL     1      -5.360  -2.026  -5.601  0.00  0.00    +0.015 C 
ATOM     34  C   UNL     1      -3.908  -3.166  -3.918  0.00  0.00    +0.015 C 
ENDBRANCH  23  31
BRANCH  24  35
ATOM     35  O   UNL     1      -2.519  -1.900  -6.147  0.00  0.00    -0.506 OA
ATOM     36  H   UNL     1      -1.976  -2.620  -5.797  0.00  0.00    +0.292 HD
ENDBRANCH  24  35
ENDBRANCH   6  21
TORSDOF 4
