REMARK  Name = ZINC32778611
REMARK  6 active torsions:
REMARK  status: ('A' for Active; 'I' for Inactive)
REMARK    1  A    between atoms: C_1  and  C_2
REMARK    2  A    between atoms: C_5  and  C_8
REMARK    3  A    between atoms: C_12  and  S_15
REMARK    4  A    between atoms: S_15  and  C_16
REMARK    5  A    between atoms: C_16  and  C_17
REMARK    6  A    between atoms: C_22  and  C_25
REMARK                            x       y       z     vdW  Elec       q    Type
REMARK                         _______ _______ _______ _____ _____    ______ ____
ROOT
ATOM      1  C   UNL     1       0.002  -0.004   0.002  0.00  0.00    +0.159 A 
ATOM      2  C   UNL     1      -0.013   1.413   0.121  0.00  0.00    +0.300 A 
ATOM      3  O   UNL     1      -1.064   2.022   0.226  0.00  0.00    -0.263 OA
ATOM      4  N   UNL     1       1.172   2.066   0.108  0.00  0.00    -0.180 NA
ATOM      5  C   UNL     1       2.317   1.337  -0.018  0.00  0.00    +0.213 A 
ATOM      6  N   UNL     1       2.270   0.019  -0.125  0.00  0.00    -0.122 NA
ATOM      7  N   UNL     1       1.161  -0.628  -0.116  0.00  0.00    -0.141 NA
ENDROOT
BRANCH   1  12
ATOM      8  C   UNL     1      -4.924  -2.983   0.033  0.00  0.00    +0.044 C 
ATOM      9  C   UNL     1      -3.634  -2.203   0.025  0.00  0.00    -0.050 A 
ATOM     10  C   UNL     1      -3.546  -1.010   0.719  0.00  0.00    +0.004 A 
ATOM     11  C   UNL     1      -2.369  -0.291   0.716  0.00  0.00    +0.010 A 
ATOM     12  C   UNL     1      -1.265  -0.771   0.011  0.00  0.00    +0.008 A 
ATOM     13  C   UNL     1      -1.361  -1.972  -0.692  0.00  0.00    +0.010 A 
ATOM     14  C   UNL     1      -2.543  -2.684  -0.676  0.00  0.00    +0.004 A 
ENDBRANCH   1  12
BRANCH   5  15
ATOM     15  S   UNL     1       3.876   2.159  -0.038  0.00  0.00    -0.075 S 
BRANCH  15  16
ATOM     16  C   UNL     1       4.979   0.735  -0.220  0.00  0.00    +0.173 C 
BRANCH  16  17
ATOM     17  C   UNL     1       6.409   1.210  -0.262  0.00  0.00    +0.229 C 
ATOM     18  O   UNL     1       6.657   2.394  -0.177  0.00  0.00    -0.275 OA
ATOM     19  N   UNL     1       7.411   0.319  -0.393  0.00  0.00    -0.267 N 
ATOM     20  C   UNL     1       8.735   0.758  -0.432  0.00  0.00    +0.168 A 
ATOM     21  C   UNL     1       9.190   2.100  -0.346  0.00  0.00    +0.091 A 
ATOM     22  C   UNL     1      10.536   1.994  -0.431  0.00  0.00    +0.136 A 
ATOM     23  O   UNL     1      10.810   0.688  -0.555  0.00  0.00    -0.358 OA
ATOM     24  N   UNL     1       9.805   0.016  -0.549  0.00  0.00    -0.063 NA
ATOM     25  C   UNL     1      11.533   3.124  -0.393  0.00  0.00    +0.089 C 
ATOM     26  H   UNL     1       7.186  -0.755  -0.469  0.00  0.00    +0.156 HD
ENDBRANCH  16  17
ENDBRANCH  15  16
ENDBRANCH   5  15
TORSDOF 4
