REMARK  Name = ZINC01859364
REMARK  2 active torsions:
REMARK  status: ('A' for Active; 'I' for Inactive)
REMARK    1  A    between atoms: C_1  and  C_2
REMARK    2  A    between atoms: C_2  and  C_4
REMARK                            x       y       z     vdW  Elec       q    Type
REMARK                         _______ _______ _______ _____ _____    ______ ____
ROOT
ATOM      1  C   UNL     1      -1.234   1.761   0.017  0.00  0.00    +0.034 A 
ATOM      2  C   UNL     1      -0.013   1.076   0.021  0.00  0.00    +0.062 A 
ATOM      3  C   UNL     1       1.172   1.783   0.013  0.00  0.00    +0.167 A 
ATOM      4  C   UNL     1       1.152   3.180   0.005  0.00  0.00    +0.167 A 
ATOM      5  C   UNL     1      -0.059   3.860   0.007  0.00  0.00    +0.064 A 
ATOM      6  C   UNL     1      -1.247   3.161   0.015  0.00  0.00    +0.028 A 
ATOM      7  I   UNL     1      -3.069   4.194   0.017  0.00  0.00    -0.043 I 
ATOM      8  O   UNL     1       2.438   3.632  -0.002  0.00  0.00    -0.453 OA
ATOM      9  C   UNL     1       3.243   2.514   0.414  0.00  0.00    +0.466 C 
ATOM     10  O   UNL     1       2.472   1.367   0.010  0.00  0.00    -0.453 OA
ENDROOT
BRANCH   1  12
ATOM     11  C   UNL     1      -2.485  -0.489  -0.102  0.00  0.00    +0.091 C 
ATOM     12  C   UNL     1      -2.498   1.013   0.020  0.00  0.00    +0.161 C 
ATOM     13  O   UNL     1      -3.552   1.605   0.120  0.00  0.00    -0.292 OA
ENDBRANCH   1  12
TORSDOF 1
