REMARK  Name = ZINC12424756
REMARK  7 active torsions:
REMARK  status: ('A' for Active; 'I' for Inactive)
REMARK    1  A    between atoms: C_1  and  C_2
REMARK    2  A    between atoms: C_5  and  C_8
REMARK    3  A    between atoms: C_10  and  C_13
REMARK    4  A    between atoms: C_13  and  O_14
REMARK    5  A    between atoms: O_14  and  C_15
REMARK    6  A    between atoms: C_15  and  C_17
REMARK    7  A    between atoms: C_17  and  C_18
REMARK                            x       y       z     vdW  Elec       q    Type
REMARK                         _______ _______ _______ _____ _____    ______ ____
ROOT
ATOM      1  C   UNL     1      -0.139   1.013  -2.467  0.00  0.00    +0.309 C 
ATOM      2  O   UNL     1       0.805   0.265  -2.376  0.00  0.00    -0.251 OA
ENDROOT
BRANCH   1   3
ATOM      3  O   UNL     1      -0.635   1.324  -3.675  0.00  0.00    -0.455 OA
BRANCH   3   4
ATOM      4  C   UNL     1       0.014   0.725  -4.828  0.00  0.00    +0.330 C 
BRANCH   4   7
ATOM      5  C   UNL     1      -1.249   2.257  -7.825  0.00  0.00    +0.202 A 
ATOM      6  N   UNL     1      -0.376   2.249  -6.792  0.00  0.00    -0.188 NA
ATOM      7  C   UNL     1      -0.674   1.186  -6.087  0.00  0.00    +0.265 A 
ATOM      8  O   UNL     1      -1.706   0.590  -6.692  0.00  0.00    -0.334 OA
ATOM      9  N   UNL     1      -2.024   1.213  -7.683  0.00  0.00    -0.056 NA
BRANCH   5  14
ATOM     10  C   UNL     1      -1.520   6.167 -12.045  0.00  0.00    +0.044 C 
ATOM     11  C   UNL     1      -1.449   5.144 -10.941  0.00  0.00    -0.050 A 
ATOM     12  C   UNL     1      -2.341   4.087 -10.922  0.00  0.00    +0.004 A 
ATOM     13  C   UNL     1      -2.281   3.147  -9.913  0.00  0.00    +0.012 A 
ATOM     14  C   UNL     1      -1.319   3.265  -8.912  0.00  0.00    +0.022 A 
ATOM     15  C   UNL     1      -0.426   4.334  -8.932  0.00  0.00    +0.012 A 
ATOM     16  C   UNL     1      -0.492   5.265  -9.949  0.00  0.00    +0.004 A 
ENDBRANCH   5  14
ENDBRANCH   4   7
ENDBRANCH   3   4
ENDBRANCH   1   3
BRANCH   1  17
ATOM     17  C   UNL     1      -0.761   1.597  -1.225  0.00  0.00    +0.144 C 
BRANCH  17  18
ATOM     18  C   UNL     1      -0.013   1.086   0.008  0.00  0.00    +0.148 C 
ATOM     19  C   UNL     1      -0.695   1.576   1.259  0.00  0.00    +0.231 C 
ATOM     20  O   UNL     1      -1.456   0.826   1.832  0.00  0.00    -0.274 OA
ATOM     21  N   UNL     1      -0.502   2.790   1.765  0.00  0.00    -0.284 N 
ATOM     22  C   UNL     1       0.412   3.740   1.319  0.00  0.00    +0.047 A 
ATOM     23  C   UNL     1       0.255   5.067   1.707  0.00  0.00    +0.024 A 
ATOM     24  C   UNL     1       1.137   6.032   1.262  0.00  0.00    +0.002 A 
ATOM     25  C   UNL     1       2.186   5.691   0.428  0.00  0.00    +0.001 A 
ATOM     26  C   UNL     1       2.357   4.376   0.037  0.00  0.00    +0.016 A 
ATOM     27  C   UNL     1       1.476   3.404   0.483  0.00  0.00    +0.030 A 
ATOM     28  S   UNL     1       1.692   1.720  -0.005  0.00  0.00    -0.110 S 
ATOM     29  H   UNL     1      -1.056   3.039   2.522  0.00  0.00    +0.155 HD
ENDBRANCH  17  18
ENDBRANCH   1  17
TORSDOF 6
