REMARK  Name = ZINC20123504
REMARK  9 active torsions:
REMARK  status: ('A' for Active; 'I' for Inactive)
REMARK    1  A    between atoms: C_1  and  C_2
REMARK    2  A    between atoms: C_7  and  N_12
REMARK    3  A    between atoms: C_9  and  C_11
REMARK    4  A    between atoms: N_12  and  C_13
REMARK    5  A    between atoms: N_23  and  C_24
REMARK    6  A    between atoms: C_24  and  C_25
REMARK    7  A    between atoms: C_25  and  C_26
REMARK    8  A    between atoms: C_26  and  C_27
REMARK    9  A    between atoms: C_26  and  C_28
REMARK                            x       y       z     vdW  Elec       q    Type
REMARK                         _______ _______ _______ _____ _____    ______ ____
ROOT
ATOM      1  C   UNL     1       0.852  -2.484  -2.635  0.00  0.00    +0.051 C 
ATOM      2  C   UNL     1       1.849  -3.614  -2.681  0.00  0.00    -0.032 A 
ATOM      3  C   UNL     1       3.191  -3.699  -2.392  0.00  0.00    +0.004 A 
ATOM      4  C   UNL     1       3.854  -4.907  -2.534  0.00  0.00    +0.000 A 
ATOM      5  C   UNL     1       3.170  -6.030  -2.965  0.00  0.00    +0.001 A 
ATOM      6  C   UNL     1       1.824  -5.955  -3.257  0.00  0.00    +0.013 A 
ATOM      7  C   UNL     1       1.149  -4.741  -3.117  0.00  0.00    +0.040 A 
ATOM      8  C   UNL     1      -0.256  -4.353  -3.346  0.00  0.00    +0.246 C 
ATOM      9  O   UNL     1      -1.131  -5.105  -3.731  0.00  0.00    -0.270 OA
ATOM     10  N   UNL     1      -0.431  -3.050  -3.068  0.00  0.00    -0.307 N 
ENDROOT
BRANCH   1  11
ATOM     11  N   UNL     1       0.738  -1.966  -1.265  0.00  0.00    +0.396 N 
ATOM     12  H   UNL     1       1.598  -2.325  -0.680  0.00  0.00    -0.082 HD
ATOM     13  H   UNL     1      -0.193  -2.348  -0.820  0.00  0.00    -0.082 HD
BRANCH  11  19
ATOM     14  C   UNL     1      -0.759   2.033  -1.229  0.00  0.00    +0.008 C 
ATOM     15  C   UNL     1      -0.019   1.526   0.010  0.00  0.00    -0.013 C 
ATOM     16  C   UNL     1       1.417   2.055  -0.000  0.00  0.00    +0.003 C 
ATOM     17  C   UNL     1       2.133   1.562  -1.259  0.00  0.00    -0.001 C 
ATOM     18  C   UNL     1       2.154   0.032  -1.268  0.00  0.00    -0.015 C 
ATOM     19  C   UNL     1       0.718  -0.497  -1.257  0.00  0.00    -0.066 C 
ATOM     20  C   UNL     1       0.002  -0.004   0.002  0.00  0.00    -0.025 C 
ATOM     21  C   UNL     1       0.742  -0.511   1.242  0.00  0.00    +0.006 C 
ENDBRANCH  11  19
ENDBRANCH   1  11
BRANCH  10  22
ATOM     22  C   UNL     1      -1.694  -2.315  -3.180  0.00  0.00    +0.107 C 
BRANCH  22  23
ATOM     23  C   UNL     1      -1.818  -1.726  -4.586  0.00  0.00    +0.022 C 
BRANCH  23  24
ATOM     24  C   UNL     1      -3.137  -0.959  -4.703  0.00  0.00    -0.016 C 
ATOM     25  C   UNL     1      -3.205  -0.266  -6.065  0.00  0.00    +0.007 C 
ATOM     26  C   UNL     1      -4.308  -1.934  -4.567  0.00  0.00    +0.007 C 
ENDBRANCH  23  24
ENDBRANCH  22  23
ENDBRANCH  10  22
TORSDOF 5
