REMARK  Name = ZINC01735498
REMARK  7 active torsions:
REMARK  status: ('A' for Active; 'I' for Inactive)
REMARK    1  A    between atoms: C_1  and  C_2
REMARK    2  A    between atoms: C_5  and  N_12
REMARK    3  A    between atoms: C_8  and  C_10
REMARK    4  A    between atoms: C_8  and  C_11
REMARK    5  A    between atoms: N_12  and  C_13
REMARK    6  A    between atoms: C_13  and  N_15
REMARK    7  A    between atoms: C_16  and  C_18
REMARK                            x       y       z     vdW  Elec       q    Type
REMARK                         _______ _______ _______ _____ _____    ______ ____
ROOT
ATOM      1  C   UNL     1      -1.151  -3.213  -1.996  0.00  0.00    +0.137 C 
ATOM      2  S   UNL     1      -2.517  -4.057  -1.402  0.00  0.00    -0.018 S 
ENDROOT
BRANCH   1   3
ATOM      3  N   UNL     1      -0.521  -3.648  -3.105  0.00  0.00    -0.264 N 
ATOM      4  C   UNL     1      -0.965  -4.747  -3.746  0.00  0.00    +0.251 C 
ATOM      5  O   UNL     1      -1.935  -5.346  -3.324  0.00  0.00    -0.270 OA
ATOM      6  H   UNL     1       0.253  -3.169  -3.442  0.00  0.00    +0.157 HD
BRANCH   4   7
ATOM      7  C   UNL     1      -0.274  -5.223  -4.961  0.00  0.00    +0.055 A 
ATOM      8  C   UNL     1       0.841  -4.537  -5.449  0.00  0.00    +0.014 A 
ATOM      9  C   UNL     1       1.481  -4.987  -6.584  0.00  0.00    +0.001 A 
ATOM     10  C   UNL     1       1.023  -6.116  -7.240  0.00  0.00    +0.001 A 
ATOM     11  C   UNL     1      -0.079  -6.802  -6.764  0.00  0.00    +0.021 A 
ATOM     12  C   UNL     1      -0.728  -6.365  -5.625  0.00  0.00    +0.053 A 
ATOM     13 CL   UNL     1      -2.108  -7.231  -5.024  0.00  0.00    -0.083 Cl
ENDBRANCH   4   7
ENDBRANCH   1   3
BRANCH   1  14
ATOM     14  N   UNL     1      -0.707  -2.114  -1.355  0.00  0.00    -0.323 N 
ATOM     15  H   UNL     1       0.067  -1.636  -1.692  0.00  0.00    +0.148 HD
BRANCH  14  19
ATOM     16  C   UNL     1       0.991   1.264   0.687  0.00  0.00    +0.007 C 
ATOM     17  C   UNL     1       0.555  -0.170   0.382  0.00  0.00    -0.012 C 
ATOM     18  C   UNL     1      -0.957  -0.207   0.156  0.00  0.00    +0.025 C 
ATOM     19  C   UNL     1      -1.393  -1.641  -0.150  0.00  0.00    +0.073 C 
ATOM     20  C   UNL     1      -1.032  -2.546   1.030  0.00  0.00    +0.028 C 
ATOM     21  C   UNL     1       0.481  -2.510   1.256  0.00  0.00    -0.033 C 
ATOM     22  C   UNL     1       0.916  -1.075   1.562  0.00  0.00    +0.009 C 
ATOM     23  C   UNL     1       1.197  -3.003  -0.002  0.00  0.00    +0.011 C 
ATOM     24  C   UNL     1       0.842  -3.414   2.436  0.00  0.00    +0.011 C 
ENDBRANCH  14  19
ENDBRANCH   1  14
TORSDOF 4
