REMARK  Name = ZINC06077451
REMARK  16 active torsions:
REMARK  status: ('A' for Active; 'I' for Inactive)
REMARK    1  A    between atoms: C_1  and  C_2
REMARK    2  A    between atoms: C_2  and  C_3
REMARK    3  A    between atoms: C_3  and  C_4
REMARK    4  A    between atoms: C_3  and  C_5
REMARK    5  A    between atoms: C_3  and  N_6
REMARK    6  A    between atoms: C_7  and  C_9
REMARK    7  A    between atoms: C_9  and  C_11
REMARK    8  A    between atoms: C_9  and  N_20
REMARK    9  A    between atoms: C_14  and  N_17
REMARK   10  A    between atoms: N_17  and  C_18
REMARK   11  A    between atoms: N_17  and  C_19
REMARK   12  A    between atoms: N_20  and  C_21
REMARK   13  A    between atoms: C_21  and  C_22
REMARK   14  A    between atoms: C_27  and  C_29
REMARK   15  A    between atoms: C_30  and  N_37
REMARK   16  A    between atoms: C_31  and  C_34
REMARK                            x       y       z     vdW  Elec       q    Type
REMARK                         _______ _______ _______ _____ _____    ______ ____
ROOT
ATOM      1  N   UNL     1       0.312   2.171   1.702  0.00  0.00    -0.274 N 
ATOM      2  C   UNL     1       0.819   1.868   2.913  0.00  0.00    +0.258 C 
ATOM      3  O   UNL     1       1.817   1.177   2.999  0.00  0.00    -0.269 OA
ENDROOT
BRANCH   2   4
ATOM      4  C   UNL     1       0.170   2.370   4.126  0.00  0.00    +0.115 A 
ATOM      5  C   UNL     1       0.611   2.326   5.449  0.00  0.00    +0.076 A 
ATOM      6  C   UNL     1      -0.291   2.917   6.334  0.00  0.00    +0.155 A 
ATOM      7  N   UNL     1      -1.412   3.421   5.867  0.00  0.00    -0.203 NA
ATOM      8  S   UNL     1      -1.399   3.193   4.308  0.00  0.00    +0.019 S 
BRANCH   6   9
ATOM      9  C   UNL     1       0.005   2.969   7.777  0.00  0.00    +0.262 C 
ATOM     10  O   UNL     1       1.044   2.501   8.201  0.00  0.00    -0.269 OA
ATOM     11  N   UNL     1      -0.874   3.537   8.626  0.00  0.00    -0.324 N 
ATOM     12  H   UNL     1      -1.703   3.911   8.287  0.00  0.00    +0.145 HD
ATOM     13  H   UNL     1      -0.679   3.572   9.575  0.00  0.00    +0.145 HD
ENDBRANCH   6   9
BRANCH   5  14
ATOM     14  N   UNL     1       1.817   1.760   5.842  0.00  0.00    -0.355 N 
ATOM     15  H   UNL     1       2.405   1.365   5.180  0.00  0.00    +0.142 HD
ATOM     16  H   UNL     1       2.070   1.759   6.778  0.00  0.00    +0.142 HD
ENDBRANCH   5  14
ENDBRANCH   2   4
BRANCH   1  17
ATOM     17  C   UNL     1       0.915   1.605   0.493  0.00  0.00    +0.193 C 
BRANCH  17  18
ATOM     18  C   UNL     1       0.374   0.216   0.266  0.00  0.00    -0.018 A 
ATOM     19  C   UNL     1      -0.960  -0.053   0.511  0.00  0.00    +0.008 A 
ATOM     20  C   UNL     1      -1.459  -1.323   0.298  0.00  0.00    +0.023 A 
ATOM     21  C   UNL     1      -0.618  -2.333  -0.152  0.00  0.00    +0.029 A 
ATOM     22  C   UNL     1       0.723  -2.059  -0.392  0.00  0.00    +0.023 A 
ATOM     23  C   UNL     1       1.215  -0.786  -0.183  0.00  0.00    +0.008 A 
BRANCH  21  24
ATOM     24  N   UNL     1      -1.119  -3.619  -0.362  0.00  0.00    -0.336 N 
ATOM     25  C   UNL     1      -0.247  -4.665  -0.904  0.00  0.00    +0.129 C 
ATOM     26  C   UNL     1      -2.515  -3.924  -0.041  0.00  0.00    +0.129 C 
ENDBRANCH  21  24
ENDBRANCH  17  18
BRANCH  17  28
ATOM     27  N   UNL     1       0.744   2.003  -1.942  0.00  0.00    -0.308 N 
ATOM     28  C   UNL     1       0.578   2.475  -0.691  0.00  0.00    +0.239 C 
ATOM     29  O   UNL     1       0.159   3.599  -0.517  0.00  0.00    -0.273 OA
ATOM     30  H   UNL     1       0.998   1.077  -2.082  0.00  0.00    +0.149 HD
BRANCH  27  31
ATOM     31  C   UNL     1       0.540   2.888  -3.092  0.00  0.00    +0.029 C 
ATOM     32  C   UNL     1      -0.915   3.358  -3.122  0.00  0.00    +0.031 C 
ATOM     33  C   UNL     1       1.465   4.101  -2.972  0.00  0.00    +0.031 C 
BRANCH  31  35
ATOM     34  C   UNL     1       0.645   3.055  -5.582  0.00  0.00    +0.006 C 
ATOM     35  C   UNL     1       0.858   2.130  -4.382  0.00  0.00    +0.022 C 
ENDBRANCH  31  35
ENDBRANCH  27  31
ENDBRANCH  17  28
ENDBRANCH   1  17
BRANCH   1  36
ATOM     36  C   UNL     1      -0.842   3.068   1.595  0.00  0.00    +0.183 C 
BRANCH  36  37
ATOM     37  C   UNL     1      -0.399   4.488   1.837  0.00  0.00    +0.122 A 
ATOM     38  C   UNL     1      -0.393   5.477   0.925  0.00  0.00    +0.046 A 
ATOM     39  C   UNL     1       0.095   6.632   1.577  0.00  0.00    +0.041 A 
ATOM     40  C   UNL     1       0.358   6.281   2.848  0.00  0.00    +0.195 A 
ATOM     41  O   UNL     1       0.052   4.982   3.002  0.00  0.00    -0.466 OA
ENDBRANCH  36  37
ENDBRANCH   1  36
TORSDOF 11
