REMARK  Name = ZINC20467875
REMARK  9 active torsions:
REMARK  status: ('A' for Active; 'I' for Inactive)
REMARK    1  A    between atoms: C_1  and  C_2
REMARK    2  A    between atoms: C_2  and  C_3
REMARK    3  A    between atoms: C_2  and  C_4
REMARK    4  A    between atoms: C_2  and  C_5
REMARK    5  A    between atoms: C_12  and  N_16
REMARK    6  A    between atoms: C_13  and  C_14
REMARK    7  A    between atoms: C_17  and  C_19
REMARK    8  A    between atoms: C_19  and  N_20
REMARK    9  A    between atoms: C_26  and  C_28
REMARK                            x       y       z     vdW  Elec       q    Type
REMARK                         _______ _______ _______ _____ _____    ______ ____
ROOT
ATOM      1  N   UNL     1      -1.428   3.423   7.468  0.00  0.00    -0.281 N 
ATOM      2  C   UNL     1      -0.918   2.606   8.411  0.00  0.00    +0.201 C 
ATOM      3  O   UNL     1      -0.263   1.639   8.085  0.00  0.00    -0.278 OA
ATOM      4  H   UNL     1      -2.022   4.300   7.763  0.00  0.00    +0.155 HD
ENDROOT
BRANCH   1  11
ATOM      5  C   UNL     1      -0.735   2.019   1.269  0.00  0.00    -0.000 C 
ATOM      6  C   UNL     1      -0.751   3.550   1.284  0.00  0.00    +0.009 C 
ATOM      7  C   UNL     1      -1.668   4.051   2.400  0.00  0.00    +0.037 C 
ATOM      8  C   UNL     1      -1.267   3.378   3.707  0.00  0.00    -0.018 A 
ATOM      9  C   UNL     1      -0.519   2.252   3.708  0.00  0.00    -0.004 A 
ATOM     10  S   UNL     1      -0.311   1.850   5.420  0.00  0.00    -0.077 S 
ATOM     11  C   UNL     1      -1.204   3.157   6.124  0.00  0.00    +0.090 A 
ATOM     12  C   UNL     1      -1.642   3.873   5.020  0.00  0.00    +0.084 A 
ATOM     13  C   UNL     1       0.010   1.518   2.515  0.00  0.00    +0.047 C 
BRANCH   5  15
ATOM     14  C   UNL     1       0.002  -0.004   0.002  0.00  0.00    +0.011 C 
ATOM     15  C   UNL     1      -0.019   1.526   0.010  0.00  0.00    -0.035 C 
ATOM     16  C   UNL     1       1.417   2.055  -0.000  0.00  0.00    +0.011 C 
ATOM     17  C   UNL     1      -0.759   2.033  -1.229  0.00  0.00    +0.011 C 
ENDBRANCH   5  15
BRANCH  12  18
ATOM     18  C   UNL     1      -2.435   5.056   5.168  0.00  0.00    +0.102 C 
ATOM     19  N   UNL     1      -3.064   5.995   5.286  0.00  0.00    -0.191 NA
ENDBRANCH  12  18
ENDBRANCH   1  11
BRANCH   2  20
ATOM     20  C   UNL     1      -1.161   2.895   9.870  0.00  0.00    +0.019 C 
BRANCH  20  21
ATOM     21  N   UNL     1      -0.505   1.866  10.688  0.00  0.00    +0.387 N 
ATOM     22  C   UNL     1      -1.125   0.551  10.477  0.00  0.00    -0.059 C 
ATOM     23  C   UNL     1      -0.304  -0.519  11.203  0.00  0.00    +0.089 C 
ATOM     24  N   UNL     1      -0.157  -0.120  12.611  0.00  0.00    -0.303 N 
ATOM     25  C   UNL     1       0.330   1.237  12.903  0.00  0.00    +0.089 C 
ATOM     26  C   UNL     1      -0.516   2.239  12.109  0.00  0.00    -0.059 C 
ATOM     27  C   UNL     1      -0.461  -0.975  13.608  0.00  0.00    +0.244 C 
ATOM     28  O   UNL     1      -0.334  -0.629  14.763  0.00  0.00    -0.273 OA
ATOM     29  H   UNL     1       0.545   1.796  10.369  0.00  0.00    -0.081 HD
BRANCH  27  30
ATOM     30  C   UNL     1      -0.958  -2.361  13.287  0.00  0.00    +0.204 C 
ATOM     31  C   UNL     1       0.151  -3.164  12.581  0.00  0.00    +0.043 C 
ATOM     32  C   UNL     1       0.368  -4.395  13.494  0.00  0.00    +0.031 C 
ATOM     33  C   UNL     1      -0.962  -4.449  14.288  0.00  0.00    +0.161 C 
ATOM     34  O   UNL     1      -1.286  -3.056  14.501  0.00  0.00    -0.367 OA
ENDBRANCH  27  30
ENDBRANCH  20  21
ENDBRANCH   2  20
TORSDOF 6
