REMARK  Name = ZINC62314654
REMARK  11 active torsions:
REMARK  status: ('A' for Active; 'I' for Inactive)
REMARK    1  A    between atoms: C_1  and  C_2
REMARK    2  A    between atoms: C_7  and  C_15
REMARK    3  A    between atoms: N_9  and  C_10
REMARK    4  A    between atoms: C_10  and  C_11
REMARK    5  A    between atoms: C_11  and  C_12
REMARK    6  A    between atoms: C_12  and  O_13
REMARK    7  A    between atoms: O_13  and  C_14
REMARK    8  A    between atoms: C_16  and  C_18
REMARK    9  A    between atoms: C_18  and  C_19
REMARK   10  A    between atoms: C_19  and  C_20
REMARK   11  A    between atoms: C_20  and  C_21
REMARK                            x       y       z     vdW  Elec       q    Type
REMARK                         _______ _______ _______ _____ _____    ______ ____
ROOT
ATOM      1  C   UNL     1      -0.776   1.393   0.669  0.00  0.00    +0.026 C 
ATOM      2  C   UNL     1      -0.390  -0.046   0.320  0.00  0.00    +0.071 C 
ATOM      3  C   UNL     1      -1.641  -0.930   0.339  0.00  0.00    +0.126 C 
ATOM      4  N   UNL     1      -1.227  -2.329   0.150  0.00  0.00    -0.299 N 
ATOM      5  C   UNL     1      -0.164  -2.863   1.014  0.00  0.00    +0.126 C 
ATOM      6  C   UNL     1       1.029  -1.903   0.968  0.00  0.00    +0.071 C 
ATOM      7  N   UNL     1       0.576  -0.547   1.307  0.00  0.00    -0.294 NA
ATOM      8  C   UNL     1       2.088  -2.355   1.976  0.00  0.00    +0.026 C 
ATOM      9  C   UNL     1      -1.808  -3.100  -0.791  0.00  0.00    +0.216 C 
ATOM     10  O   UNL     1      -2.684  -2.643  -1.494  0.00  0.00    -0.276 OA
ENDROOT
BRANCH   7  11
ATOM     11  C   UNL     1       1.715   0.371   1.442  0.00  0.00    +0.087 C 
BRANCH  11  12
ATOM     12  C   UNL     1       2.485   0.426   0.120  0.00  0.00    +0.043 C 
BRANCH  12  13
ATOM     13  C   UNL     1       3.638   1.424   0.243  0.00  0.00    +0.160 C 
BRANCH  13  14
ATOM     14  O   UNL     1       4.356   1.477  -0.991  0.00  0.00    -0.383 OA
ATOM     15  C   UNL     1       5.460   2.384  -0.983  0.00  0.00    +0.193 C 
ENDBRANCH  13  14
ENDBRANCH  12  13
ENDBRANCH  11  12
ENDBRANCH   7  11
BRANCH   9  16
ATOM     16  C   UNL     1      -1.369  -4.531  -0.968  0.00  0.00    +0.096 C 
BRANCH  16  17
ATOM     17  C   UNL     1      -2.180  -5.178  -2.092  0.00  0.00    +0.014 C 
BRANCH  17  18
ATOM     18  C   UNL     1      -1.734  -6.631  -2.272  0.00  0.00    +0.035 C 
BRANCH  18  19
ATOM     19  C   UNL     1      -2.534  -7.268  -3.379  0.00  0.00    -0.047 A 
ATOM     20  C   UNL     1      -3.726  -7.907  -3.091  0.00  0.00    +0.005 A 
ATOM     21  C   UNL     1      -4.459  -8.491  -4.106  0.00  0.00    +0.020 A 
ATOM     22  C   UNL     1      -4.000  -8.438  -5.410  0.00  0.00    +0.041 A 
ATOM     23  C   UNL     1      -2.807  -7.799  -5.698  0.00  0.00    +0.020 A 
ATOM     24  C   UNL     1      -2.078  -7.209  -4.683  0.00  0.00    +0.005 A 
ATOM     25 CL   UNL     1      -4.921  -9.172  -6.686  0.00  0.00    -0.084 Cl
ENDBRANCH  18  19
ENDBRANCH  17  18
ENDBRANCH  16  17
ENDBRANCH   9  16
TORSDOF 8
