REMARK  Name = ZINC34830606
REMARK  8 active torsions:
REMARK  status: ('A' for Active; 'I' for Inactive)
REMARK    1  A    between atoms: C_1  and  C_2
REMARK    2  A    between atoms: C_5  and  C_8
REMARK    3  A    between atoms: N_17  and  C_18
REMARK    4  A    between atoms: C_18  and  C_19
REMARK    5  A    between atoms: C_19  and  C_20
REMARK    6  A    between atoms: N_25  and  S_30
REMARK    7  A    between atoms: C_26  and  C_29
REMARK    8  A    between atoms: S_30  and  C_33
REMARK                            x       y       z     vdW  Elec       q    Type
REMARK                         _______ _______ _______ _____ _____    ______ ____
ROOT
ATOM      1  C   UNL     1      -3.095  -4.815   1.929  0.00  0.00    +0.077 C 
ENDROOT
BRANCH   1   2
ATOM      2  C   UNL     1      -4.519  -4.417   1.639  0.00  0.00    +0.214 C 
ATOM      3  O   UNL     1      -4.791  -3.853   0.600  0.00  0.00    -0.276 OA
ATOM      4  N   UNL     1      -5.490  -4.686   2.533  0.00  0.00    -0.299 N 
ATOM      5  C   UNL     1      -5.174  -5.363   3.799  0.00  0.00    +0.125 C 
ATOM      6  C   UNL     1      -6.053  -6.614   3.918  0.00  0.00    +0.129 C 
ATOM      7  N   UNL     1      -7.447  -6.237   3.646  0.00  0.00    -0.171 NA
ATOM      8  C   UNL     1      -7.763  -5.560   2.381  0.00  0.00    +0.094 C 
ATOM      9  C   UNL     1      -6.883  -4.304   2.264  0.00  0.00    +0.128 C 
ATOM     10  C   UNL     1      -7.482  -6.503   1.209  0.00  0.00    +0.027 C 
BRANCH   7  11
ATOM     11  S   UNL     1      -8.640  -6.568   4.745  0.00  0.00    +0.061 S 
ATOM     12  O   UNL     1      -9.860  -6.619   4.018  0.00  0.00    -0.153 OA
ATOM     13  O   UNL     1      -8.177  -7.657   5.532  0.00  0.00    -0.153 OA
BRANCH  11  14
ATOM     14  C   UNL     1      -8.755  -5.180   5.825  0.00  0.00    +0.105 A 
ATOM     15  C   UNL     1      -7.986  -5.133   6.973  0.00  0.00    +0.028 A 
ATOM     16  C   UNL     1      -8.076  -4.044   7.820  0.00  0.00    +0.002 A 
ATOM     17  C   UNL     1      -8.934  -3.002   7.518  0.00  0.00    +0.000 A 
ATOM     18  C   UNL     1      -9.701  -3.050   6.370  0.00  0.00    +0.002 A 
ATOM     19  C   UNL     1      -9.608  -4.137   5.521  0.00  0.00    +0.028 A 
ENDBRANCH  11  14
ENDBRANCH   7  11
ENDBRANCH   1   2
BRANCH   1  20
ATOM     20  C   UNL     1      -2.200  -4.396   0.761  0.00  0.00    -0.068 C 
BRANCH  20  29
ATOM     21  C   UNL     1       0.059  -4.275  -0.021  0.00  0.00    -0.006 C 
ATOM     22  C   UNL     1       1.481  -4.770   0.225  0.00  0.00    -0.047 A 
ATOM     23  C   UNL     1       2.616  -4.189  -0.335  0.00  0.00    +0.010 A 
ATOM     24  C   UNL     1       3.842  -4.694  -0.058  0.00  0.00    +0.045 A 
ATOM     25  S   UNL     1       3.443  -6.051   1.035  0.00  0.00    -0.101 S 
ATOM     26  C   UNL     1       1.686  -5.844   1.039  0.00  0.00    -0.010 A 
ATOM     27  C   UNL     1       0.633  -6.634   1.746  0.00  0.00    +0.024 C 
ATOM     28  C   UNL     1      -0.725  -6.249   1.134  0.00  0.00    -0.072 C 
ATOM     29  N   UNL     1      -0.811  -4.785   1.044  0.00  0.00    +0.388 N 
ATOM     30  H   UNL     1      -0.528  -4.382   1.925  0.00  0.00    -0.080 HD
BRANCH  21  35
ATOM     31  C   UNL     1      -0.018   1.503   0.010  0.00  0.00    +0.044 C 
ATOM     32  C   UNL     1       0.002  -0.004   0.002  0.00  0.00    -0.050 A 
ATOM     33  C   UNL     1       0.006  -0.689  -1.199  0.00  0.00    +0.003 A 
ATOM     34  C   UNL     1       0.025  -2.071  -1.206  0.00  0.00    +0.002 A 
ATOM     35  C   UNL     1       0.040  -2.768  -0.013  0.00  0.00    -0.057 A 
ATOM     36  C   UNL     1       0.037  -2.084   1.188  0.00  0.00    +0.002 A 
ATOM     37  C   UNL     1       0.023  -0.702   1.195  0.00  0.00    +0.003 A 
ENDBRANCH  21  35
ENDBRANCH  20  29
ENDBRANCH   1  20
TORSDOF 6
