REMARK  Name = ZINC62924284
REMARK  4 active torsions:
REMARK  status: ('A' for Active; 'I' for Inactive)
REMARK    1  A    between atoms: C_1  and  C_2
REMARK    2  A    between atoms: C_2  and  C_3
REMARK    3  A    between atoms: C_3  and  C_20
REMARK    4  A    between atoms: N_10  and  C_11
REMARK                            x       y       z     vdW  Elec       q    Type
REMARK                         _______ _______ _______ _____ _____    ______ ____
ROOT
ATOM      1  C   UNL     1      -1.433  -0.534   0.013  0.00  0.00    +0.089 C 
ATOM      2  C   UNL     1      -1.435  -2.078   0.079  0.00  0.00    +0.039 C 
ATOM      3  C   UNL     1      -1.633  -2.358   1.590  0.00  0.00    +0.110 C 
ATOM      4  N   UNL     1      -2.576  -1.297   2.011  0.00  0.00    -0.285 N 
ATOM      5  C   UNL     1      -2.162  -0.078   1.291  0.00  0.00    +0.127 C 
ATOM      6  C   UNL     1      -3.603  -1.419   2.875  0.00  0.00    +0.302 C 
ATOM      7  O   UNL     1      -4.301  -0.457   3.131  0.00  0.00    -0.253 OA
ATOM      8  N   UNL     1      -3.856  -2.609   3.456  0.00  0.00    -0.298 N 
ATOM      9  H   UNL     1      -3.300  -3.377   3.252  0.00  0.00    +0.150 HD
ENDROOT
BRANCH   8  10
ATOM     10  C   UNL     1      -4.973  -2.742   4.396  0.00  0.00    +0.061 C 
ATOM     11  C   UNL     1      -4.516  -2.329   5.797  0.00  0.00    -0.056 C 
ATOM     12  N   UNL     1      -4.667  -3.452   6.725  0.00  0.00    +0.381 N 
ATOM     13  C   UNL     1      -6.072  -3.855   6.823  0.00  0.00    -0.078 C 
ATOM     14  C   UNL     1      -6.580  -4.319   5.456  0.00  0.00    -0.014 C 
ATOM     15  C   UNL     1      -5.440  -4.203   4.435  0.00  0.00    +0.004 C 
ATOM     16  C   UNL     1      -4.271  -5.072   4.919  0.00  0.00    -0.014 C 
ATOM     17  C   UNL     1      -3.833  -4.582   6.307  0.00  0.00    -0.078 C 
ATOM     18  H   UNL     1      -4.364  -3.153   7.640  0.00  0.00    -0.082 HD
ENDBRANCH   8  10
BRANCH   1  19
ATOM     19  C   UNL     1      -2.175  -0.059  -1.210  0.00  0.00    +0.364 C 
ATOM     20  O   UNL     1      -1.607   0.636  -2.036  0.00  0.00    -0.246 OA
ATOM     21  O   UNL     1      -3.343  -0.368  -1.373  0.00  0.00    -0.246 OA
ENDBRANCH   1  19
BRANCH   1  23
ATOM     22  C   UNL     1      -0.019   1.526   0.010  0.00  0.00    +0.005 C 
ATOM     23  C   UNL     1       0.002  -0.004   0.002  0.00  0.00    +0.016 C 
ENDBRANCH   1  23
TORSDOF 3
