REMARK  Name = ZINC28372688
REMARK  8 active torsions:
REMARK  status: ('A' for Active; 'I' for Inactive)
REMARK    1  A    between atoms: C_7  and  C_11
REMARK    2  A    between atoms: C_14  and  S_23
REMARK    3  A    between atoms: N_15  and  C_16
REMARK    4  A    between atoms: C_16  and  C_17
REMARK    5  A    between atoms: S_23  and  C_24
REMARK    6  A    between atoms: C_24  and  C_25
REMARK    7  A    between atoms: N_27  and  C_28
REMARK    8  A    between atoms: C_31  and  C_34
REMARK                            x       y       z     vdW  Elec       q    Type
REMARK                         _______ _______ _______ _____ _____    ______ ____
ROOT
ATOM      1  C   UNL     1      -2.747   1.054   0.164  0.00  0.00    +0.167 A 
ATOM      2  N   UNL     1      -3.721   1.934   0.202  0.00  0.00    -0.128 NA
ATOM      3  N   UNL     1      -4.844   1.358  -0.042  0.00  0.00    -0.122 NA
ATOM      4  C   UNL     1      -4.658   0.074  -0.242  0.00  0.00    +0.192 A 
ATOM      5  N   UNL     1      -3.317  -0.166  -0.119  0.00  0.00    -0.300 N 
ENDROOT
BRANCH   1  12
ATOM      6  C   UNL     1      -0.429   3.515   3.395  0.00  0.00    +0.001 A 
ATOM      7  C   UNL     1       0.945   3.492   3.199  0.00  0.00    +0.002 A 
ATOM      8  C   UNL     1       1.493   2.793   2.146  0.00  0.00    +0.026 A 
ATOM      9  C   UNL     1       0.663   2.103   1.268  0.00  0.00    +0.047 A 
ATOM     10  C   UNL     1      -0.727   2.131   1.471  0.00  0.00    +0.010 A 
ATOM     11  C   UNL     1      -1.261   2.844   2.543  0.00  0.00    +0.011 A 
ATOM     12  C   UNL     1      -1.312   1.323   0.388  0.00  0.00    +0.044 A 
ATOM     13  C   UNL     1      -0.276   0.871  -0.364  0.00  0.00    +0.095 A 
ATOM     14  N   UNL     1       0.901   1.333   0.151  0.00  0.00    -0.360 N 
ATOM     15  H   UNL     1       1.933   1.173  -0.197  0.00  0.00    +0.165 HD
ENDBRANCH   1  12
BRANCH   5  16
ATOM     16  C   UNL     1      -2.630  -1.452  -0.258  0.00  0.00    +0.157 C 
BRANCH  16  17
ATOM     17  C   UNL     1      -2.444  -2.084   1.123  0.00  0.00    +0.138 C 
ATOM     18  C   UNL     1      -1.616  -3.381   0.998  0.00  0.00    +0.035 C 
ATOM     19  C   UNL     1      -2.323  -4.320   2.015  0.00  0.00    +0.031 C 
ATOM     20  C   UNL     1      -3.794  -3.854   1.875  0.00  0.00    +0.160 C 
ATOM     21  O   UNL     1      -3.719  -2.434   1.673  0.00  0.00    -0.375 OA
ENDBRANCH  16  17
ENDBRANCH   5  16
BRANCH   4  22
ATOM     22  S   UNL     1      -5.904  -1.119  -0.603  0.00  0.00    -0.077 S 
BRANCH  22  23
ATOM     23  C   UNL     1      -7.368  -0.055  -0.598  0.00  0.00    +0.173 C 
BRANCH  23  24
ATOM     24  C   UNL     1      -8.592  -0.883  -0.893  0.00  0.00    +0.227 C 
ATOM     25  O   UNL     1      -8.485  -2.076  -1.087  0.00  0.00    -0.275 OA
ATOM     26  N   UNL     1      -9.806  -0.299  -0.941  0.00  0.00    -0.285 N 
ATOM     27  H   UNL     1      -9.895   0.793  -0.844  0.00  0.00    +0.155 HD
BRANCH  26  28
ATOM     28  C   UNL     1     -10.948  -1.079  -1.114  0.00  0.00    +0.033 A 
ATOM     29  C   UNL     1     -10.901  -2.211  -1.922  0.00  0.00    +0.024 A 
ATOM     30  C   UNL     1     -12.026  -2.986  -2.090  0.00  0.00    +0.015 A 
ATOM     31  C   UNL     1     -13.219  -2.630  -1.457  0.00  0.00    +0.037 A 
ATOM     32  C   UNL     1     -13.265  -1.490  -0.650  0.00  0.00    +0.015 A 
ATOM     33  C   UNL     1     -12.135  -0.722  -0.482  0.00  0.00    +0.024 A 
BRANCH  31  34
ATOM     34  C   UNL     1     -14.429  -3.455  -1.640  0.00  0.00    +0.242 C 
ATOM     35  O   UNL     1     -15.467  -3.143  -1.089  0.00  0.00    -0.270 OA
ATOM     36  N   UNL     1     -14.383  -4.554  -2.419  0.00  0.00    -0.325 N 
ATOM     37  H   UNL     1     -15.285  -5.170  -2.555  0.00  0.00    +0.145 HD
ATOM     38  H   UNL     1     -13.444  -4.837  -2.917  0.00  0.00    +0.145 HD
ENDBRANCH  31  34
ENDBRANCH  26  28
ENDBRANCH  23  24
ENDBRANCH  22  23
ENDBRANCH   4  22
TORSDOF 8
