REMARK  Name = ZINC01875807
REMARK  8 active torsions:
REMARK  status: ('A' for Active; 'I' for Inactive)
REMARK    1  A    between atoms: C_1  and  C_2
REMARK    2  A    between atoms: C_5  and  N_8
REMARK    3  A    between atoms: C_9  and  C_31
REMARK    4  A    between atoms: C_11  and  C_14
REMARK    5  A    between atoms: C_12  and  C_13
REMARK    6  A    between atoms: C_16  and  O_30
REMARK    7  A    between atoms: N_20  and  C_23
REMARK    8  A    between atoms: C_28  and  C_29
REMARK                            x       y       z     vdW  Elec       q    Type
REMARK                         _______ _______ _______ _____ _____    ______ ____
ROOT
ATOM      1  C   UNL     1      -4.962   2.632   7.419  0.00  0.00    +0.028 C 
ATOM      2  C   UNL     1      -4.803   3.063   8.730  0.00  0.00    +0.097 C 
ATOM      3  C   UNL     1      -5.715   2.628   9.797  0.00  0.00    +0.218 C 
ATOM      4  N   UNL     1      -5.508   3.075  11.025  0.00  0.00    -0.127 NA
ATOM      5  C   UNL     1      -4.505   3.899  11.317  0.00  0.00    +0.340 C 
ATOM      6  O   UNL     1      -4.379   4.267  12.472  0.00  0.00    -0.250 OA
ATOM      7  N   UNL     1      -3.625   4.347  10.409  0.00  0.00    -0.188 N 
ATOM      8  C   UNL     1      -3.707   3.971   9.115  0.00  0.00    +0.263 C 
ATOM      9  O   UNL     1      -2.905   4.372   8.292  0.00  0.00    -0.269 OA
ENDROOT
BRANCH   1  13
ATOM     10  N   UNL     1      -2.923   3.470   4.591  0.00  0.00    -0.317 N 
ATOM     11  C   UNL     1      -3.147   4.726   5.083  0.00  0.00    +0.022 A 
ATOM     12  C   UNL     1      -3.916   4.642   6.181  0.00  0.00    +0.031 A 
ATOM     13  C   UNL     1      -4.191   3.212   6.386  0.00  0.00    -0.003 A 
ATOM     14  C   UNL     1      -3.543   2.549   5.352  0.00  0.00    +0.028 A 
ATOM     15  C   UNL     1      -3.534   1.060   5.123  0.00  0.00    +0.064 C 
ATOM     16  C   UNL     1      -2.615   6.004   4.487  0.00  0.00    +0.064 C 
BRANCH  10  21
ATOM     17  C   UNL     1       0.168   2.303  -0.023  0.00  0.00    +0.044 C 
ATOM     18  C   UNL     1      -0.653   2.613   1.202  0.00  0.00    -0.050 A 
ATOM     19  C   UNL     1      -2.010   2.349   1.208  0.00  0.00    +0.005 A 
ATOM     20  C   UNL     1      -2.764   2.627   2.332  0.00  0.00    +0.026 A 
ATOM     21  C   UNL     1      -2.160   3.182   3.452  0.00  0.00    +0.047 A 
ATOM     22  C   UNL     1      -0.798   3.451   3.441  0.00  0.00    +0.026 A 
ATOM     23  C   UNL     1      -0.048   3.166   2.316  0.00  0.00    +0.005 A 
ENDBRANCH  10  21
ENDBRANCH   1  13
BRANCH   7  24
ATOM     24  C   UNL     1      -2.600   5.213  10.812  0.00  0.00    +0.049 A 
ATOM     25  C   UNL     1      -1.381   4.699  11.235  0.00  0.00    +0.024 A 
ATOM     26  C   UNL     1      -0.373   5.556  11.632  0.00  0.00    +0.002 A 
ATOM     27  C   UNL     1      -0.576   6.923  11.608  0.00  0.00    +0.000 A 
ATOM     28  C   UNL     1      -1.789   7.438  11.188  0.00  0.00    +0.005 A 
ATOM     29  C   UNL     1      -2.799   6.587  10.784  0.00  0.00    -0.029 A 
ATOM     30  C   UNL     1      -4.118   7.148  10.320  0.00  0.00    +0.045 C 
ENDBRANCH   7  24
BRANCH   3  31
ATOM     31  O   UNL     1      -6.742   1.793   9.531  0.00  0.00    -0.493 OA
ATOM     32  H   UNL     1      -7.279   1.571  10.303  0.00  0.00    +0.294 HD
ENDBRANCH   3  31
TORSDOF 4
