REMARK  Name = ZINC39791524
REMARK  10 active torsions:
REMARK  status: ('A' for Active; 'I' for Inactive)
REMARK    1  A    between atoms: C_1  and  C_2
REMARK    2  A    between atoms: C_2  and  O_3
REMARK    3  A    between atoms: O_3  and  C_4
REMARK    4  A    between atoms: C_9  and  C_10
REMARK    5  A    between atoms: N_12  and  C_13
REMARK    6  A    between atoms: C_13  and  C_15
REMARK    7  A    between atoms: C_13  and  C_18
REMARK    8  A    between atoms: C_15  and  C_16
REMARK    9  A    between atoms: C_15  and  C_17
REMARK   10  A    between atoms: C_23  and  C_26
REMARK                            x       y       z     vdW  Elec       q    Type
REMARK                         _______ _______ _______ _____ _____    ______ ____
ROOT
ATOM      1  C   UNL     1      -7.255  -2.004   0.770  0.00  0.00    +0.236 C 
ATOM      2  O   UNL     1      -7.424  -3.139   0.377  0.00  0.00    -0.274 OA
ATOM      3  N   UNL     1      -7.978  -1.536   1.807  0.00  0.00    -0.296 N 
ATOM      4  C   UNL     1      -9.056  -2.337   2.411  0.00  0.00    +0.113 C 
ATOM      5  C   UNL     1      -8.675  -2.624   3.866  0.00  0.00    +0.054 C 
ATOM      6  C   UNL     1      -8.179  -1.375   4.533  0.00  0.00    -0.043 C 
ATOM      7  C   UNL     1      -7.747  -0.303   3.880  0.00  0.00    -0.004 C 
ATOM      8  C   UNL     1      -7.716  -0.209   2.383  0.00  0.00    +0.135 C 
ENDROOT
BRANCH   6   9
ATOM      9  C   UNL     1      -8.171  -1.338   5.942  0.00  0.00    -0.016 C 
ATOM     10  C   UNL     1      -8.451  -2.385   6.811  0.00  0.00    +0.003 A 
ATOM     11  C   UNL     1      -8.810  -3.736   6.596  0.00  0.00    +0.010 A 
ATOM     12  C   UNL     1      -9.029  -4.550   7.657  0.00  0.00    +0.001 A 
ATOM     13  C   UNL     1      -8.909  -4.090   8.972  0.00  0.00    +0.002 A 
ATOM     14  C   UNL     1      -8.568  -2.811   9.254  0.00  0.00    +0.026 A 
ATOM     15  C   UNL     1      -8.323  -1.895   8.196  0.00  0.00    +0.043 A 
ATOM     16  N   UNL     1      -7.985  -0.624   8.205  0.00  0.00    -0.380 N 
ATOM     17  C   UNL     1      -7.850  -0.151   6.823  0.00  0.00    +0.149 C 
ATOM     18  H   UNL     1      -7.843  -0.086   8.999  0.00  0.00    +0.160 HD
ENDBRANCH   6   9
BRANCH   1  19
ATOM     19  C   UNL     1      -6.237  -1.117   0.100  0.00  0.00    +0.162 C 
BRANCH  19  22
ATOM     20  C   UNL     1      -3.919  -1.397  -0.595  0.00  0.00    +0.248 C 
ATOM     21  O   UNL     1      -3.727  -0.228  -0.324  0.00  0.00    -0.270 OA
ATOM     22  N   UNL     1      -5.140  -1.939  -0.419  0.00  0.00    -0.300 N 
ATOM     23  H   UNL     1      -5.293  -2.872  -0.635  0.00  0.00    +0.150 HD
BRANCH  20  29
ATOM     24  C   UNL     1      -1.542  -1.666  -1.303  0.00  0.00    +0.133 A 
ATOM     25  C   UNL     1      -0.510  -2.454  -1.789  0.00  0.00    +0.046 A 
ATOM     26  C   UNL     1      -0.737  -3.781  -2.095  0.00  0.00    +0.004 A 
ATOM     27  C   UNL     1      -1.994  -4.335  -1.919  0.00  0.00    +0.001 A 
ATOM     28  C   UNL     1      -3.032  -3.567  -1.436  0.00  0.00    +0.017 A 
ATOM     29  C   UNL     1      -2.814  -2.224  -1.118  0.00  0.00    +0.078 A 
BRANCH  24  30
ATOM     30  O   UNL     1      -1.321  -0.362  -1.003  0.00  0.00    -0.491 OA
BRANCH  30  32
ATOM     31  C   UNL     1       0.058   1.616  -0.825  0.00  0.00    +0.048 C 
ATOM     32  C   UNL     1       0.001   0.138  -1.218  0.00  0.00    +0.226 C 
ENDBRANCH  30  32
ENDBRANCH  24  30
ENDBRANCH  20  29
ENDBRANCH  19  22
BRANCH  19  33
ATOM     33  C   UNL     1      -6.899  -0.363  -1.054  0.00  0.00    +0.012 C 
ATOM     34  C   UNL     1      -7.977   0.572  -0.501  0.00  0.00    +0.009 C 
ATOM     35  C   UNL     1      -5.845   0.458  -1.799  0.00  0.00    +0.009 C 
ENDBRANCH  19  33
ENDBRANCH   1  19
TORSDOF 7
