REMARK  Name = ZINC40826872
REMARK  11 active torsions:
REMARK  status: ('A' for Active; 'I' for Inactive)
REMARK    1  A    between atoms: C_1  and  C_2
REMARK    2  A    between atoms: C_5  and  O_37
REMARK    3  A    between atoms: C_6  and  N_8
REMARK    4  A    between atoms: C_9  and  C_11
REMARK    5  A    between atoms: C_12  and  C_36
REMARK    6  A    between atoms: N_20  and  N_21
REMARK    7  A    between atoms: C_22  and  C_24
REMARK    8  A    between atoms: C_24  and  C_25
REMARK    9  A    between atoms: C_30  and  C_35
REMARK   10  A    between atoms: C_32  and  C_34
REMARK   11  A    between atoms: O_37  and  C_38
REMARK                            x       y       z     vdW  Elec       q    Type
REMARK                         _______ _______ _______ _____ _____    ______ ____
ROOT
ATOM      1  C   UNL     1       0.277  -2.873   4.825  0.00  0.00    +0.193 A 
ATOM      2  C   UNL     1       0.378  -2.322   6.072  0.00  0.00    +0.009 A 
ATOM      3  C   UNL     1       0.478  -3.394   6.967  0.00  0.00    +0.042 A 
ATOM      4  C   UNL     1       0.435  -4.553   6.230  0.00  0.00    +0.115 A 
ATOM      5  O   UNL     1       0.307  -4.220   4.947  0.00  0.00    -0.454 OA
ATOM      6  C   UNL     1       0.521  -5.924   6.851  0.00  0.00    +0.075 C 
ATOM      7  C   UNL     1       1.157  -5.815   8.239  0.00  0.00    +0.014 C 
ATOM      8  C   UNL     1       0.421  -4.775   9.090  0.00  0.00    +0.058 C 
ATOM      9  C   UNL     1       0.607  -3.411   8.441  0.00  0.00    +0.070 C 
ATOM     10  N   UNL     1       0.859  -2.341   9.131  0.00  0.00    -0.184 NA
ATOM     11  C   UNL     1       0.382  -0.854   6.414  0.00  0.00    +0.048 C 
ENDROOT
BRANCH   1  13
ATOM     12  N   UNL     1       0.052  -2.794   2.398  0.00  0.00    -0.276 N 
ATOM     13  C   UNL     1       0.150  -2.130   3.567  0.00  0.00    +0.284 C 
ATOM     14  O   UNL     1       0.134  -0.913   3.578  0.00  0.00    -0.266 OA
ATOM     15  H   UNL     1      -0.016  -3.762   2.395  0.00  0.00    +0.155 HD
BRANCH  12  21
ATOM     16  C   UNL     1       1.264   1.227  -0.157  0.00  0.00    +0.044 C 
ATOM     17  C   UNL     1       0.628  -0.137  -0.079  0.00  0.00    -0.048 A 
ATOM     18  C   UNL     1       0.040  -0.689  -1.202  0.00  0.00    +0.007 A 
ATOM     19  C   UNL     1      -0.545  -1.940  -1.136  0.00  0.00    +0.048 A 
ATOM     20  C   UNL     1      -0.544  -2.644   0.058  0.00  0.00    +0.141 A 
ATOM     21  C   UNL     1       0.048  -2.088   1.189  0.00  0.00    +0.076 A 
ATOM     22  C   UNL     1       0.638  -0.834   1.114  0.00  0.00    +0.030 A 
BRANCH  20  23
ATOM     23  O   UNL     1      -1.120  -3.874   0.124  0.00  0.00    -0.493 OA
ATOM     24  C   UNL     1      -1.708  -4.380  -1.076  0.00  0.00    +0.277 C 
ENDBRANCH  20  23
ENDBRANCH  12  21
ENDBRANCH   1  13
BRANCH  10  25
ATOM     25  N   UNL     1       0.970  -2.416  10.525  0.00  0.00    -0.206 N 
ATOM     26  C   UNL     1       1.232  -1.304  11.241  0.00  0.00    +0.237 C 
ATOM     27  O   UNL     1       1.372  -0.239  10.678  0.00  0.00    -0.274 OA
ATOM     28  H   UNL     1       0.859  -3.268  10.976  0.00  0.00    +0.177 HD
BRANCH  26  29
ATOM     29  C   UNL     1       1.352  -1.385  12.741  0.00  0.00    +0.136 C 
BRANCH  29  30
ATOM     30  C   UNL     1       1.646  -0.015  13.296  0.00  0.00    +0.007 A 
ATOM     31  C   UNL     1       2.851   0.497  13.579  0.00  0.00    +0.200 A 
ATOM     32  O   UNL     1       2.723   1.747  14.058  0.00  0.00    -0.463 OA
ATOM     33  C   UNL     1       1.426   2.111  14.109  0.00  0.00    +0.136 A 
ATOM     34  C   UNL     1       0.669   1.029  13.628  0.00  0.00    +0.027 A 
ATOM     35  C   UNL     1      -0.720   1.122  13.560  0.00  0.00    -0.039 A 
ATOM     36  C   UNL     1      -1.346   2.281  13.964  0.00  0.00    +0.007 A 
ATOM     37  C   UNL     1      -0.599   3.351  14.435  0.00  0.00    -0.047 A 
ATOM     38  C   UNL     1       0.775   3.269  14.515  0.00  0.00    +0.050 A 
ATOM     39  C   UNL     1      -1.298   4.612  14.873  0.00  0.00    +0.044 C 
ATOM     40  C   UNL     1      -1.532  -0.040  13.048  0.00  0.00    +0.044 C 
ENDBRANCH  29  30
ENDBRANCH  26  29
ENDBRANCH  10  25
TORSDOF 6
