REMARK  Name = ZINC32622157
REMARK  6 active torsions:
REMARK  status: ('A' for Active; 'I' for Inactive)
REMARK    1  A    between atoms: C_3  and  C_6
REMARK    2  A    between atoms: C_6  and  C_8
REMARK    3  A    between atoms: C_6  and  N_24
REMARK    4  A    between atoms: C_8  and  N_9
REMARK    5  A    between atoms: C_10  and  C_12
REMARK    6  A    between atoms: C_14  and  C_17
REMARK                            x       y       z     vdW  Elec       q    Type
REMARK                         _______ _______ _______ _____ _____    ______ ____
ROOT
ATOM      1  N   UNL     1      -0.829   0.821   1.088  0.00  0.00    -0.311 N 
ATOM      2  C   UNL     1      -0.495   0.051   2.143  0.00  0.00    +0.266 C 
ATOM      3  O   UNL     1       0.329  -0.833   2.013  0.00  0.00    -0.268 OA
ATOM      4  H   UNL     1      -1.575   1.621   1.206  0.00  0.00    +0.149 HD
ENDROOT
BRANCH   2   5
ATOM      5  C   UNL     1      -1.131   0.284   3.462  0.00  0.00    +0.168 A 
ATOM      6  C   UNL     1      -0.894  -0.438   4.661  0.00  0.00    +0.086 A 
ATOM      7  C   UNL     1      -1.716   0.164   5.573  0.00  0.00    +0.168 A 
ATOM      8  O   UNL     1      -2.363   1.141   4.913  0.00  0.00    -0.354 OA
ATOM      9  N   UNL     1      -2.030   1.193   3.752  0.00  0.00    -0.073 NA
BRANCH   7  10
ATOM     10  C   UNL     1      -1.868  -0.193   6.999  0.00  0.00    +0.020 A 
ATOM     11  C   UNL     1      -1.126  -1.243   7.542  0.00  0.00    +0.013 A 
ATOM     12  C   UNL     1      -1.268  -1.568   8.875  0.00  0.00    +0.021 A 
ATOM     13  C   UNL     1      -2.153  -0.861   9.672  0.00  0.00    +0.041 A 
ATOM     14  C   UNL     1      -2.896   0.179   9.138  0.00  0.00    +0.021 A 
ATOM     15  C   UNL     1      -2.758   0.516   7.808  0.00  0.00    +0.013 A 
ATOM     16 CL   UNL     1      -2.332  -1.281  11.347  0.00  0.00    -0.084 Cl
ENDBRANCH   7  10
ENDBRANCH   2   5
BRANCH   1  17
ATOM     17  C   UNL     1      -0.201   0.591  -0.215  0.00  0.00    +0.094 C 
BRANCH  17  18
ATOM     18  C   UNL     1      -0.753   1.593  -1.232  0.00  0.00    -0.013 C 
BRANCH  18  19
ATOM     19  N   UNL     1      -2.218   1.500  -1.264  0.00  0.00    +0.386 N 
ATOM     20  C   UNL     1      -2.653   0.113  -1.476  0.00  0.00    -0.078 C 
ATOM     21  C   UNL     1      -4.177   0.032  -1.359  0.00  0.00    -0.019 C 
ATOM     22  C   UNL     1      -4.814   0.952  -2.404  0.00  0.00    -0.004 C 
ATOM     23  C   UNL     1      -4.308   2.381  -2.191  0.00  0.00    -0.019 C 
ATOM     24  C   UNL     1      -2.780   2.395  -2.284  0.00  0.00    -0.078 C 
ATOM     25  H   UNL     1      -2.601   1.825  -0.285  0.00  0.00    -0.081 HD
ENDBRANCH  18  19
BRANCH  18  28
ATOM     26  C   UNL     1       1.073   1.487  -4.573  0.00  0.00    +0.008 A 
ATOM     27  C   UNL     1       0.709   1.969  -3.330  0.00  0.00    +0.009 A 
ATOM     28  C   UNL     1      -0.199   1.279  -2.598  0.00  0.00    -0.022 A 
ATOM     29  S   UNL     1      -0.563  -0.103  -3.668  0.00  0.00    -0.103 S 
ATOM     30  C   UNL     1       0.512   0.338  -5.023  0.00  0.00    +0.045 A 
ENDBRANCH  18  28
ENDBRANCH  17  18
ENDBRANCH   1  17
TORSDOF 6
