REMARK  Name = ZINC27238264
REMARK  17 active torsions:
REMARK  status: ('A' for Active; 'I' for Inactive)
REMARK    1  A    between atoms: C_1  and  C_2
REMARK    2  A    between atoms: C_2  and  C_3
REMARK    3  A    between atoms: C_3  and  C_4
REMARK    4  A    between atoms: C_4  and  C_5
REMARK    5  A    between atoms: C_5  and  C_6
REMARK    6  A    between atoms: C_6  and  C_7
REMARK    7  A    between atoms: C_7  and  C_8
REMARK    8  A    between atoms: C_7  and  C_17
REMARK    9  A    between atoms: C_7  and  O_36
REMARK   10  A    between atoms: C_11  and  O_14
REMARK   11  A    between atoms: O_14  and  C_15
REMARK   12  A    between atoms: C_15  and  C_16
REMARK   13  A    between atoms: C_17  and  C_19
REMARK   14  A    between atoms: C_17  and  O_27
REMARK   15  A    between atoms: C_19  and  N_20
REMARK   16  A    between atoms: O_27  and  C_28
REMARK   17  A    between atoms: C_33  and  C_34
REMARK                            x       y       z     vdW  Elec       q    Type
REMARK                         _______ _______ _______ _____ _____    ______ ____
ROOT
ATOM      1  C   UNL     1      -1.764   4.625   3.020  0.00  0.00    +0.193 C 
ENDROOT
BRANCH   1   2
ATOM      2  C   UNL     1      -2.843   4.982   4.044  0.00  0.00    +0.126 C 
BRANCH   2   3
ATOM      3  C   UNL     1      -4.026   5.591   3.336  0.00  0.00    -0.012 A 
ATOM      4  C   UNL     1      -3.904   6.827   2.728  0.00  0.00    +0.010 A 
ATOM      5  C   UNL     1      -4.985   7.386   2.074  0.00  0.00    +0.046 A 
ATOM      6  C   UNL     1      -6.196   6.710   2.036  0.00  0.00    +0.121 A 
ATOM      7  C   UNL     1      -6.317   5.472   2.651  0.00  0.00    +0.046 A 
ATOM      8  C   UNL     1      -5.231   4.916   3.300  0.00  0.00    +0.010 A 
BRANCH   6   9
ATOM      9  O   UNL     1      -7.262   7.259   1.397  0.00  0.00    -0.492 OA
BRANCH   9  10
ATOM     10  C   UNL     1      -7.065   8.536   0.785  0.00  0.00    +0.225 C 
ATOM     11  C   UNL     1      -8.367   8.989   0.120  0.00  0.00    +0.048 C 
ENDBRANCH   9  10
ENDBRANCH   6   9
ENDBRANCH   2   3
BRANCH   2  12
ATOM     12  O   UNL     1      -3.257   3.800   4.732  0.00  0.00    -0.380 OA
ATOM     13  H   UNL     1      -3.692   2.960   4.170  0.00  0.00    +0.211 HD
ENDBRANCH   2  12
BRANCH   2  14
ATOM     14  C   UNL     1      -2.279   5.987   5.051  0.00  0.00    +0.043 C 
BRANCH  14  15
ATOM     15  C   UNL     1      -1.006   5.418   5.680  0.00  0.00    +0.003 C 
BRANCH  15  16
ATOM     16  C   UNL     1      -0.441   6.422   6.687  0.00  0.00    +0.000 C 
BRANCH  16  17
ATOM     17  C   UNL     1       0.832   5.853   7.316  0.00  0.00    -0.000 C 
BRANCH  17  19
ATOM     18  C   UNL     1       2.670   6.288   8.952  0.00  0.00    +0.004 C 
ATOM     19  C   UNL     1       1.397   6.857   8.323  0.00  0.00    -0.003 C 
ENDBRANCH  17  19
ENDBRANCH  16  17
ENDBRANCH  15  16
ENDBRANCH  14  15
ENDBRANCH   2  14
ENDBRANCH   1   2
BRANCH   1  20
ATOM     20  C   UNL     1      -2.298   3.553   2.068  0.00  0.00    -0.030 C 
BRANCH  20  21
ATOM     21  N   UNL     1      -3.455   4.084   1.334  0.00  0.00    +0.382 N 
ATOM     22  C   UNL     1      -3.022   4.971   0.232  0.00  0.00    -0.079 C 
ATOM     23  C   UNL     1      -2.686   4.216  -1.026  0.00  0.00    -0.019 C 
ATOM     24  C   UNL     1      -3.941   4.179  -1.924  0.00  0.00    -0.002 C 
ATOM     25  C   UNL     1      -4.902   3.174  -1.483  0.00  0.00    -0.002 C 
ATOM     26  C   UNL     1      -5.417   3.447  -0.054  0.00  0.00    -0.019 C 
ATOM     27  C   UNL     1      -4.369   2.994   0.925  0.00  0.00    -0.079 C 
ATOM     28  H   UNL     1      -4.043   4.721   2.010  0.00  0.00    -0.082 HD
ENDBRANCH  20  21
ENDBRANCH   1  20
BRANCH   1  29
ATOM     29  O   UNL     1      -1.410   5.792   2.274  0.00  0.00    -0.487 OA
BRANCH  29  30
ATOM     30  C   UNL     1      -0.139   5.857   1.797  0.00  0.00    +0.124 A 
ATOM     31  C   UNL     1       0.713   4.772   1.939  0.00  0.00    +0.047 A 
ATOM     32  C   UNL     1       2.003   4.839   1.450  0.00  0.00    +0.023 A 
ATOM     33  C   UNL     1       2.449   5.992   0.828  0.00  0.00    +0.041 A 
ATOM     34  C   UNL     1       1.602   7.077   0.690  0.00  0.00    +0.027 A 
ATOM     35  C   UNL     1       0.309   7.012   1.174  0.00  0.00    -0.007 A 
ATOM     36  C   UNL     1      -0.613   8.195   1.023  0.00  0.00    +0.047 C 
ATOM     37 CL   UNL     1       4.072   6.077   0.220  0.00  0.00    -0.084 Cl
ENDBRANCH  29  30
ENDBRANCH   1  29
TORSDOF 14
