REMARK  Name = ZINC06750410
REMARK  10 active torsions:
REMARK  status: ('A' for Active; 'I' for Inactive)
REMARK    1  A    between atoms: C_1  and  C_2
REMARK    2  A    between atoms: C_3  and  C_29
REMARK    3  A    between atoms: C_5  and  N_24
REMARK    4  A    between atoms: C_6  and  C_7
REMARK    5  A    between atoms: C_7  and  C_9
REMARK    6  A    between atoms: C_7  and  N_10
REMARK    7  A    between atoms: N_13  and  C_14
REMARK    8  A    between atoms: C_17  and  C_20
REMARK    9  A    between atoms: C_20  and  O_22
REMARK   10  A    between atoms: O_22  and  C_23
REMARK                            x       y       z     vdW  Elec       q    Type
REMARK                         _______ _______ _______ _____ _____    ______ ____
ROOT
ATOM      1  N   UNL     1      -3.351  -0.379   1.735  0.00  0.00    -0.292 N 
ATOM      2  C   UNL     1      -4.464   0.333   2.000  0.00  0.00    +0.304 C 
ATOM      3  O   UNL     1      -4.393   1.536   2.156  0.00  0.00    -0.252 OA
ATOM      4  N   UNL     1      -5.657  -0.289   2.091  0.00  0.00    -0.269 N 
ATOM      5  H   UNL     1      -3.408  -1.340   1.611  0.00  0.00    +0.151 HD
ATOM      6  H   UNL     1      -5.704  -1.257   2.042  0.00  0.00    +0.156 HD
ENDROOT
BRANCH   4   7
ATOM      7  C   UNL     1      -6.822   0.458   2.257  0.00  0.00    +0.035 A 
ATOM      8  C   UNL     1      -6.931   1.714   1.669  0.00  0.00    +0.024 A 
ATOM      9  C   UNL     1      -8.079   2.454   1.831  0.00  0.00    +0.017 A 
ATOM     10  C   UNL     1      -9.138   1.943   2.588  0.00  0.00    +0.059 A 
ATOM     11  C   UNL     1      -9.025   0.680   3.178  0.00  0.00    +0.017 A 
ATOM     12  C   UNL     1      -7.875  -0.057   3.007  0.00  0.00    +0.024 A 
BRANCH  10  13
ATOM     13  C   UNL     1     -10.370   2.733   2.764  0.00  0.00    +0.339 C 
ATOM     14  O   UNL     1     -10.466   3.831   2.251  0.00  0.00    -0.245 OA
BRANCH  13  15
ATOM     15  O   UNL     1     -11.389   2.239   3.494  0.00  0.00    -0.464 OA
ATOM     16  C   UNL     1     -12.552   3.059   3.623  0.00  0.00    +0.280 C 
ENDBRANCH  13  15
ENDBRANCH  10  13
ENDBRANCH   4   7
BRANCH   1  17
ATOM     17  C   UNL     1      -2.055   0.297   1.636  0.00  0.00    +0.104 C 
ATOM     18  C   UNL     1      -1.558   0.655   3.038  0.00  0.00    +0.033 C 
BRANCH  17  24
ATOM     19  C   UNL     1      -1.815  -2.486   2.465  0.00  0.00    +0.045 C 
ATOM     20  C   UNL     1      -0.947  -1.939   1.361  0.00  0.00    -0.034 A 
ATOM     21  C   UNL     1      -0.046  -2.736   0.737  0.00  0.00    -0.008 A 
ATOM     22  S   UNL     1       0.686  -1.616  -0.445  0.00  0.00    -0.075 S 
ATOM     23  C   UNL     1      -0.256  -0.157  -0.028  0.00  0.00    +0.090 A 
ATOM     24  C   UNL     1      -1.061  -0.618   0.969  0.00  0.00    +0.007 A 
ATOM     25  C   UNL     1       0.258  -4.192   0.977  0.00  0.00    +0.052 C 
BRANCH  23  26
ATOM     26  N   UNL     1      -0.188   1.125  -0.586  0.00  0.00    -0.317 N 
ATOM     27  C   UNL     1      -0.072   2.292   0.114  0.00  0.00    +0.092 A 
ATOM     28  C   UNL     1      -0.038   3.311  -0.769  0.00  0.00    +0.019 A 
ATOM     29  C   UNL     1      -0.137   2.755  -2.060  0.00  0.00    +0.019 A 
ATOM     30  C   UNL     1      -0.222   1.416  -1.919  0.00  0.00    +0.092 A 
ENDBRANCH  23  26
ENDBRANCH  17  24
ENDBRANCH   1  17
TORSDOF 6
