REMARK  Name = ZINC13078976
REMARK  8 active torsions:
REMARK  status: ('A' for Active; 'I' for Inactive)
REMARK    1  A    between atoms: C_1  and  C_2
REMARK    2  A    between atoms: C_4  and  C_28
REMARK    3  A    between atoms: C_6  and  S_9
REMARK    4  A    between atoms: C_7  and  C_8
REMARK    5  A    between atoms: S_9  and  N_12
REMARK    6  A    between atoms: N_12  and  C_13
REMARK    7  A    between atoms: C_18  and  C_19
REMARK    8  A    between atoms: N_21  and  C_22
REMARK                            x       y       z     vdW  Elec       q    Type
REMARK                         _______ _______ _______ _____ _____    ______ ____
ROOT
ATOM      1  N   UNL     1      -5.952   1.458   1.652  0.00  0.00    -0.216 N 
ATOM      2  H   UNL     1      -6.046   0.696   2.245  0.00  0.00    +0.174 HD
ENDROOT
BRANCH   1   3
ATOM      3  C   UNL     1      -6.599   2.651   1.947  0.00  0.00    +0.060 A 
ATOM      4  C   UNL     1      -7.111   3.440   0.924  0.00  0.00    +0.025 A 
ATOM      5  C   UNL     1      -7.753   4.624   1.220  0.00  0.00    +0.002 A 
ATOM      6  C   UNL     1      -7.894   5.037   2.536  0.00  0.00    +0.001 A 
ATOM      7  C   UNL     1      -7.394   4.268   3.564  0.00  0.00    +0.015 A 
ATOM      8  C   UNL     1      -6.745   3.063   3.281  0.00  0.00    +0.059 A 
BRANCH   8   9
ATOM      9  C   UNL     1      -6.213   2.232   4.376  0.00  0.00    +0.250 C 
ATOM     10  O   UNL     1      -5.646   1.186   4.126  0.00  0.00    -0.270 OA
ATOM     11  N   UNL     1      -6.355   2.632   5.656  0.00  0.00    -0.281 N 
ATOM     12  H   UNL     1      -6.870   3.429   5.860  0.00  0.00    +0.155 HD
BRANCH  11  13
ATOM     13  C   UNL     1      -5.761   1.899   6.688  0.00  0.00    +0.034 A 
ATOM     14  C   UNL     1      -6.380   1.817   7.929  0.00  0.00    +0.023 A 
ATOM     15  C   UNL     1      -5.793   1.087   8.944  0.00  0.00    +0.002 A 
ATOM     16  C   UNL     1      -4.586   0.448   8.730  0.00  0.00    +0.000 A 
ATOM     17  C   UNL     1      -3.965   0.532   7.497  0.00  0.00    +0.002 A 
ATOM     18  C   UNL     1      -4.549   1.255   6.476  0.00  0.00    +0.023 A 
ENDBRANCH  11  13
ENDBRANCH   8   9
ENDBRANCH   1   3
BRANCH   1  19
ATOM     19  S   UNL     1      -5.021   1.337   0.288  0.00  0.00    +0.073 S 
ATOM     20  O   UNL     1      -4.455   0.033   0.298  0.00  0.00    -0.150 OA
ATOM     21  O   UNL     1      -4.225   2.513   0.235  0.00  0.00    -0.150 OA
BRANCH  19  27
ATOM     22  C   UNL     1      -8.910  -0.659  -2.576  0.00  0.00    +0.044 C 
ATOM     23  C   UNL     1      -7.900   0.440  -2.372  0.00  0.00    -0.045 A 
ATOM     24  C   UNL     1      -7.835   1.489  -3.267  0.00  0.00    +0.018 A 
ATOM     25  C   UNL     1      -6.898   2.507  -3.077  0.00  0.00    +0.065 A 
ATOM     26  C   UNL     1      -6.030   2.454  -1.984  0.00  0.00    +0.044 A 
ATOM     27  C   UNL     1      -6.110   1.403  -1.095  0.00  0.00    +0.112 A 
ATOM     28  C   UNL     1      -7.041   0.397  -1.289  0.00  0.00    -0.021 A 
ATOM     29  C   UNL     1      -7.118  -0.752  -0.316  0.00  0.00    +0.046 C 
BRANCH  25  30
ATOM     30  C   UNL     1      -6.822   3.632  -4.031  0.00  0.00    +0.387 C 
ATOM     31  O   UNL     1      -6.007   4.517  -3.863  0.00  0.00    -0.241 OA
ATOM     32  O   UNL     1      -7.654   3.675  -5.090  0.00  0.00    -0.241 OA
ENDBRANCH  25  30
ENDBRANCH  19  27
ENDBRANCH   1  19
TORSDOF 6
