REMARK  Name = ZINC15442650
REMARK  12 active torsions:
REMARK  status: ('A' for Active; 'I' for Inactive)
REMARK    1  A    between atoms: C_1  and  C_2
REMARK    2  A    between atoms: C_2  and  C_3
REMARK    3  A    between atoms: C_2  and  C_4
REMARK    4  A    between atoms: C_2  and  O_5
REMARK    5  A    between atoms: O_5  and  C_6
REMARK    6  A    between atoms: N_8  and  C_9
REMARK    7  A    between atoms: C_12  and  C_15
REMARK    8  A    between atoms: C_17  and  O_19
REMARK    9  A    between atoms: O_19  and  C_20
REMARK   10  A    between atoms: C_20  and  C_21
REMARK   11  A    between atoms: C_20  and  C_22
REMARK   12  A    between atoms: C_20  and  C_23
REMARK                            x       y       z     vdW  Elec       q    Type
REMARK                         _______ _______ _______ _____ _____    ______ ____
ROOT
ATOM      1  C   UNL     1       2.296   4.207   0.115  0.00  0.00    +0.417 C 
ATOM      2  O   UNL     1       3.373   3.647   0.104  0.00  0.00    -0.225 OA
ATOM      3  N   UNL     1       1.161   3.488   0.009  0.00  0.00    -0.141 N 
ATOM      4  C   UNL     1      -0.028   4.116  -0.092  0.00  0.00    +0.417 C 
ATOM      5  O   UNL     1      -1.057   3.471  -0.085  0.00  0.00    -0.225 OA
ENDROOT
BRANCH   3   6
ATOM      6  C   UNL     1       1.216   2.087   0.004  0.00  0.00    +0.050 A 
ATOM      7  C   UNL     1       1.818   1.411   1.057  0.00  0.00    +0.024 A 
ATOM      8  C   UNL     1       1.870   0.031   1.050  0.00  0.00    +0.006 A 
ATOM      9  C   UNL     1       1.325  -0.677  -0.005  0.00  0.00    -0.037 A 
ATOM     10  C   UNL     1       0.726  -0.007  -1.056  0.00  0.00    +0.006 A 
ATOM     11  C   UNL     1       0.671   1.373  -1.054  0.00  0.00    +0.024 A 
BRANCH   9  12
ATOM     12  C   UNL     1       1.385  -2.183  -0.011  0.00  0.00    +0.115 C 
ATOM     13 BR   UNL     1      -0.216  -2.906   0.873  0.00  0.00    -0.087 Br
ENDBRANCH   9  12
ENDBRANCH   3   6
BRANCH   1  14
ATOM     14  O   UNL     1       2.236   5.547   0.234  0.00  0.00    -0.444 OA
BRANCH  14  16
ATOM     15  C   UNL     1       4.342   5.991  -0.905  0.00  0.00    +0.055 C 
ATOM     16  C   UNL     1       3.497   6.256   0.343  0.00  0.00    +0.107 C 
ATOM     17  C   UNL     1       3.229   7.758   0.468  0.00  0.00    +0.055 C 
ATOM     18  C   UNL     1       4.251   5.768   1.582  0.00  0.00    +0.055 C 
ENDBRANCH  14  16
ENDBRANCH   1  14
BRANCH   4  19
ATOM     19  O   UNL     1      -0.073   5.457  -0.200  0.00  0.00    -0.444 OA
BRANCH  19  20
ATOM     20  C   UNL     1      -1.387   6.065  -0.305  0.00  0.00    +0.107 C 
ATOM     21  C   UNL     1      -2.208   5.725   0.940  0.00  0.00    +0.055 C 
ATOM     22  C   UNL     1      -1.239   7.583  -0.420  0.00  0.00    +0.055 C 
ATOM     23  C   UNL     1      -2.100   5.527  -1.548  0.00  0.00    +0.055 C 
ENDBRANCH  19  20
ENDBRANCH   4  19
TORSDOF 6
