REMARK  Name = ZINC05230899
REMARK  15 active torsions:
REMARK  status: ('A' for Active; 'I' for Inactive)
REMARK    1  A    between atoms: C_1  and  C_2
REMARK    2  A    between atoms: C_2  and  C_3
REMARK    3  A    between atoms: C_2  and  O_4
REMARK    4  A    between atoms: O_4  and  C_5
REMARK    5  A    between atoms: C_8  and  C_11
REMARK    6  A    between atoms: C_11  and  N_69
REMARK    7  A    between atoms: C_12  and  C_13
REMARK    8  A    between atoms: C_12  and  N_69
REMARK    9  A    between atoms: C_13  and  C_15
REMARK   10  A    between atoms: C_13  and  C_17
REMARK   11  A    between atoms: C_15  and  O_16
REMARK   12  A    between atoms: C_17  and  C_25
REMARK   13  A    between atoms: C_21  and  C_23
REMARK   14  A    between atoms: C_21  and  C_24
REMARK   15  A    between atoms: C_25  and  C_26
REMARK                            x       y       z     vdW  Elec       q    Type
REMARK                         _______ _______ _______ _____ _____    ______ ____
ROOT
ATOM      1  C   UNL     1      -1.293   2.214  -3.132  0.00  0.00    +0.004 C 
ENDROOT
BRANCH   1   2
ATOM      2  C   UNL     1      -1.237   3.203  -4.297  0.00  0.00    -0.017 C 
ATOM      3  C   UNL     1      -2.639   3.378  -4.888  0.00  0.00    +0.035 C 
ATOM      4  C   UNL     1      -2.587   4.428  -6.002  0.00  0.00    +0.161 C 
ATOM      5  O   UNL     1      -2.083   5.656  -5.473  0.00  0.00    -0.374 OA
ATOM      6  C   UNL     1      -0.756   5.564  -4.949  0.00  0.00    +0.064 C 
ATOM      7  C   UNL     1      -0.734   4.560  -3.794  0.00  0.00    +0.042 C 
ATOM      8  C   UNL     1      -0.312   6.937  -4.441  0.00  0.00    +0.041 C 
ATOM      9  C   UNL     1       0.197   5.096  -6.051  0.00  0.00    +0.041 C 
BRANCH   2  10
ATOM     10  C   UNL     1      -0.288   2.673  -5.374  0.00  0.00    +0.042 C 
BRANCH  10  11
ATOM     11  C   UNL     1      -0.673   1.261  -5.731  0.00  0.00    -0.047 A 
ATOM     12  C   UNL     1      -0.041   0.196  -5.117  0.00  0.00    +0.003 A 
ATOM     13  C   UNL     1      -0.397  -1.100  -5.442  0.00  0.00    +0.000 A 
ATOM     14  C   UNL     1      -1.379  -1.330  -6.388  0.00  0.00    +0.000 A 
ATOM     15  C   UNL     1      -2.007  -0.265  -7.006  0.00  0.00    +0.000 A 
ATOM     16  C   UNL     1      -1.654   1.030  -6.678  0.00  0.00    +0.003 A 
ENDBRANCH  10  11
ENDBRANCH   2  10
ENDBRANCH   1   2
BRANCH   1  17
ATOM     17  C   UNL     1       0.087   2.119  -2.476  0.00  0.00    -0.076 C 
BRANCH  17  18
ATOM     18  N   UNL     1       0.056   1.077  -1.433  0.00  0.00    +0.382 N 
ATOM     19  H   UNL     1      -0.649   1.323  -0.728  0.00  0.00    -0.085 HD
ATOM     20  H   UNL     1      -0.189   0.176  -1.861  0.00  0.00    -0.085 HD
BRANCH  18  21
ATOM     21  C   UNL     1       1.375   0.963  -0.783  0.00  0.00    -0.047 C 
BRANCH  21  25
ATOM     22  C   UNL     1       1.201  -2.072   2.220  0.00  0.00    +0.121 A 
ATOM     23  C   UNL     1       1.558  -2.400   0.920  0.00  0.00    +0.046 A 
ATOM     24  C   UNL     1       1.614  -1.417  -0.049  0.00  0.00    +0.005 A 
ATOM     25  C   UNL     1       1.314  -0.107   0.276  0.00  0.00    -0.064 A 
ATOM     26  C   UNL     1       0.963   0.223   1.571  0.00  0.00    +0.005 A 
ATOM     27  C   UNL     1       0.900  -0.757   2.543  0.00  0.00    +0.046 A 
BRANCH  22  28
ATOM     28  O   UNL     1       1.145  -3.038   3.175  0.00  0.00    -0.489 OA
BRANCH  28  30
ATOM     29  C   UNL     1       2.845  -4.684   2.686  0.00  0.00    +0.051 C 
ATOM     30  C   UNL     1       1.345  -4.386   2.746  0.00  0.00    +0.167 C 
ATOM     31  C   UNL     1       0.675  -5.340   3.737  0.00  0.00    +0.051 C 
ENDBRANCH  28  30
ENDBRANCH  22  28
ENDBRANCH  21  25
ENDBRANCH  18  21
ENDBRANCH  17  18
ENDBRANCH   1  17
BRANCH   1  32
ATOM     32  C   UNL     1      -2.315   2.697  -2.101  0.00  0.00    +0.158 C 
BRANCH  32  33
ATOM     33  O   UNL     1      -3.631   2.580  -2.644  0.00  0.00    -0.395 OA
ATOM     34  H   UNL     1      -4.332   2.870  -2.044  0.00  0.00    +0.209 HD
ENDBRANCH  32  33
ENDBRANCH   1  32
TORSDOF 11
