REMARK  Name = ZINC01729082
REMARK  10 active torsions:
REMARK  status: ('A' for Active; 'I' for Inactive)
REMARK    1  A    between atoms: C_1  and  C_2
REMARK    2  A    between atoms: C_2  and  O_4
REMARK    3  A    between atoms: O_4  and  C_5
REMARK    4  A    between atoms: C_5  and  C_7
REMARK    5  A    between atoms: C_5  and  S_11
REMARK    6  A    between atoms: S_11  and  C_12
REMARK    7  A    between atoms: C_12  and  C_14
REMARK    8  A    between atoms: C_12  and  O_18
REMARK    9  A    between atoms: O_18  and  C_19
REMARK   10  A    between atoms: C_19  and  C_21
REMARK                            x       y       z     vdW  Elec       q    Type
REMARK                         _______ _______ _______ _____ _____    ______ ____
ROOT
ATOM      1  S   UNL     1      -0.143  -2.509   1.152  0.00  0.00    -0.065 S 
ENDROOT
BRANCH   1   2
ATOM      2  C   UNL     1      -1.549  -1.564   0.503  0.00  0.00    +0.288 C 
BRANCH   2   3
ATOM      3  C   UNL     1      -1.644  -1.766  -1.010  0.00  0.00    +0.236 C 
ATOM      4 CL   UNL     1      -2.997  -0.770  -1.666  0.00  0.00    -0.078 Cl
ATOM      5 CL   UNL     1      -0.096  -1.258  -1.783  0.00  0.00    -0.078 Cl
ATOM      6 CL   UNL     1      -1.951  -3.506  -1.367  0.00  0.00    -0.078 Cl
ENDBRANCH   2   3
BRANCH   2   7
ATOM      7  O   UNL     1      -2.774  -2.026   1.131  0.00  0.00    -0.446 OA
BRANCH   7   9
ATOM      8  C   UNL     1      -4.197  -2.147   3.145  0.00  0.00    +0.136 C 
ATOM      9  C   UNL     1      -2.906  -1.802   2.448  0.00  0.00    +0.305 C 
ATOM     10  O   UNL     1      -1.991  -1.323   3.074  0.00  0.00    -0.251 OA
ENDBRANCH   7   9
ENDBRANCH   2   7
ENDBRANCH   1   2
BRANCH   1  11
ATOM     11  C   UNL     1       1.271  -1.394   0.939  0.00  0.00    +0.288 C 
BRANCH  11  12
ATOM     12  C   UNL     1       1.345  -0.431   2.126  0.00  0.00    +0.236 C 
ATOM     13 CL   UNL     1       2.752   0.677   1.914  0.00  0.00    -0.078 Cl
ATOM     14 CL   UNL     1      -0.174   0.535   2.211  0.00  0.00    -0.078 Cl
ATOM     15 CL   UNL     1       1.546  -1.372   3.651  0.00  0.00    -0.078 Cl
ENDBRANCH  11  12
BRANCH  11  16
ATOM     16  O   UNL     1       2.495  -2.172   0.870  0.00  0.00    -0.446 OA
BRANCH  16  17
ATOM     17  C   UNL     1       2.627  -3.010  -0.170  0.00  0.00    +0.305 C 
ATOM     18  O   UNL     1       1.795  -3.020  -1.047  0.00  0.00    -0.251 OA
ATOM     19  C   UNL     1       3.812  -3.938  -0.245  0.00  0.00    +0.136 C 
ENDBRANCH  16  17
ENDBRANCH  11  16
ENDBRANCH   1  11
TORSDOF 8
