REMARK  Name = ZINC24709646
REMARK  5 active torsions:
REMARK  status: ('A' for Active; 'I' for Inactive)
REMARK    1  A    between atoms: C_4  and  C_7
REMARK    2  A    between atoms: C_7  and  C_9
REMARK    3  A    between atoms: C_7  and  N_18
REMARK    4  A    between atoms: C_19  and  C_21
REMARK    5  A    between atoms: C_28  and  C_30
REMARK                            x       y       z     vdW  Elec       q    Type
REMARK                         _______ _______ _______ _____ _____    ______ ____
ROOT
ATOM      1  N   UNL     1       2.585   2.822  -1.184  0.00  0.00    -0.301 N 
ATOM      2  C   UNL     1       3.195   2.431  -2.320  0.00  0.00    +0.218 C 
ATOM      3  O   UNL     1       3.096   1.283  -2.698  0.00  0.00    -0.275 OA
ATOM      4  H   UNL     1       2.674   3.864  -0.842  0.00  0.00    +0.150 HD
ENDROOT
BRANCH   2   5
ATOM      5  C   UNL     1       3.999   3.421  -3.123  0.00  0.00    +0.092 C 
ATOM      6  C   UNL     1       4.581   2.727  -4.356  0.00  0.00    +0.016 C 
ATOM      7  C   UNL     1       5.371   3.740  -5.188  0.00  0.00    +0.020 C 
ATOM      8  C   UNL     1       6.530   4.289  -4.351  0.00  0.00    +0.108 C 
ATOM      9  N   UNL     1       5.992   4.829  -3.095  0.00  0.00    -0.297 N 
ATOM     10  C   UNL     1       5.143   3.967  -2.262  0.00  0.00    +0.120 C 
ATOM     11  C   UNL     1       6.272   6.092  -2.715  0.00  0.00    +0.247 C 
ATOM     12  O   UNL     1       5.740   6.561  -1.728  0.00  0.00    -0.270 OA
BRANCH  11  13
ATOM     13  C   UNL     1       7.226   6.904  -3.497  0.00  0.00    +0.037 A 
ATOM     14  C   UNL     1       8.338   6.302  -4.090  0.00  0.00    +0.016 A 
ATOM     15  C   UNL     1       9.222   7.064  -4.823  0.00  0.00    +0.039 A 
ATOM     16  C   UNL     1       9.014   8.428  -4.964  0.00  0.00    +0.123 A 
ATOM     17  C   UNL     1       7.915   9.032  -4.373  0.00  0.00    +0.039 A 
ATOM     18  C   UNL     1       7.022   8.278  -3.642  0.00  0.00    +0.016 A 
ATOM     19  F   UNL     1       9.887   9.171  -5.680  0.00  0.00    -0.205 F 
ENDBRANCH  11  13
ENDBRANCH   2   5
BRANCH   1  20
ATOM     20  C   UNL     1       1.803   1.859  -0.404  0.00  0.00    +0.169 C 
BRANCH  20  21
ATOM     21  C   UNL     1       0.767   2.594   0.408  0.00  0.00    +0.131 A 
ATOM     22  C   UNL     1      -0.491   2.178   0.603  0.00  0.00    +0.055 A 
ATOM     23  C   UNL     1      -1.134   3.198   1.441  0.00  0.00    +0.020 A 
ATOM     24  C   UNL     1      -2.410   3.354   1.980  0.00  0.00    +0.011 A 
ATOM     25  C   UNL     1      -2.694   4.454   2.742  0.00  0.00    +0.001 A 
ATOM     26  C   UNL     1      -1.721   5.414   2.980  0.00  0.00    +0.004 A 
ATOM     27  C   UNL     1      -0.452   5.273   2.461  0.00  0.00    +0.047 A 
ATOM     28  C   UNL     1      -0.143   4.165   1.681  0.00  0.00    +0.135 A 
ATOM     29  O   UNL     1       0.973   3.762   1.042  0.00  0.00    -0.457 OA
ENDBRANCH  20  21
BRANCH  20  33
ATOM     30  C   UNL     1       4.400  -0.297   2.213  0.00  0.00    +0.000 A 
ATOM     31  C   UNL     1       3.372  -0.955   1.563  0.00  0.00    +0.000 A 
ATOM     32  C   UNL     1       2.532  -0.257   0.716  0.00  0.00    +0.006 A 
ATOM     33  C   UNL     1       2.719   1.099   0.519  0.00  0.00    -0.020 A 
ATOM     34  C   UNL     1       3.749   1.755   1.166  0.00  0.00    +0.006 A 
ATOM     35  C   UNL     1       4.587   1.058   2.016  0.00  0.00    +0.000 A 
ENDBRANCH  20  33
ENDBRANCH   1  20
TORSDOF 5
