REMARK  Name = ZINC13065556
REMARK  10 active torsions:
REMARK  status: ('A' for Active; 'I' for Inactive)
REMARK    1  A    between atoms: C_1  and  C_2
REMARK    2  A    between atoms: C_12  and  C_14
REMARK    3  A    between atoms: C_14  and  N_63
REMARK    4  A    between atoms: C_15  and  C_16
REMARK    5  A    between atoms: C_15  and  N_63
REMARK    6  A    between atoms: C_16  and  C_17
REMARK    7  A    between atoms: C_23  and  C_24
REMARK    8  A    between atoms: C_23  and  N_63
REMARK    9  A    between atoms: N_28  and  C_29
REMARK   10  A    between atoms: C_29  and  C_30
REMARK                            x       y       z     vdW  Elec       q    Type
REMARK                         _______ _______ _______ _____ _____    ______ ____
ROOT
ATOM      1  N   UNL     1      -3.151   3.965  -1.415  0.00  0.00    +0.387 N 
ATOM      2  H   UNL     1      -3.290   3.118  -1.978  0.00  0.00    -0.081 HD
ENDROOT
BRANCH   1   3
ATOM      3  C   UNL     1      -2.716   3.573  -0.058  0.00  0.00    -0.037 C 
BRANCH   3  15
ATOM      4  C   UNL     1       0.856  -1.905  -0.724  0.00  0.00    +0.046 C 
ATOM      5  C   UNL     1       1.265  -0.467  -0.528  0.00  0.00    -0.026 A 
ATOM      6  C   UNL     1       2.600  -0.131  -0.463  0.00  0.00    +0.005 A 
ATOM      7  C   UNL     1       2.990   1.189  -0.283  0.00  0.00    +0.001 A 
ATOM      8  C   UNL     1       2.056   2.180  -0.167  0.00  0.00    +0.010 A 
ATOM      9  C   UNL     1       0.696   1.862  -0.230  0.00  0.00    -0.001 A 
ATOM     10  C   UNL     1       0.296   0.524  -0.412  0.00  0.00    +0.052 A 
ATOM     11  N   UNL     1      -1.046   0.216  -0.475  0.00  0.00    -0.322 N 
ATOM     12  H   UNL     1      -1.319  -0.706  -0.601  0.00  0.00    +0.169 HD
ATOM     13  C   UNL     1      -1.981   1.176  -0.368  0.00  0.00    +0.251 A 
ATOM     14  O   UNL     1      -3.159   0.868  -0.433  0.00  0.00    -0.268 OA
ATOM     15  C   UNL     1      -1.634   2.531  -0.178  0.00  0.00    +0.001 A 
ATOM     16  C   UNL     1      -0.331   2.899  -0.110  0.00  0.00    +0.017 A 
ENDBRANCH   3  15
ENDBRANCH   1   3
BRANCH   1  17
ATOM     17  C   UNL     1      -2.116   4.804  -2.054  0.00  0.00    -0.073 C 
BRANCH  17  18
ATOM     18  C   UNL     1      -1.922   6.105  -1.274  0.00  0.00    +0.016 C 
BRANCH  18  19
ATOM     19  C   UNL     1      -0.868   6.944  -1.949  0.00  0.00    -0.049 A 
ATOM     20  C   UNL     1       0.460   6.807  -1.590  0.00  0.00    +0.003 A 
ATOM     21  C   UNL     1       1.427   7.573  -2.213  0.00  0.00    +0.000 A 
ATOM     22  C   UNL     1       1.066   8.483  -3.189  0.00  0.00    +0.000 A 
ATOM     23  C   UNL     1      -0.263   8.624  -3.544  0.00  0.00    +0.000 A 
ATOM     24  C   UNL     1      -1.229   7.854  -2.925  0.00  0.00    +0.003 A 
ENDBRANCH  18  19
ENDBRANCH  17  18
ENDBRANCH   1  17
BRANCH   1  25
ATOM     25  C   UNL     1      -4.428   4.707  -1.341  0.00  0.00    +0.001 C 
BRANCH  25  26
ATOM     26  C   UNL     1      -4.958   4.900  -2.738  0.00  0.00    +0.135 A 
ATOM     27  N   UNL     1      -4.728   5.920  -3.528  0.00  0.00    -0.115 NA
ATOM     28  N   UNL     1      -5.354   5.716  -4.636  0.00  0.00    -0.023 NA
ATOM     29  N   UNL     1      -5.985   4.596  -4.569  0.00  0.00    -0.044 NA
ATOM     30  N   UNL     1      -5.766   4.063  -3.415  0.00  0.00    -0.227 N 
BRANCH  30  31
ATOM     31  C   UNL     1      -6.296   2.785  -2.931  0.00  0.00    +0.182 C 
BRANCH  31  32
ATOM     32  C   UNL     1      -7.615   3.018  -2.239  0.00  0.00    -0.026 A 
ATOM     33  C   UNL     1      -7.646   3.275  -0.881  0.00  0.00    +0.008 A 
ATOM     34  C   UNL     1      -8.854   3.493  -0.247  0.00  0.00    +0.038 A 
ATOM     35  C   UNL     1     -10.034   3.445  -0.970  0.00  0.00    +0.123 A 
ATOM     36  C   UNL     1     -10.002   3.182  -2.329  0.00  0.00    +0.038 A 
ATOM     37  C   UNL     1      -8.792   2.969  -2.962  0.00  0.00    +0.008 A 
ATOM     38  F   UNL     1     -11.216   3.653  -0.349  0.00  0.00    -0.205 F 
ENDBRANCH  31  32
ENDBRANCH  30  31
ENDBRANCH  25  26
ENDBRANCH   1  25
TORSDOF 9
