REMARK  Name = ZINC45124509
REMARK  9 active torsions:
REMARK  status: ('A' for Active; 'I' for Inactive)
REMARK    1  A    between atoms: C_1  and  C_2
REMARK    2  A    between atoms: C_2  and  N_3
REMARK    3  A    between atoms: N_3  and  C_4
REMARK    4  A    between atoms: C_4  and  C_5
REMARK    5  A    between atoms: N_18  and  C_19
REMARK    6  A    between atoms: C_19  and  C_21
REMARK    7  A    between atoms: C_19  and  C_22
REMARK    8  A    between atoms: C_26  and  S_28
REMARK    9  A    between atoms: S_28  and  N_31
REMARK                            x       y       z     vdW  Elec       q    Type
REMARK                         _______ _______ _______ _____ _____    ______ ____
ROOT
ATOM      1  N   UNL     1      -1.372  -0.511   0.012  0.00  0.00    -0.282 N 
ATOM      2  C   UNL     1      -1.993  -0.751   1.184  0.00  0.00    +0.303 C 
ATOM      3  O   UNL     1      -3.134  -1.171   1.193  0.00  0.00    -0.253 OA
ATOM      4  N   UNL     1      -1.350  -0.524   2.347  0.00  0.00    -0.293 N 
ATOM      5  H   UNL     1      -0.440  -0.188   2.340  0.00  0.00    +0.151 HD
ENDROOT
BRANCH   1   7
ATOM      6  C   UNL     1      -0.019   1.526   0.010  0.00  0.00    +0.024 C 
ATOM      7  C   UNL     1       0.002  -0.004   0.002  0.00  0.00    +0.106 C 
ENDBRANCH   1   7
BRANCH   4   8
ATOM      8  C   UNL     1      -2.025  -0.784   3.620  0.00  0.00    +0.102 C 
ATOM      9  C   UNL     1      -2.860   0.436   4.014  0.00  0.00    +0.033 C 
BRANCH   8  10
ATOM     10  C   UNL     1      -0.996  -1.054   4.688  0.00  0.00    -0.026 A 
ATOM     11  C   UNL     1       0.167  -0.308   4.732  0.00  0.00    +0.005 A 
ATOM     12  C   UNL     1       1.110  -0.556   5.711  0.00  0.00    +0.002 A 
ATOM     13  C   UNL     1       0.890  -1.549   6.647  0.00  0.00    +0.028 A 
ATOM     14  C   UNL     1      -0.273  -2.294   6.604  0.00  0.00    +0.105 A 
ATOM     15  C   UNL     1      -1.219  -2.043   5.627  0.00  0.00    +0.034 A 
BRANCH  14  16
ATOM     16  S   UNL     1      -0.553  -3.560   7.797  0.00  0.00    +0.056 S 
ATOM     17  O   UNL     1      -1.467  -4.476   7.211  0.00  0.00    -0.153 OA
ATOM     18  O   UNL     1       0.725  -3.959   8.273  0.00  0.00    -0.153 OA
BRANCH  16  19
ATOM     19  N   UNL     1      -1.338  -2.862   9.077  0.00  0.00    -0.204 NA
ATOM     20  H   UNL     1      -1.551  -1.916   9.058  0.00  0.00    +0.144 HD
ATOM     21  H   UNL     1      -1.584  -3.399   9.847  0.00  0.00    +0.144 HD
ENDBRANCH  16  19
ENDBRANCH  14  16
ENDBRANCH   8  10
ENDBRANCH   4   8
BRANCH   1  22
ATOM     22  C   UNL     1      -2.072  -0.758  -1.251  0.00  0.00    +0.157 C 
BRANCH  22  23
ATOM     23  C   UNL     1      -1.816  -2.197  -1.703  0.00  0.00    +0.228 C 
ATOM     24  C   UNL     1      -2.454  -2.428  -3.079  0.00  0.00    +0.275 C 
ATOM     25  O   UNL     1      -2.208  -3.785  -3.465  0.00  0.00    -0.485 OA
ATOM     26  C   UNL     1      -2.437  -4.740  -2.522  0.00  0.00    +0.162 A 
ATOM     27  C   UNL     1      -2.574  -6.064  -2.912  0.00  0.00    +0.049 A 
ATOM     28  C   UNL     1      -2.802  -7.045  -1.966  0.00  0.00    +0.004 A 
ATOM     29  C   UNL     1      -2.895  -6.709  -0.628  0.00  0.00    +0.004 A 
ATOM     30  C   UNL     1      -2.761  -5.392  -0.232  0.00  0.00    +0.049 A 
ATOM     31  C   UNL     1      -2.534  -4.402  -1.177  0.00  0.00    +0.163 A 
ATOM     32  O   UNL     1      -2.411  -3.108  -0.773  0.00  0.00    -0.480 OA
ENDBRANCH  22  23
ENDBRANCH   1  22
TORSDOF 7
