REMARK  Name = ZINC09227570
REMARK  11 active torsions:
REMARK  status: ('A' for Active; 'I' for Inactive)
REMARK    1  A    between atoms: C_1  and  C_2
REMARK    2  A    between atoms: C_2  and  C_3
REMARK    3  A    between atoms: C_2  and  C_4
REMARK    4  A    between atoms: C_4  and  N_5
REMARK    5  A    between atoms: C_7  and  N_16
REMARK    6  A    between atoms: N_19  and  C_20
REMARK    7  A    between atoms: C_20  and  C_21
REMARK    8  A    between atoms: C_21  and  N_67
REMARK    9  A    between atoms: C_22  and  C_23
REMARK   10  A    between atoms: C_22  and  N_67
REMARK   11  A    between atoms: C_28  and  N_67
REMARK                            x       y       z     vdW  Elec       q    Type
REMARK                         _______ _______ _______ _____ _____    ______ ____
ROOT
ATOM      1  N   UNL     1       4.341   3.382   1.401  0.00  0.00    -0.268 N 
ATOM      2  C   UNL     1       3.393   3.949   2.174  0.00  0.00    +0.304 C 
ATOM      3  O   UNL     1       2.346   3.365   2.377  0.00  0.00    -0.253 OA
ATOM      4  N   UNL     1       3.606   5.162   2.721  0.00  0.00    -0.301 N 
ATOM      5  H   UNL     1       5.208   3.808   1.306  0.00  0.00    +0.156 HD
ATOM      6  H   UNL     1       4.441   5.628   2.558  0.00  0.00    +0.150 HD
ENDROOT
BRANCH   1   9
ATOM      7  N   UNL     1       4.537  -0.137   0.421  0.00  0.00    -0.313 N 
ATOM      8  C   UNL     1       4.764   1.060   1.046  0.00  0.00    +0.113 A 
ATOM      9  C   UNL     1       4.075   2.176   0.734  0.00  0.00    +0.059 A 
ATOM     10  C   UNL     1       3.045   2.117  -0.307  0.00  0.00    +0.010 A 
ATOM     11  C   UNL     1       2.299   3.238  -0.674  0.00  0.00    +0.010 A 
ATOM     12  C   UNL     1       1.351   3.126  -1.653  0.00  0.00    +0.001 A 
ATOM     13  C   UNL     1       1.120   1.911  -2.286  0.00  0.00    +0.001 A 
ATOM     14  C   UNL     1       1.836   0.796  -1.947  0.00  0.00    +0.014 A 
ATOM     15  C   UNL     1       2.810   0.881  -0.952  0.00  0.00    +0.048 A 
ATOM     16  C   UNL     1       3.613  -0.278  -0.549  0.00  0.00    +0.259 A 
ATOM     17  O   UNL     1       3.444  -1.359  -1.085  0.00  0.00    -0.267 OA
BRANCH   7  18
ATOM     18  C   UNL     1       5.330  -1.303   0.818  0.00  0.00    +0.128 C 
BRANCH  18  20
ATOM     19  C   UNL     1       4.568  -1.146   3.192  0.00  0.00    +0.009 C 
ATOM     20  C   UNL     1       4.618  -2.042   1.953  0.00  0.00    +0.003 C 
ATOM     21  C   UNL     1       5.380  -3.326   2.283  0.00  0.00    +0.009 C 
ENDBRANCH  18  20
ENDBRANCH   7  18
ENDBRANCH   1   9
BRANCH   4  22
ATOM     22  C   UNL     1       2.575   5.778   3.560  0.00  0.00    +0.087 C 
BRANCH  22  23
ATOM     23  C   UNL     1       3.065   7.141   4.051  0.00  0.00    -0.059 C 
BRANCH  23  24
ATOM     24  N   UNL     1       1.955   7.825   4.747  0.00  0.00    +0.387 N 
ATOM     25  H   UNL     1       1.139   7.854   4.125  0.00  0.00    -0.081 HD
BRANCH  24  26
ATOM     26  C   UNL     1       1.597   7.085   5.976  0.00  0.00    -0.068 C 
ATOM     27  C   UNL     1       2.783   6.229   6.467  0.00  0.00    -0.015 C 
ATOM     28  C   UNL     1       2.121   4.929   6.988  0.00  0.00    -0.002 C 
ATOM     29  C   UNL     1       0.979   4.694   5.969  0.00  0.00    -0.002 C 
ATOM     30  C   UNL     1       0.451   6.109   5.659  0.00  0.00    -0.015 C 
ENDBRANCH  24  26
BRANCH  24  31
ATOM     31  C   UNL     1       2.348   9.209   5.087  0.00  0.00    -0.003 C 
BRANCH  31  32
ATOM     32  C   UNL     1       1.126   9.962   5.547  0.00  0.00    +0.089 A 
ATOM     33  C   UNL     1       0.760  10.162   6.826  0.00  0.00    +0.042 A 
ATOM     34  C   UNL     1      -0.437  10.913   6.797  0.00  0.00    +0.041 A 
ATOM     35  C   UNL     1      -0.736  11.120   5.502  0.00  0.00    +0.195 A 
ATOM     36  O   UNL     1       0.214  10.541   4.749  0.00  0.00    -0.470 OA
ENDBRANCH  31  32
ENDBRANCH  24  31
ENDBRANCH  23  24
ENDBRANCH  22  23
ENDBRANCH   4  22
TORSDOF 9
