REMARK  Name = ZINC38105911
REMARK  7 active torsions:
REMARK  status: ('A' for Active; 'I' for Inactive)
REMARK    1  A    between atoms: C_1  and  C_2
REMARK    2  A    between atoms: C_2  and  C_3
REMARK    3  A    between atoms: C_3  and  C_4
REMARK    4  A    between atoms: C_4  and  N_5
REMARK    5  A    between atoms: N_5  and  C_6
REMARK    6  A    between atoms: N_5  and  S_12
REMARK    7  A    between atoms: S_12  and  C_15
REMARK                            x       y       z     vdW  Elec       q    Type
REMARK                         _______ _______ _______ _____ _____    ______ ____
ROOT
ATOM      1  N   UNL     1       1.425  -2.500  -2.470  0.00  0.00    -0.203 N 
ENDROOT
BRANCH   1   2
ATOM      2  C   UNL     1       2.783  -2.810  -2.378  0.00  0.00    +0.051 A 
ATOM      3  C   UNL     1       3.647  -2.470  -3.411  0.00  0.00    +0.025 A 
ATOM      4  C   UNL     1       4.990  -2.777  -3.316  0.00  0.00    +0.002 A 
ATOM      5  C   UNL     1       5.475  -3.424  -2.194  0.00  0.00    +0.000 A 
ATOM      6  C   UNL     1       4.618  -3.764  -1.163  0.00  0.00    +0.002 A 
ATOM      7  C   UNL     1       3.275  -3.454  -1.250  0.00  0.00    +0.025 A 
ENDBRANCH   1   2
BRANCH   1   8
ATOM      8  S   UNL     1       0.519  -3.109  -3.716  0.00  0.00    +0.075 S 
ATOM      9  O   UNL     1       1.250  -4.204  -4.251  0.00  0.00    -0.150 OA
ATOM     10  O   UNL     1      -0.807  -3.245  -3.225  0.00  0.00    -0.150 OA
BRANCH   8  11
ATOM     11  C   UNL     1       0.467  -1.876  -4.974  0.00  0.00    +0.113 A 
ATOM     12  C   UNL     1      -0.535  -0.917  -4.986  0.00  0.00    +0.048 A 
ATOM     13  C   UNL     1      -0.545   0.035  -5.988  0.00  0.00    +0.114 A 
ATOM     14  N   UNL     1       0.384   0.038  -6.925  0.00  0.00    -0.243 NA
ATOM     15  C   UNL     1       1.352  -0.859  -6.945  0.00  0.00    +0.131 A 
ATOM     16  C   UNL     1       1.429  -1.838  -5.970  0.00  0.00    +0.069 A 
ATOM     17 CL   UNL     1       2.546  -0.804  -8.204  0.00  0.00    -0.062 Cl
ENDBRANCH   8  11
ENDBRANCH   1   8
BRANCH   1  18
ATOM     18  C   UNL     1       0.800  -1.635  -1.466  0.00  0.00    +0.131 C 
BRANCH  18  19
ATOM     19  C   UNL     1       1.011  -0.170  -1.852  0.00  0.00    +0.020 C 
BRANCH  19  21
ATOM     20  C   UNL     1       0.570   2.198  -1.189  0.00  0.00    +0.004 C 
ATOM     21  C   UNL     1       0.359   0.733  -0.803  0.00  0.00    -0.002 C 
ENDBRANCH  19  21
ENDBRANCH  18  19
ENDBRANCH   1  18
TORSDOF 6
