REMARK  Name = ZINC15957926
REMARK  9 active torsions:
REMARK  status: ('A' for Active; 'I' for Inactive)
REMARK    1  A    between atoms: C_1  and  C_2
REMARK    2  A    between atoms: C_2  and  O_3
REMARK    3  A    between atoms: O_3  and  C_4
REMARK    4  A    between atoms: C_4  and  C_6
REMARK    5  A    between atoms: C_9  and  N_12
REMARK    6  A    between atoms: C_17  and  C_36
REMARK    7  A    between atoms: C_28  and  C_35
REMARK    8  A    between atoms: C_29  and  C_34
REMARK    9  A    between atoms: C_36  and  C_37
REMARK                            x       y       z     vdW  Elec       q    Type
REMARK                         _______ _______ _______ _____ _____    ______ ____
ROOT
ATOM      1  N   UNL     1       3.481  -3.958   5.784  0.00  0.00    -0.210 N 
ATOM      2  C   UNL     1       4.104  -3.195   6.689  0.00  0.00    +0.232 C 
ATOM      3  O   UNL     1       4.171  -1.985   6.657  0.00  0.00    -0.274 OA
ATOM      4  C   UNL     1       4.711  -4.075   7.757  0.00  0.00    +0.108 C 
ATOM      5  C   UNL     1       6.250  -4.001   7.667  0.00  0.00    +0.076 C 
ATOM      6  N   UNL     1       6.624  -5.037   6.668  0.00  0.00    -0.295 NA
ATOM      7  C   UNL     1       5.702  -6.154   6.944  0.00  0.00    +0.136 C 
ATOM      8  C   UNL     1       4.337  -5.511   7.294  0.00  0.00    +0.123 C 
ATOM      9  C   UNL     1       3.541  -5.272   6.030  0.00  0.00    +0.233 C 
ATOM     10  O   UNL     1       3.039  -6.137   5.346  0.00  0.00    -0.274 OA
ATOM     11  C   UNL     1       6.202  -7.019   8.066  0.00  0.00    +0.004 A 
ATOM     12  C   UNL     1       6.508  -6.776   9.386  0.00  0.00    +0.008 A 
ATOM     13  C   UNL     1       6.959  -7.805  10.193  0.00  0.00    +0.004 A 
ATOM     14  C   UNL     1       7.102  -9.078   9.670  0.00  0.00    -0.046 A 
ATOM     15  C   UNL     1       6.797  -9.326   8.348  0.00  0.00    -0.026 A 
ATOM     16  C   UNL     1       6.342  -8.296   7.529  0.00  0.00    +0.042 A 
ATOM     17  N   UNL     1       5.974  -8.296   6.181  0.00  0.00    -0.283 N 
ATOM     18  C   UNL     1       5.587  -7.076   5.760  0.00  0.00    +0.243 C 
ATOM     19  O   UNL     1       5.216  -6.779   4.644  0.00  0.00    -0.273 OA
ATOM     20  C   UNL     1       6.955 -10.716   7.789  0.00  0.00    +0.046 C 
ATOM     21  C   UNL     1       7.593 -10.199  10.549  0.00  0.00    +0.044 C 
ATOM     22  H   UNL     1       6.504  -4.693   5.727  0.00  0.00    +0.124 HD
ATOM     23  H   UNL     1       5.996  -9.082   5.614  0.00  0.00    +0.155 HD
ENDROOT
BRANCH   1  27
ATOM     24  C   UNL     1       1.501  -2.373   2.476  0.00  0.00    +0.059 A 
ATOM     25  C   UNL     1       0.775  -3.001   3.493  0.00  0.00    +0.017 A 
ATOM     26  C   UNL     1       1.433  -3.523   4.583  0.00  0.00    +0.025 A 
ATOM     27  C   UNL     1       2.817  -3.427   4.675  0.00  0.00    +0.044 A 
ATOM     28  C   UNL     1       3.542  -2.803   3.666  0.00  0.00    +0.025 A 
ATOM     29  C   UNL     1       2.892  -2.283   2.569  0.00  0.00    +0.017 A 
BRANCH  24  30
ATOM     30  C   UNL     1       0.800  -1.812   1.306  0.00  0.00    +0.339 C 
ATOM     31  O   UNL     1       1.432  -1.270   0.421  0.00  0.00    -0.245 OA
BRANCH  30  32
ATOM     32  O   UNL     1      -0.542  -1.899   1.218  0.00  0.00    -0.461 OA
BRANCH  32  34
ATOM     33  C   UNL     1      -2.670  -1.528   0.135  0.00  0.00    +0.048 C 
ATOM     34  C   UNL     1      -1.155  -1.334   0.057  0.00  0.00    +0.229 C 
ENDBRANCH  32  34
ENDBRANCH  30  32
ENDBRANCH  24  30
ENDBRANCH   1  27
BRANCH   5  35
ATOM     35  C   UNL     1       6.689  -2.615   7.189  0.00  0.00    +0.115 C 
BRANCH  35  36
ATOM     36  C   UNL     1       8.193  -2.525   7.225  0.00  0.00    +0.212 C 
ATOM     37  O   UNL     1       8.849  -3.475   7.596  0.00  0.00    -0.276 OA
ATOM     38  N   UNL     1       8.809  -1.388   6.845  0.00  0.00    -0.329 N 
ATOM     39  H   UNL     1       8.284  -0.628   6.548  0.00  0.00    +0.145 HD
ATOM     40  H   UNL     1       9.777  -1.329   6.869  0.00  0.00    +0.145 HD
ENDBRANCH  35  36
ENDBRANCH   5  35
TORSDOF 6
