REMARK  Name = ZINC36309119
REMARK  14 active torsions:
REMARK  status: ('A' for Active; 'I' for Inactive)
REMARK    1  A    between atoms: C_1  and  C_2
REMARK    2  A    between atoms: C_5  and  O_8
REMARK    3  A    between atoms: O_8  and  C_9
REMARK    4  A    between atoms: C_9  and  C_10
REMARK    5  A    between atoms: C_20  and  C_22
REMARK    6  A    between atoms: C_22  and  N_23
REMARK    7  A    between atoms: N_23  and  C_24
REMARK    8  A    between atoms: N_23  and  C_30
REMARK    9  A    between atoms: C_24  and  C_25
REMARK   10  A    between atoms: C_30  and  C_31
REMARK   11  A    between atoms: C_31  and  C_33
REMARK   12  A    between atoms: C_31  and  O_36
REMARK   13  A    between atoms: C_33  and  O_34
REMARK   14  A    between atoms: O_34  and  C_35
REMARK                            x       y       z     vdW  Elec       q    Type
REMARK                         _______ _______ _______ _____ _____    ______ ____
ROOT
ATOM      1  C   UNL     1       0.248  -6.224   1.719  0.00  0.00    +0.144 C 
ATOM      2  C   UNL     1       1.607  -6.736   1.246  0.00  0.00    -0.014 A 
ATOM      3  C   UNL     1       2.795  -6.502   1.937  0.00  0.00    +0.013 A 
ATOM      4  C   UNL     1       3.964  -6.983   1.455  0.00  0.00    +0.046 A 
ATOM      5  S   UNL     1       3.434  -7.813  -0.035  0.00  0.00    -0.101 S 
ATOM      6  C   UNL     1       1.701  -7.460   0.097  0.00  0.00    -0.004 A 
ATOM      7  C   UNL     1       0.599  -7.862  -0.828  0.00  0.00    +0.061 C 
ATOM      8  C   UNL     1      -0.638  -7.003  -0.523  0.00  0.00    +0.113 C 
ATOM      9  N   UNL     1      -0.789  -6.911   0.938  0.00  0.00    -0.292 N 
ATOM     10  C   UNL     1      -1.862  -7.449   1.550  0.00  0.00    +0.200 C 
ATOM     11  O   UNL     1      -1.976  -7.369   2.755  0.00  0.00    -0.278 OA
ENDROOT
BRANCH   1  12
ATOM     12  C   UNL     1       0.155  -4.714   1.490  0.00  0.00    +0.256 C 
BRANCH  12  13
ATOM     13  O   UNL     1       0.440  -4.422   0.120  0.00  0.00    -0.490 OA
BRANCH  13  18
ATOM     14  C   UNL     1       0.270   0.991  -1.428  0.00  0.00    +0.044 C 
ATOM     15  C   UNL     1       0.316  -0.457  -1.013  0.00  0.00    -0.050 A 
ATOM     16  C   UNL     1       0.624  -1.432  -1.944  0.00  0.00    +0.007 A 
ATOM     17  C   UNL     1       0.666  -2.760  -1.567  0.00  0.00    +0.046 A 
ATOM     18  C   UNL     1       0.400  -3.116  -0.253  0.00  0.00    +0.121 A 
ATOM     19  C   UNL     1       0.091  -2.136   0.679  0.00  0.00    +0.046 A 
ATOM     20  C   UNL     1       0.055  -0.808   0.298  0.00  0.00    +0.007 A 
ENDBRANCH  13  18
ENDBRANCH  12  13
ENDBRANCH   1  12
BRANCH  10  21
ATOM     21  C   UNL     1      -2.920  -8.152   0.739  0.00  0.00    +0.019 C 
BRANCH  21  22
ATOM     22  N   UNL     1      -3.936  -8.712   1.639  0.00  0.00    +0.392 N 
ATOM     23  H   UNL     1      -3.486  -9.277   2.344  0.00  0.00    -0.080 HD
BRANCH  22  24
ATOM     24  C   UNL     1      -4.868  -9.545   0.867  0.00  0.00    -0.002 C 
BRANCH  24  25
ATOM     25  C   UNL     1      -4.118 -10.693   0.243  0.00  0.00    +0.089 A 
ATOM     26  C   UNL     1      -3.992 -11.927   0.765  0.00  0.00    +0.042 A 
ATOM     27  C   UNL     1      -3.215 -12.679  -0.145  0.00  0.00    +0.041 A 
ATOM     28  C   UNL     1      -2.911 -11.860  -1.169  0.00  0.00    +0.195 A 
ATOM     29  O   UNL     1      -3.466 -10.660  -0.931  0.00  0.00    -0.470 OA
ENDBRANCH  24  25
ENDBRANCH  22  24
BRANCH  22  30
ATOM     30  C   UNL     1      -4.675  -7.619   2.284  0.00  0.00    -0.044 C 
BRANCH  30  31
ATOM     31  C   UNL     1      -5.604  -8.194   3.356  0.00  0.00    +0.124 C 
BRANCH  31  32
ATOM     32  O   UNL     1      -6.652  -8.936   2.729  0.00  0.00    -0.391 OA
ATOM     33  H   UNL     1      -7.199  -8.413   2.128  0.00  0.00    +0.210 HD
ENDBRANCH  31  32
BRANCH  31  34
ATOM     34  C   UNL     1      -6.208  -7.051   4.174  0.00  0.00    +0.188 C 
BRANCH  34  35
ATOM     35  O   UNL     1      -6.982  -7.591   5.247  0.00  0.00    -0.381 OA
ATOM     36  C   UNL     1      -7.594  -6.601   6.077  0.00  0.00    +0.194 C 
ENDBRANCH  34  35
ENDBRANCH  31  34
ENDBRANCH  30  31
ENDBRANCH  22  30
ENDBRANCH  21  22
ENDBRANCH  10  21
TORSDOF 12
