REMARK  Name = ZINC32860153
REMARK  8 active torsions:
REMARK  status: ('A' for Active; 'I' for Inactive)
REMARK    1  A    between atoms: C_1  and  C_2
REMARK    2  A    between atoms: C_15  and  C_17
REMARK    3  A    between atoms: C_17  and  N_18
REMARK    4  A    between atoms: N_18  and  C_19
REMARK    5  A    between atoms: N_18  and  C_20
REMARK    6  A    between atoms: C_20  and  C_22
REMARK    7  A    between atoms: C_20  and  C_23
REMARK    8  A    between atoms: N_25  and  C_26
REMARK                            x       y       z     vdW  Elec       q    Type
REMARK                         _______ _______ _______ _____ _____    ______ ____
ROOT
ATOM      1  C   UNL     1      -1.077   0.886  -2.280  0.00  0.00    +0.020 C 
ENDROOT
BRANCH   1  15
ATOM      2  C   UNL     1      -1.440   0.737   2.335  0.00  0.00    +0.029 C 
ATOM      3  C   UNL     1      -0.207   0.592   1.441  0.00  0.00    +0.087 C 
ATOM      4  C   UNL     1       0.965   1.353   2.063  0.00  0.00    +0.118 C 
ATOM      5  C   UNL     1       2.050   1.560   1.040  0.00  0.00    +0.219 C 
ATOM      6  O   UNL     1       3.058   0.887   1.087  0.00  0.00    -0.275 OA
ATOM      7  N   UNL     1       1.909   2.490   0.070  0.00  0.00    -0.284 N 
ATOM      8  C   UNL     1       0.717   3.213  -0.055  0.00  0.00    +0.055 A 
ATOM      9  C   UNL     1       0.731   4.591  -0.188  0.00  0.00    +0.025 A 
ATOM     10  C   UNL     1      -0.458   5.278  -0.350  0.00  0.00    +0.002 A 
ATOM     11  C   UNL     1      -1.660   4.593  -0.380  0.00  0.00    +0.002 A 
ATOM     12  C   UNL     1      -1.682   3.218  -0.235  0.00  0.00    +0.025 A 
ATOM     13  C   UNL     1      -0.496   2.524  -0.061  0.00  0.00    +0.058 A 
ATOM     14  N   UNL     1      -0.503   1.133   0.114  0.00  0.00    -0.268 N 
ATOM     15  C   UNL     1      -0.775   0.312  -0.919  0.00  0.00    +0.204 C 
ATOM     16  O   UNL     1      -0.778  -0.890  -0.754  0.00  0.00    -0.277 OA
ATOM     17  H   UNL     1       2.736   2.685  -0.630  0.00  0.00    +0.155 HD
ENDBRANCH   1  15
BRANCH   1  18
ATOM     18  N   UNL     1      -1.339  -0.207  -3.225  0.00  0.00    +0.391 N 
ATOM     19  C   UNL     1      -2.568  -0.928  -2.870  0.00  0.00    -0.094 C 
ATOM     20  H   UNL     1      -0.500  -0.916  -3.162  0.00  0.00    -0.080 HD
BRANCH  18  21
ATOM     21  C   UNL     1      -1.403   0.294  -4.605  0.00  0.00    +0.017 C 
ATOM     22  C   UNL     1      -2.294   1.537  -4.655  0.00  0.00    -0.004 C 
BRANCH  21  23
ATOM     23  C   UNL     1      -0.016   0.651  -5.074  0.00  0.00    +0.204 C 
ATOM     24  O   UNL     1       0.894   0.728  -4.276  0.00  0.00    -0.277 OA
ATOM     25  N   UNL     1       0.214   0.885  -6.382  0.00  0.00    -0.282 N 
ATOM     26  H   UNL     1      -0.588   0.727  -7.118  0.00  0.00    +0.155 HD
BRANCH  25  27
ATOM     27  C   UNL     1       1.474   1.331  -6.803  0.00  0.00    +0.105 A 
ATOM     28  C   UNL     1       1.576   2.392  -7.695  0.00  0.00    +0.147 A 
ATOM     29  C   UNL     1       2.822   2.832  -8.104  0.00  0.00    +0.040 A 
ATOM     30  C   UNL     1       3.965   2.211  -7.636  0.00  0.00    +0.006 A 
ATOM     31  C   UNL     1       3.868   1.150  -6.753  0.00  0.00    +0.040 A 
ATOM     32  C   UNL     1       2.625   0.708  -6.335  0.00  0.00    +0.147 A 
ATOM     33  F   UNL     1       2.531  -0.328  -5.473  0.00  0.00    -0.203 F 
ATOM     34  F   UNL     1       0.460   2.996  -8.157  0.00  0.00    -0.203 F 
ENDBRANCH  25  27
ENDBRANCH  21  23
ENDBRANCH  18  21
ENDBRANCH   1  18
TORSDOF 5
