REMARK  Name = ZINC06667041
REMARK  6 active torsions:
REMARK  status: ('A' for Active; 'I' for Inactive)
REMARK    1  A    between atoms: C_1  and  C_2
REMARK    2  A    between atoms: C_2  and  N_3
REMARK    3  A    between atoms: C_5  and  C_19
REMARK    4  A    between atoms: N_8  and  S_9
REMARK    5  A    between atoms: S_9  and  C_12
REMARK    6  A    between atoms: C_15  and  C_18
REMARK                            x       y       z     vdW  Elec       q    Type
REMARK                         _______ _______ _______ _____ _____    ______ ____
ROOT
ATOM      1  N   UNL     1       0.130  -2.434   3.122  0.00  0.00    -0.309 N 
ATOM      2  C   UNL     1       0.178  -3.771   3.216  0.00  0.00    +0.128 A 
ATOM      3  C   UNL     1       0.233  -4.529   2.081  0.00  0.00    +0.090 A 
ATOM      4  S   UNL     1       0.207  -3.280   0.804  0.00  0.00    -0.044 S 
ATOM      5  C   UNL     1       0.125  -1.848   1.870  0.00  0.00    +0.196 A 
ATOM      6  N   UNL     1       0.079  -0.581   1.550  0.00  0.00    -0.103 NA
ATOM      7 CL   UNL     1       0.178  -4.536   4.775  0.00  0.00    -0.063 Cl
ENDROOT
BRANCH   6   8
ATOM      8  S   UNL     1       0.093  -0.127  -0.042  0.00  0.00    +0.101 S 
ATOM      9  O   UNL     1      -1.122  -0.597  -0.609  0.00  0.00    -0.146 OA
ATOM     10  O   UNL     1       1.366  -0.494  -0.558  0.00  0.00    -0.146 OA
BRANCH   8  11
ATOM     11  C   UNL     1       0.021   1.633  -0.084  0.00  0.00    +0.113 A 
ATOM     12  C   UNL     1      -1.203   2.273  -0.130  0.00  0.00    +0.029 A 
ATOM     13  C   UNL     1      -1.260   3.654  -0.158  0.00  0.00    +0.005 A 
ATOM     14  C   UNL     1      -0.092   4.394  -0.149  0.00  0.00    -0.050 A 
ATOM     15  C   UNL     1       1.132   3.753  -0.108  0.00  0.00    +0.005 A 
ATOM     16  C   UNL     1       1.189   2.373  -0.075  0.00  0.00    +0.029 A 
ATOM     17  C   UNL     1      -0.154   5.900  -0.184  0.00  0.00    +0.044 C 
ENDBRANCH   8  11
ENDBRANCH   6   8
BRANCH   1  19
ATOM     18  C   UNL     1       0.886  -0.326   4.105  0.00  0.00    +0.027 C 
ATOM     19  C   UNL     1       0.078  -1.606   4.329  0.00  0.00    +0.122 C 
ENDBRANCH   1  19
BRANCH   3  20
ATOM     20  C   UNL     1       0.295  -5.930   1.950  0.00  0.00    +0.269 C 
ATOM     21  O   UNL     1       0.339  -6.436   0.847  0.00  0.00    -0.295 OA
ENDBRANCH   3  20
TORSDOF 4
