REMARK  Name = ZINC32325971
REMARK  5 active torsions:
REMARK  status: ('A' for Active; 'I' for Inactive)
REMARK    1  A    between atoms: C_6  and  C_7
REMARK    2  A    between atoms: C_10  and  S_13
REMARK    3  A    between atoms: S_13  and  C_14
REMARK    4  A    between atoms: C_14  and  C_15
REMARK    5  A    between atoms: C_15  and  C_17
REMARK                            x       y       z     vdW  Elec       q    Type
REMARK                         _______ _______ _______ _____ _____    ______ ____
ROOT
ATOM      1  C   UNL     1      -5.000  -0.057  -0.026  0.00  0.00    +0.157 C 
ENDROOT
BRANCH   1   2
ATOM      2  C   UNL     1      -3.683  -0.789  -0.028  0.00  0.00    +0.173 C 
ATOM      3  O   UNL     1      -3.664  -2.002  -0.042  0.00  0.00    -0.291 OA
BRANCH   2   4
ATOM      4  C   UNL     1      -2.424  -0.035  -0.011  0.00  0.00    +0.019 A 
ATOM      5  C   UNL     1      -2.435   1.366   0.006  0.00  0.00    +0.013 A 
ATOM      6  C   UNL     1      -1.259   2.044   0.017  0.00  0.00    +0.024 A 
ATOM      7  C   UNL     1      -0.017   1.378   0.010  0.00  0.00    +0.037 A 
ATOM      8  C   UNL     1       0.002  -0.004   0.002  0.00  0.00    -0.025 A 
ATOM      9  C   UNL     1      -1.200  -0.703  -0.012  0.00  0.00    +0.016 A 
ATOM     10  C   UNL     1       1.234  -0.850   0.011  0.00  0.00    +0.037 C 
ATOM     11  C   UNL     1       2.382  -0.318   0.812  0.00  0.00    +0.014 C 
ATOM     12  C   UNL     1       3.135   0.792   0.119  0.00  0.00    +0.096 C 
ATOM     13  C   UNL     1       2.366   2.065   0.116  0.00  0.00    +0.217 C 
ATOM     14  O   UNL     1       3.011   3.085   0.229  0.00  0.00    -0.275 OA
ATOM     15  N   UNL     1       1.076   2.204   0.004  0.00  0.00    -0.285 N 
ATOM     16  H   UNL     1       0.945   3.289  -0.122  0.00  0.00    +0.155 HD
ENDBRANCH   2   4
ENDBRANCH   1   2
BRANCH   1  17
ATOM     17  S   UNL     1      -6.357  -1.255  -0.049  0.00  0.00    -0.079 S 
BRANCH  17  21
ATOM     18  C   UNL     1      -9.757   0.671  -0.044  0.00  0.00    +0.182 A 
ATOM     19  N   UNL     1      -9.054  -0.512  -0.060  0.00  0.00    -0.201 NA
ATOM     20  H   UNL     1      -6.816   1.829  -0.006  0.00  0.00    +0.191 HD
ATOM     21  C   UNL     1      -7.735  -0.157  -0.043  0.00  0.00    +0.185 A 
ATOM     22  N   UNL     1      -7.686   1.156  -0.021  0.00  0.00    -0.253 N 
ATOM     23  N   UNL     1      -8.875   1.643  -0.018  0.00  0.00    -0.152 NA
BRANCH  18  29
ATOM     24  C   UNL     1     -12.046  -0.312  -0.076  0.00  0.00    +0.013 A 
ATOM     25  C   UNL     1     -13.417  -0.168  -0.081  0.00  0.00    +0.021 A 
ATOM     26  C   UNL     1     -13.983   1.096  -0.072  0.00  0.00    +0.041 A 
ATOM     27  C   UNL     1     -13.177   2.222  -0.054  0.00  0.00    +0.021 A 
ATOM     28  C   UNL     1     -11.804   2.090  -0.045  0.00  0.00    +0.013 A 
ATOM     29  C   UNL     1     -11.228   0.819  -0.053  0.00  0.00    +0.021 A 
ATOM     30 CL   UNL     1     -15.710   1.270  -0.083  0.00  0.00    -0.084 Cl
ENDBRANCH  18  29
ENDBRANCH  17  21
ENDBRANCH   1  17
TORSDOF 5
