REMARK  Name = ZINC31250415
REMARK  9 active torsions:
REMARK  status: ('A' for Active; 'I' for Inactive)
REMARK    1  A    between atoms: C_1  and  C_2
REMARK    2  A    between atoms: C_2  and  C_4
REMARK    3  A    between atoms: C_2  and  N_13
REMARK    4  A    between atoms: C_7  and  C_10
REMARK    5  A    between atoms: C_10  and  C_11
REMARK    6  A    between atoms: C_10  and  C_12
REMARK    7  A    between atoms: C_14  and  C_16
REMARK    8  A    between atoms: N_21  and  S_22
REMARK    9  A    between atoms: S_22  and  C_25
REMARK                            x       y       z     vdW  Elec       q    Type
REMARK                         _______ _______ _______ _____ _____    ______ ____
ROOT
ATOM      1  C   UNL     1       2.783  -1.099   2.395  0.00  0.00    +0.165 C 
ATOM      2  C   UNL     1       2.334  -2.539   2.722  0.00  0.00    +0.031 C 
ATOM      3  C   UNL     1       3.444  -3.405   2.071  0.00  0.00    +0.019 C 
ATOM      4  C   UNL     1       4.700  -2.528   2.304  0.00  0.00    +0.110 C 
ATOM      5  N   UNL     1       4.229  -1.138   2.132  0.00  0.00    -0.165 NA
ENDROOT
BRANCH   1   7
ATOM      6  N   UNL     1       0.711  -0.489   1.189  0.00  0.00    -0.307 N 
ATOM      7  C   UNL     1       2.054  -0.600   1.174  0.00  0.00    +0.232 C 
ATOM      8  O   UNL     1       2.676  -0.297   0.177  0.00  0.00    -0.274 OA
ATOM      9  H   UNL     1       0.213  -0.731   1.986  0.00  0.00    +0.149 HD
BRANCH   6  11
ATOM     10  C   UNL     1      -0.019   1.526   0.010  0.00  0.00    +0.033 C 
ATOM     11  C   UNL     1       0.002  -0.004   0.002  0.00  0.00    +0.100 C 
BRANCH  11  12
ATOM     12  C   UNL     1      -1.412  -0.526   0.013  0.00  0.00    -0.027 A 
ATOM     13  C   UNL     1      -2.123  -0.571   1.197  0.00  0.00    +0.006 A 
ATOM     14  C   UNL     1      -3.420  -1.049   1.207  0.00  0.00    +0.004 A 
ATOM     15  C   UNL     1      -4.006  -1.482   0.032  0.00  0.00    -0.045 A 
ATOM     16  C   UNL     1      -3.295  -1.436  -1.153  0.00  0.00    +0.004 A 
ATOM     17  C   UNL     1      -2.000  -0.954  -1.163  0.00  0.00    +0.006 A 
BRANCH  15  18
ATOM     18  C   UNL     1      -5.419  -2.005   0.043  0.00  0.00    +0.013 C 
ATOM     19  C   UNL     1      -6.288  -1.144  -0.876  0.00  0.00    +0.012 C 
ATOM     20  C   UNL     1      -5.431  -3.452  -0.452  0.00  0.00    +0.012 C 
ENDBRANCH  15  18
ENDBRANCH  11  12
ENDBRANCH   6  11
ENDBRANCH   1   7
BRANCH   5  21
ATOM     21  S   UNL     1       5.169   0.159   1.713  0.00  0.00    +0.062 S 
ATOM     22  O   UNL     1       6.301  -0.363   1.031  0.00  0.00    -0.153 OA
ATOM     23  O   UNL     1       4.300   1.117   1.125  0.00  0.00    -0.153 OA
BRANCH  21  24
ATOM     24  C   UNL     1       5.768   0.873   3.209  0.00  0.00    +0.109 A 
ATOM     25  C   UNL     1       5.038   1.861   3.843  0.00  0.00    +0.032 A 
ATOM     26  C   UNL     1       5.505   2.424   5.015  0.00  0.00    +0.051 A 
ATOM     27  C   UNL     1       6.708   1.998   5.559  0.00  0.00    +0.162 A 
ATOM     28  C   UNL     1       7.441   1.004   4.923  0.00  0.00    +0.164 A 
ATOM     29  C   UNL     1       6.965   0.440   3.749  0.00  0.00    +0.078 A 
ATOM     30  O   UNL     1       8.620   0.566   5.444  0.00  0.00    -0.485 OA
ATOM     31  C   UNL     1       9.244   1.407   6.420  0.00  0.00    +0.270 C 
ATOM     32  C   UNL     1       8.174   1.852   7.426  0.00  0.00    +0.270 C 
ATOM     33  O   UNL     1       7.157   2.565   6.713  0.00  0.00    -0.485 OA
ENDBRANCH  21  24
ENDBRANCH   5  21
TORSDOF 6
