REMARK  Name = ZINC23405706
REMARK  7 active torsions:
REMARK  status: ('A' for Active; 'I' for Inactive)
REMARK    1  A    between atoms: C_1  and  C_2
REMARK    2  A    between atoms: C_5  and  N_11
REMARK    3  A    between atoms: C_7  and  N_8
REMARK    4  A    between atoms: C_12  and  C_14
REMARK    5  A    between atoms: C_14  and  C_16
REMARK    6  A    between atoms: C_14  and  S_17
REMARK    7  A    between atoms: S_17  and  C_18
REMARK                            x       y       z     vdW  Elec       q    Type
REMARK                         _______ _______ _______ _____ _____    ______ ____
ROOT
ATOM      1  C   UNL     1      -1.482   3.768   0.086  0.00  0.00    +0.136 C 
ATOM      2  C   UNL     1      -1.737   3.474   1.566  0.00  0.00    +0.029 C 
ENDROOT
BRANCH   1   4
ATOM      3  N   UNL     1      -2.775   5.845  -0.277  0.00  0.00    -0.285 N 
ATOM      4  C   UNL     1      -1.571   5.254  -0.152  0.00  0.00    +0.230 C 
ATOM      5  O   UNL     1      -0.558   5.917  -0.233  0.00  0.00    -0.274 OA
ATOM      6  H   UNL     1      -3.689   5.234  -0.289  0.00  0.00    +0.155 HD
BRANCH   3  11
ATOM      7  C   UNL     1      -3.129  11.489  -0.737  0.00  0.00    +0.046 C 
ATOM      8  C   UNL     1      -3.035   9.990  -0.615  0.00  0.00    -0.020 A 
ATOM      9  C   UNL     1      -2.044   9.422   0.165  0.00  0.00    +0.007 A 
ATOM     10  C   UNL     1      -1.958   8.049   0.283  0.00  0.00    +0.024 A 
ATOM     11  C   UNL     1      -2.862   7.237  -0.390  0.00  0.00    +0.036 A 
ATOM     12  C   UNL     1      -3.857   7.811  -1.171  0.00  0.00    +0.056 A 
ATOM     13  C   UNL     1      -3.941   9.185  -1.281  0.00  0.00    +0.131 A 
BRANCH  13  14
ATOM     14  N   UNL     1      -5.000   9.797  -2.114  0.00  0.00    +0.057 N 
ATOM     15  O   UNL     1      -5.718   9.092  -2.801  0.00  0.00    -0.126 OA
ATOM     16  O   UNL     1      -5.154  11.005  -2.113  0.00  0.00    -0.126 OA
ENDBRANCH  13  14
ENDBRANCH   3  11
ENDBRANCH   1   4
BRANCH   1  17
ATOM     17  S   UNL     1       0.169   3.182  -0.370  0.00  0.00    -0.093 S 
BRANCH  17  18
ATOM     18  C   UNL     1      -0.050   1.448  -0.143  0.00  0.00    +0.109 A 
ATOM     19  C   UNL     1       1.022   0.546  -0.393  0.00  0.00    +0.043 A 
ATOM     20  C   UNL     1       2.389   0.853  -0.844  0.00  0.00    -0.025 A 
ATOM     21  C   UNL     1       3.223  -0.187  -1.003  0.00  0.00    -0.004 A 
ATOM     22  S   UNL     1       2.263  -1.621  -0.573  0.00  0.00    -0.073 S 
ATOM     23  C   UNL     1       0.736  -0.814  -0.178  0.00  0.00    +0.113 A 
ATOM     24  N   UNL     1      -0.456  -1.212   0.227  0.00  0.00    -0.228 NA
ATOM     25  C   UNL     1      -1.414  -0.330   0.441  0.00  0.00    +0.223 A 
ATOM     26  N   UNL     1      -1.214   0.964   0.261  0.00  0.00    -0.229 NA
ATOM     27  C   UNL     1       4.590   0.245  -1.462  0.00  0.00    +0.043 C 
ATOM     28  C   UNL     1       4.640   1.759  -1.158  0.00  0.00    +0.010 C 
ATOM     29  C   UNL     1       3.146   2.136  -1.200  0.00  0.00    +0.037 C 
ENDBRANCH  17  18
ENDBRANCH   1  17
TORSDOF 5
