REMARK  Name = ZINC12878609
REMARK  10 active torsions:
REMARK  status: ('A' for Active; 'I' for Inactive)
REMARK    1  A    between atoms: C_1  and  O_2
REMARK    2  A    between atoms: O_2  and  C_3
REMARK    3  A    between atoms: C_6  and  C_13
REMARK    4  A    between atoms: C_7  and  O_11
REMARK    5  A    between atoms: C_8  and  O_9
REMARK    6  A    between atoms: O_9  and  C_10
REMARK    7  A    between atoms: O_11  and  C_12
REMARK    8  A    between atoms: C_20  and  O_30
REMARK    9  A    between atoms: C_21  and  C_24
REMARK   10  A    between atoms: C_24  and  N_58
REMARK                            x       y       z     vdW  Elec       q    Type
REMARK                         _______ _______ _______ _____ _____    ______ ____
ROOT
ATOM      1  C   UNL     1      -1.349  -4.003   4.071  0.00  0.00    +0.062 C 
ATOM      2  C   UNL     1      -1.059  -3.899   2.747  0.00  0.00    +0.176 C 
ATOM      3  C   UNL     1      -0.928  -5.012   1.798  0.00  0.00    +0.231 C 
ATOM      4  O   UNL     1      -1.053  -6.204   2.024  0.00  0.00    -0.283 OA
ATOM      5  C   UNL     1      -0.611  -4.366   0.511  0.00  0.00    +0.068 A 
ATOM      6  C   UNL     1      -0.368  -4.861  -0.771  0.00  0.00    +0.019 A 
ATOM      7  C   UNL     1      -0.093  -3.997  -1.793  0.00  0.00    +0.046 A 
ATOM      8  C   UNL     1      -0.062  -2.624  -1.560  0.00  0.00    +0.122 A 
ATOM      9  C   UNL     1      -0.294  -2.120  -0.291  0.00  0.00    +0.020 A 
ATOM     10  C   UNL     1      -0.575  -2.985   0.760  0.00  0.00    +0.144 A 
ATOM     11  O   UNL     1      -0.838  -2.751   2.064  0.00  0.00    -0.451 OA
ENDROOT
BRANCH   1  15
ATOM     12  C   UNL     1      -1.270  -0.547   6.533  0.00  0.00    +0.165 A 
ATOM     13  C   UNL     1      -1.332  -0.417   5.149  0.00  0.00    +0.050 A 
ATOM     14  C   UNL     1      -1.358  -1.533   4.347  0.00  0.00    +0.015 A 
ATOM     15  C   UNL     1      -1.322  -2.811   4.923  0.00  0.00    +0.024 A 
ATOM     16  C   UNL     1      -1.265  -2.944   6.321  0.00  0.00    +0.172 A 
ATOM     17  C   UNL     1      -1.233  -1.809   7.118  0.00  0.00    +0.204 A 
BRANCH  12  19
ATOM     18  C   UNL     1      -1.286   1.826   6.652  0.00  0.00    +0.277 C 
ATOM     19  O   UNL     1      -1.246   0.562   7.317  0.00  0.00    -0.491 OA
ENDBRANCH  12  19
BRANCH  17  20
ATOM     20  O   UNL     1      -1.173  -1.930   8.472  0.00  0.00    -0.488 OA
ATOM     21  C   UNL     1      -2.416  -1.999   9.174  0.00  0.00    +0.277 C 
ENDBRANCH  17  20
BRANCH  16  22
ATOM     22  O   UNL     1      -1.235  -4.177   6.888  0.00  0.00    -0.491 OA
ATOM     23  C   UNL     1       0.052  -4.759   7.108  0.00  0.00    +0.277 C 
ENDBRANCH  16  22
ENDBRANCH   1  15
BRANCH   8  24
ATOM     24  O   UNL     1       0.205  -1.774  -2.583  0.00  0.00    -0.506 OA
ATOM     25  H   UNL     1       1.146  -1.582  -2.700  0.00  0.00    +0.292 HD
ENDBRANCH   8  24
BRANCH   9  26
ATOM     26  C   UNL     1      -0.249  -0.633  -0.051  0.00  0.00    -0.036 C 
BRANCH  26  32
ATOM     27  C   UNL     1       1.257   1.225   0.325  0.00  0.00    -0.078 C 
ATOM     28  C   UNL     1       2.722   1.597   0.567  0.00  0.00    -0.019 C 
ATOM     29  C   UNL     1       3.177   1.013   1.907  0.00  0.00    -0.004 C 
ATOM     30  C   UNL     1       2.976  -0.505   1.888  0.00  0.00    -0.019 C 
ATOM     31  C   UNL     1       1.504  -0.816   1.608  0.00  0.00    -0.078 C 
ATOM     32  N   UNL     1       1.135  -0.248   0.294  0.00  0.00    +0.383 N 
ATOM     33  H   UNL     1       1.772  -0.620  -0.421  0.00  0.00    -0.081 HD
ENDBRANCH  26  32
ENDBRANCH   9  26
TORSDOF 7
