REMARK  Name = ZINC67116513
REMARK  8 active torsions:
REMARK  status: ('A' for Active; 'I' for Inactive)
REMARK    1  A    between atoms: C_1  and  C_2
REMARK    2  A    between atoms: C_2  and  C_3
REMARK    3  A    between atoms: C_4  and  C_19
REMARK    4  A    between atoms: C_5  and  C_11
REMARK    5  A    between atoms: C_13  and  C_18
REMARK    6  A    between atoms: C_15  and  C_17
REMARK    7  A    between atoms: C_19  and  O_21
REMARK    8  A    between atoms: O_21  and  C_22
REMARK                            x       y       z     vdW  Elec       q    Type
REMARK                         _______ _______ _______ _____ _____    ______ ____
ROOT
ATOM      1  C   UNL     1      -1.362  -0.695   0.005  0.00  0.00    +0.021 C 
ATOM      2  C   UNL     1      -2.044  -0.755  -1.159  0.00  0.00    +0.078 C 
ATOM      3  C   UNL     1      -3.521  -1.089  -1.094  0.00  0.00    +0.141 C 
ATOM      4  N   UNL     1      -4.094  -1.323   0.242  0.00  0.00    -0.315 N 
ATOM      5  C   UNL     1      -3.282  -1.227   1.314  0.00  0.00    +0.135 C 
ATOM      6  S   UNL     1      -3.934  -1.497   2.873  0.00  0.00    -0.019 S 
ATOM      7  N   UNL     1      -1.981  -0.933   1.198  0.00  0.00    -0.300 N 
ATOM      8  H   UNL     1      -5.033  -1.541   0.349  0.00  0.00    +0.149 HD
ATOM      9  H   UNL     1      -1.449  -0.883   2.008  0.00  0.00    +0.154 HD
ENDROOT
BRANCH   3  10
ATOM     10  C   UNL     1      -4.282   0.043  -1.734  0.00  0.00    -0.022 A 
ATOM     11  C   UNL     1      -4.524   1.203  -1.021  0.00  0.00    +0.009 A 
ATOM     12  C   UNL     1      -5.223   2.241  -1.607  0.00  0.00    -0.050 A 
ATOM     13  C   UNL     1      -5.679   2.121  -2.907  0.00  0.00    +0.006 A 
ATOM     14  C   UNL     1      -5.436   0.962  -3.620  0.00  0.00    -0.050 A 
ATOM     15  C   UNL     1      -4.734  -0.075  -3.035  0.00  0.00    +0.009 A 
ATOM     16  C   UNL     1      -5.934   0.830  -5.036  0.00  0.00    +0.044 C 
ATOM     17  C   UNL     1      -5.487   3.505  -0.830  0.00  0.00    +0.044 C 
ENDBRANCH   3  10
BRANCH   1  19
ATOM     18  C   UNL     1       0.300   1.128   0.260  0.00  0.00    +0.010 C 
ATOM     19  C   UNL     1       0.108  -0.365  -0.013  0.00  0.00    +0.048 C 
ENDBRANCH   1  19
BRANCH   2  20
ATOM     20  C   UNL     1      -1.403  -0.513  -2.396  0.00  0.00    +0.339 C 
ATOM     21  O   UNL     1      -1.080  -1.446  -3.106  0.00  0.00    -0.245 OA
BRANCH  20  22
ATOM     22  O   UNL     1      -1.149   0.753  -2.788  0.00  0.00    -0.465 OA
ATOM     23  C   UNL     1      -0.498   0.924  -4.049  0.00  0.00    +0.280 C 
ENDBRANCH  20  22
ENDBRANCH   2  20
TORSDOF 4
