REMARK  Name = ZINC38507143
REMARK  12 active torsions:
REMARK  status: ('A' for Active; 'I' for Inactive)
REMARK    1  A    between atoms: C_1  and  C_2
REMARK    2  A    between atoms: C_2  and  O_3
REMARK    3  A    between atoms: O_3  and  C_4
REMARK    4  A    between atoms: C_4  and  C_6
REMARK    5  A    between atoms: C_10  and  N_11
REMARK    6  A    between atoms: C_12  and  C_14
REMARK    7  A    between atoms: C_15  and  C_20
REMARK    8  A    between atoms: N_18  and  C_19
REMARK    9  A    between atoms: C_21  and  C_27
REMARK   10  A    between atoms: C_21  and  C_28
REMARK   11  A    between atoms: C_23  and  C_25
REMARK   12  A    between atoms: C_23  and  C_26
REMARK                            x       y       z     vdW  Elec       q    Type
REMARK                         _______ _______ _______ _____ _____    ______ ____
ROOT
ATOM      1  C   UNL     1       1.448  -2.343  -2.515  0.00  0.00    +0.091 A 
ATOM      2  C   UNL     1       2.868  -2.616  -2.530  0.00  0.00    -0.024 A 
ATOM      3  C   UNL     1       3.333  -3.115  -3.699  0.00  0.00    -0.016 A 
ATOM      4  S   UNL     1       1.903  -3.220  -4.733  0.00  0.00    -0.079 S 
ATOM      5  C   UNL     1       0.741  -2.622  -3.679  0.00  0.00    +0.087 A 
ATOM      6  C   UNL     1       4.749  -3.472  -4.009  0.00  0.00    -0.041 C 
ATOM      7  N   UNL     1       5.609  -3.395  -2.829  0.00  0.00    +0.389 N 
ATOM      8  C   UNL     1       4.948  -3.466  -1.534  0.00  0.00    -0.069 C 
ATOM      9  C   UNL     1       3.850  -2.406  -1.388  0.00  0.00    +0.024 C 
ATOM     10  C   UNL     1       4.353  -4.854  -1.291  0.00  0.00    -0.010 C 
ATOM     11  C   UNL     1       6.001  -3.206  -0.439  0.00  0.00    -0.010 C 
ATOM     12  C   UNL     1       4.800  -4.881  -4.614  0.00  0.00    -0.005 C 
ATOM     13  C   UNL     1       5.275  -2.484  -5.068  0.00  0.00    -0.005 C 
ATOM     14  H   UNL     1       6.303  -4.143  -2.883  0.00  0.00    -0.084 HD
ATOM     15  H   UNL     1       6.142  -2.523  -2.874  0.00  0.00    -0.084 HD
ENDROOT
BRANCH   5  16
ATOM     16  N   UNL     1      -0.612  -2.446  -3.914  0.00  0.00    -0.274 N 
ATOM     17  C   UNL     1      -1.136  -2.772  -5.112  0.00  0.00    +0.267 C 
ATOM     18  O   UNL     1      -0.408  -3.133  -6.016  0.00  0.00    -0.268 OA
ATOM     19  H   UNL     1      -1.183  -2.087  -3.216  0.00  0.00    +0.156 HD
BRANCH  17  20
ATOM     20  C   UNL     1      -2.590  -2.691  -5.325  0.00  0.00    +0.126 A 
ATOM     21  C   UNL     1      -3.281  -1.673  -5.959  0.00  0.00    -0.001 A 
ATOM     22  C   UNL     1      -4.624  -2.051  -5.910  0.00  0.00    +0.138 A 
ATOM     23  N   UNL     1      -4.694  -3.203  -5.293  0.00  0.00    -0.179 NA
ATOM     24  N   UNL     1      -3.527  -3.608  -4.943  0.00  0.00    -0.262 N 
ATOM     25  C   UNL     1      -3.244  -4.861  -4.239  0.00  0.00    +0.173 C 
ATOM     26  C   UNL     1      -2.706  -0.421  -6.571  0.00  0.00    +0.048 C 
ENDBRANCH  17  20
ENDBRANCH   5  16
BRANCH   1  27
ATOM     27  C   UNL     1       0.775  -1.795  -1.335  0.00  0.00    +0.342 C 
ATOM     28  O   UNL     1       0.309  -2.545  -0.498  0.00  0.00    -0.245 OA
BRANCH  27  29
ATOM     29  O   UNL     1       0.672  -0.460  -1.177  0.00  0.00    -0.461 OA
BRANCH  29  31
ATOM     30  C   UNL     1      -0.015   1.534   0.003  0.00  0.00    +0.048 C 
ATOM     31  C   UNL     1       0.004   0.005  -0.002  0.00  0.00    +0.229 C 
ENDBRANCH  29  31
ENDBRANCH  27  29
ENDBRANCH   1  27
TORSDOF 5
