REMARK  Name = ZINC08590241
REMARK  11 active torsions:
REMARK  status: ('A' for Active; 'I' for Inactive)
REMARK    1  A    between atoms: C_1  and  C_2
REMARK    2  A    between atoms: C_2  and  N_3
REMARK    3  A    between atoms: C_9  and  N_29
REMARK    4  A    between atoms: C_10  and  C_11
REMARK    5  A    between atoms: C_11  and  C_13
REMARK    6  A    between atoms: C_11  and  N_14
REMARK    7  A    between atoms: N_17  and  C_18
REMARK    8  A    between atoms: C_21  and  O_26
REMARK    9  A    between atoms: C_23  and  O_24
REMARK   10  A    between atoms: O_24  and  C_25
REMARK   11  A    between atoms: O_26  and  C_27
REMARK                            x       y       z     vdW  Elec       q    Type
REMARK                         _______ _______ _______ _____ _____    ______ ____
ROOT
ATOM      1  C   UNL     1       3.429  -3.488  -4.332  0.00  0.00    +0.104 C 
ATOM      2  C   UNL     1       3.476  -4.763  -3.488  0.00  0.00    +0.033 C 
ENDROOT
BRANCH   1  10
ATOM      3  N   UNL     1       0.797  -0.582  -0.963  0.00  0.00    +0.383 N 
ATOM      4  C   UNL     1       0.785  -2.048  -1.039  0.00  0.00    -0.074 C 
ATOM      5  C   UNL     1       1.367  -2.516  -2.376  0.00  0.00    +0.018 C 
ATOM      6  C   UNL     1       2.732  -1.856  -2.553  0.00  0.00    -0.034 A 
ATOM      7  C   UNL     1       3.048  -0.769  -1.794  0.00  0.00    -0.021 A 
ATOM      8  S   UNL     1       4.686  -0.349  -2.318  0.00  0.00    -0.077 S 
ATOM      9  C   UNL     1       4.889  -1.640  -3.537  0.00  0.00    +0.090 A 
ATOM     10  C   UNL     1       3.699  -2.294  -3.453  0.00  0.00    +0.007 A 
ATOM     11  C   UNL     1       2.182  -0.112  -0.771  0.00  0.00    -0.035 C 
ATOM     12  H   UNL     1       0.427  -0.197  -1.820  0.00  0.00    -0.081 HD
BRANCH   9  13
ATOM     13  N   UNL     1       5.987  -1.909  -4.362  0.00  0.00    -0.317 N 
ATOM     14  C   UNL     1       6.691  -0.983  -5.077  0.00  0.00    +0.092 A 
ATOM     15  C   UNL     1       7.671  -1.624  -5.746  0.00  0.00    +0.019 A 
ATOM     16  C   UNL     1       7.571  -2.994  -5.434  0.00  0.00    +0.019 A 
ATOM     17  C   UNL     1       6.536  -3.140  -4.581  0.00  0.00    +0.092 A 
ENDBRANCH   9  13
BRANCH   3  19
ATOM     18  C   UNL     1      -0.119   1.385   0.174  0.00  0.00    -0.017 C 
ATOM     19  C   UNL     1      -0.031  -0.143   0.168  0.00  0.00    -0.082 C 
ENDBRANCH   3  19
ENDBRANCH   1  10
BRANCH   1  20
ATOM     20  N   UNL     1       2.104  -3.355  -4.943  0.00  0.00    -0.292 N 
ATOM     21  C   UNL     1       1.785  -4.092  -6.025  0.00  0.00    +0.304 C 
ATOM     22  O   UNL     1       2.596  -4.866  -6.495  0.00  0.00    -0.252 OA
ATOM     23  N   UNL     1       0.566  -3.970  -6.587  0.00  0.00    -0.266 N 
ATOM     24  H   UNL     1       1.457  -2.737  -4.568  0.00  0.00    +0.151 HD
ATOM     25  H   UNL     1      -0.103  -3.400  -6.176  0.00  0.00    +0.156 HD
BRANCH  23  26
ATOM     26  C   UNL     1       0.264  -4.667  -7.768  0.00  0.00    +0.078 A 
ATOM     27  C   UNL     1       0.852  -5.898  -8.016  0.00  0.00    +0.050 A 
ATOM     28  C   UNL     1       0.555  -6.584  -9.180  0.00  0.00    +0.084 A 
ATOM     29  C   UNL     1      -0.331  -6.042 -10.100  0.00  0.00    +0.142 A 
ATOM     30  C   UNL     1      -0.920  -4.811  -9.855  0.00  0.00    +0.094 A 
ATOM     31  C   UNL     1      -0.629  -4.125  -8.688  0.00  0.00    +0.145 A 
ATOM     32 CL   UNL     1       1.292  -8.125  -9.489  0.00  0.00    -0.080 Cl
BRANCH  31  33
ATOM     33  O   UNL     1      -1.212  -2.920  -8.444  0.00  0.00    -0.493 OA
ATOM     34  C   UNL     1      -2.118  -2.425  -9.431  0.00  0.00    +0.277 C 
ENDBRANCH  31  33
BRANCH  29  35
ATOM     35  O   UNL     1      -0.620  -6.718 -11.244  0.00  0.00    -0.494 OA
ATOM     36  C   UNL     1      -1.540  -6.102 -12.147  0.00  0.00    +0.277 C 
ENDBRANCH  29  35
ENDBRANCH  23  26
ENDBRANCH   1  20
TORSDOF 7
