REMARK  Name = ZINC26439174
REMARK  1 active torsions:
REMARK  status: ('A' for Active; 'I' for Inactive)
REMARK    1  A    between atoms: CA_6  and  C_11
REMARK                            x       y       z     vdW  Elec       q    Type
REMARK                         _______ _______ _______ _____ _____    ______ ____
ROOT
ATOM      1  C   UNL     1       1.298   2.080   0.001  0.00  0.00    +0.010 A 
ATOM      2  C   UNL     1      -0.022   1.783   0.012  0.00  0.00    +0.045 A 
ATOM      3  S   UNL     1       0.002  -0.004   0.002  0.00  0.00    -0.101 S 
ATOM      4  C   UNL     1       1.759  -0.217  -0.017  0.00  0.00    -0.010 A 
ATOM      5  C   UNL     1       2.243   1.057  -0.013  0.00  0.00    -0.041 A 
ATOM      6  CA  UNL     1       3.751   1.290  -0.023  0.00  0.00    +0.075 C 
ATOM      7  N   UNL     1       4.419   0.055   0.406  0.00  0.00    +0.391 N 
ATOM      8  C   UNL     1       4.010  -1.103  -0.401  0.00  0.00    -0.076 C 
ATOM      9  C   UNL     1       2.563  -1.476  -0.034  0.00  0.00    +0.023 C 
ATOM     10  H1  UNL     1       5.508   0.174   0.306  0.00  0.00    -0.084 HD
ATOM     11  H2  UNL     1       4.168  -0.152   1.456  0.00  0.00    -0.084 HD
ENDROOT
BRANCH   6  12
ATOM     12  C   UNL     1       4.096   2.408   0.927  0.00  0.00    +0.347 C 
ATOM     13  O   UNL     1       4.520   2.155   2.029  0.00  0.00    -0.248 OA
ATOM     14  OXT UNL     1       3.931   3.685   0.548  0.00  0.00    -0.248 OA
ENDBRANCH   6  12
TORSDOF 1
