REMARK  Name = ZINC39966983
REMARK  10 active torsions:
REMARK  status: ('A' for Active; 'I' for Inactive)
REMARK    1  A    between atoms: C_1  and  C_2
REMARK    2  A    between atoms: C_3  and  C_36
REMARK    3  A    between atoms: C_5  and  N_9
REMARK    4  A    between atoms: C_6  and  C_7
REMARK    5  A    between atoms: C_10  and  C_12
REMARK    6  A    between atoms: C_12  and  S_13
REMARK    7  A    between atoms: S_13  and  C_14
REMARK    8  A    between atoms: C_17  and  C_26
REMARK    9  A    between atoms: N_18  and  C_19
REMARK   10  A    between atoms: C_19  and  C_20
REMARK                            x       y       z     vdW  Elec       q    Type
REMARK                         _______ _______ _______ _____ _____    ______ ____
ROOT
ATOM      1  C   UNL     1       0.323  -8.325   3.430  0.00  0.00    +0.192 A 
ATOM      2  N   UNL     1       0.266  -7.839   4.648  0.00  0.00    -0.122 NA
ATOM      3  N   UNL     1       0.050  -8.784   5.491  0.00  0.00    -0.128 NA
ATOM      4  C   UNL     1      -0.044  -9.933   4.863  0.00  0.00    +0.166 A 
ATOM      5  N   UNL     1       0.122  -9.674   3.523  0.00  0.00    -0.300 N 
ENDROOT
BRANCH   4   6
ATOM      6  C   UNL     1      -0.288 -11.254   5.479  0.00  0.00    +0.030 A 
ATOM      7  C   UNL     1      -1.243 -12.084   4.968  0.00  0.00    +0.057 A 
ATOM      8  S   UNL     1      -1.121 -13.496   6.053  0.00  0.00    -0.101 S 
ATOM      9  C   UNL     1       0.182 -12.893   7.095  0.00  0.00    -0.006 A 
ATOM     10  C   UNL     1       0.468 -11.666   6.595  0.00  0.00    -0.026 A 
ATOM     11  C   UNL     1       1.536 -10.768   7.215  0.00  0.00    +0.036 C 
ATOM     12  C   UNL     1       2.585 -11.619   7.921  0.00  0.00    +0.005 C 
ATOM     13  C   UNL     1       2.193 -11.860   9.377  0.00  0.00    +0.001 C 
ATOM     14  C   UNL     1       0.886 -12.645   9.446  0.00  0.00    +0.005 C 
ATOM     15  C   UNL     1       0.824 -13.593   8.249  0.00  0.00    +0.043 C 
ENDBRANCH   4   6
BRANCH   1  16
ATOM     16  S   UNL     1       0.600  -7.408   1.951  0.00  0.00    -0.077 S 
BRANCH  16  17
ATOM     17  C   UNL     1       0.786  -5.697   2.524  0.00  0.00    +0.173 C 
BRANCH  17  19
ATOM     18  N   UNL     1       1.201  -3.471   1.527  0.00  0.00    -0.278 N 
ATOM     19  C   UNL     1       1.032  -4.795   1.341  0.00  0.00    +0.228 C 
ATOM     20  O   UNL     1       1.076  -5.261   0.222  0.00  0.00    -0.275 OA
ATOM     21  H   UNL     1       1.165  -3.098   2.422  0.00  0.00    +0.155 HD
BRANCH  18  26
ATOM     22  C   UNL     1       2.062   0.839  -0.989  0.00  0.00    +0.046 C 
ATOM     23  C   UNL     1       1.837  -0.644  -0.846  0.00  0.00    -0.021 A 
ATOM     24  C   UNL     1       1.824  -1.471  -1.909  0.00  0.00    -0.007 A 
ATOM     25  S   UNL     1       1.526  -3.068  -1.181  0.00  0.00    -0.077 S 
ATOM     26  C   UNL     1       1.427  -2.641   0.438  0.00  0.00    +0.090 A 
ATOM     27  C   UNL     1       1.627  -1.269   0.440  0.00  0.00    +0.083 A 
ATOM     28  C   UNL     1       2.017  -1.128  -3.364  0.00  0.00    +0.052 C 
BRANCH  27  29
ATOM     29  C   UNL     1       1.621  -0.509   1.653  0.00  0.00    +0.102 C 
ATOM     30  N   UNL     1       1.616   0.094   2.616  0.00  0.00    -0.191 NA
ENDBRANCH  27  29
ENDBRANCH  18  26
ENDBRANCH  17  19
ENDBRANCH  16  17
ENDBRANCH   1  16
BRANCH   5  31
ATOM     31  C   UNL     1       0.094 -10.643   2.424  0.00  0.00    +0.157 C 
BRANCH  31  32
ATOM     32  C   UNL     1       1.522 -11.083   2.095  0.00  0.00    +0.138 C 
ATOM     33  C   UNL     1       1.512 -12.010   0.860  0.00  0.00    +0.035 C 
ATOM     34  C   UNL     1       2.578 -13.075   1.240  0.00  0.00    +0.031 C 
ATOM     35  C   UNL     1       2.368 -13.168   2.772  0.00  0.00    +0.160 C 
ATOM     36  O   UNL     1       2.066 -11.826   3.192  0.00  0.00    -0.375 OA
ENDBRANCH  31  32
ENDBRANCH   5  31
TORSDOF 8
