REMARK  Name = ZINC63301775
REMARK  7 active torsions:
REMARK  status: ('A' for Active; 'I' for Inactive)
REMARK    1  A    between atoms: C_1  and  C_2
REMARK    2  A    between atoms: C_2  and  C_3
REMARK    3  A    between atoms: C_2  and  N_9
REMARK    4  A    between atoms: C_12  and  C_15
REMARK    5  A    between atoms: N_17  and  C_18
REMARK    6  A    between atoms: C_18  and  C_19
REMARK    7  A    between atoms: C_19  and  C_20
REMARK                            x       y       z     vdW  Elec       q    Type
REMARK                         _______ _______ _______ _____ _____    ______ ____
ROOT
ATOM      1  N   UNL     1       0.816  -0.907  -0.823  0.00  0.00    +0.387 N 
ATOM      2  C   UNL     1       2.224  -0.498  -0.750  0.00  0.00    -0.077 C 
ATOM      3  C   UNL     1       3.064  -1.385  -1.671  0.00  0.00    -0.006 C 
ATOM      4  C   UNL     1       2.932  -2.844  -1.226  0.00  0.00    +0.071 C 
ATOM      5  C   UNL     1       1.452  -3.237  -1.234  0.00  0.00    -0.006 C 
ATOM      6  C   UNL     1       0.671  -2.282  -0.330  0.00  0.00    -0.077 C 
ATOM      7  H   UNL     1       0.503  -0.860  -1.781  0.00  0.00    -0.081 HD
ENDROOT
BRANCH   4   8
ATOM      8  C   UNL     1       3.694  -3.732  -2.176  0.00  0.00    +0.216 C 
ATOM      9  O   UNL     1       4.286  -3.247  -3.117  0.00  0.00    -0.276 OA
ATOM     10  N   UNL     1       3.718  -5.065  -1.980  0.00  0.00    -0.315 N 
ATOM     11  H   UNL     1       3.245  -5.453  -1.227  0.00  0.00    +0.149 HD
BRANCH  10  12
ATOM     12  C   UNL     1       4.459  -5.928  -2.903  0.00  0.00    +0.109 C 
BRANCH  12  13
ATOM     13  C   UNL     1       4.326  -7.386  -2.457  0.00  0.00    +0.061 C 
BRANCH  13  14
ATOM     14  C   UNL     1       5.088  -8.273  -3.406  0.00  0.00    -0.009 A 
ATOM     15  C   UNL     1       6.381  -8.678  -3.345  0.00  0.00    +0.011 A 
ATOM     16  C   UNL     1       6.872  -9.503  -4.339  0.00  0.00    +0.008 A 
ATOM     17  C   UNL     1       6.048  -9.883  -5.346  0.00  0.00    +0.045 A 
ATOM     18  S   UNL     1       4.521  -9.072  -4.899  0.00  0.00    -0.102 S 
ENDBRANCH  13  14
ENDBRANCH  12  13
ENDBRANCH  10  12
ENDBRANCH   4   8
BRANCH   1  20
ATOM     19  C   UNL     1       0.142   1.428  -0.519  0.00  0.00    -0.004 C 
ATOM     20  C   UNL     1       0.002  -0.004   0.002  0.00  0.00    +0.017 C 
BRANCH  20  21
ATOM     21  C   UNL     1      -1.443  -0.425  -0.068  0.00  0.00    +0.207 C 
ATOM     22  O   UNL     1      -1.864  -0.986  -1.057  0.00  0.00    -0.277 OA
ATOM     23  N   UNL     1      -2.268  -0.178   0.968  0.00  0.00    -0.242 N 
ATOM     24  C   UNL     1      -3.561  -0.554   0.906  0.00  0.00    +0.303 C 
ATOM     25  O   UNL     1      -3.982  -1.117  -0.086  0.00  0.00    -0.253 OA
ATOM     26  N   UNL     1      -4.386  -0.307   1.942  0.00  0.00    -0.313 N 
ATOM     27  H   UNL     1      -1.932   0.271   1.760  0.00  0.00    +0.159 HD
ATOM     28  H   UNL     1      -4.050   0.142   2.733  0.00  0.00    +0.146 HD
ATOM     29  H   UNL     1      -5.316  -0.578   1.897  0.00  0.00    +0.146 HD
ENDBRANCH  20  21
ENDBRANCH   1  20
TORSDOF 6
