REMARK  Name = ZINC03406109
REMARK  9 active torsions:
REMARK  status: ('A' for Active; 'I' for Inactive)
REMARK    1  A    between atoms: C_1  and  C_2
REMARK    2  A    between atoms: C_2  and  C_4
REMARK    3  A    between atoms: C_2  and  N_63
REMARK    4  A    between atoms: N_6  and  C_7
REMARK    5  A    between atoms: C_12  and  C_13
REMARK    6  A    between atoms: N_21  and  S_24
REMARK    7  A    between atoms: S_24  and  C_27
REMARK    8  A    between atoms: C_30  and  O_33
REMARK    9  A    between atoms: O_33  and  C_34
REMARK                            x       y       z     vdW  Elec       q    Type
REMARK                         _______ _______ _______ _____ _____    ______ ____
ROOT
ATOM      1  C   UNL     1       1.101  -0.621  -5.612  0.00  0.00    -0.004 C 
ATOM      2  C   UNL     1       1.178  -2.144  -5.733  0.00  0.00    +0.017 C 
ENDROOT
BRANCH   2   8
ATOM      3  C   UNL     1       2.419  -2.366  -3.666  0.00  0.00    -0.060 C 
ATOM      4  C   UNL     1       2.490  -3.149  -2.351  0.00  0.00    +0.091 C 
ATOM      5  N   UNL     1       1.236  -2.936  -1.612  0.00  0.00    -0.180 NA
ATOM      6  C   UNL     1      -0.034  -3.167  -2.316  0.00  0.00    +0.091 C 
ATOM      7  C   UNL     1      -0.006  -2.377  -3.634  0.00  0.00    -0.060 C 
ATOM      8  N   UNL     1       1.198  -2.772  -4.396  0.00  0.00    +0.389 N 
ATOM      9  H   UNL     1       1.202  -3.793  -4.507  0.00  0.00    -0.081 HD
BRANCH   5  10
ATOM     10  S   UNL     1       1.255  -2.454  -0.028  0.00  0.00    +0.061 S 
ATOM     11  O   UNL     1       2.510  -2.858   0.504  0.00  0.00    -0.153 OA
ATOM     12  O   UNL     1       0.019  -2.869   0.537  0.00  0.00    -0.153 OA
BRANCH  10  13
ATOM     13  C   UNL     1       1.247  -0.693  -0.018  0.00  0.00    +0.106 A 
ATOM     14  C   UNL     1       0.046  -0.008   0.002  0.00  0.00    +0.032 A 
ATOM     15  C   UNL     1       0.037   1.374   0.009  0.00  0.00    +0.047 A 
ATOM     16  C   UNL     1       1.235   2.074  -0.002  0.00  0.00    +0.120 A 
ATOM     17  C   UNL     1       2.439   1.385  -0.022  0.00  0.00    +0.047 A 
ATOM     18  C   UNL     1       2.442   0.003  -0.030  0.00  0.00    +0.032 A 
BRANCH  16  19
ATOM     19  O   UNL     1       1.229   3.433   0.005  0.00  0.00    -0.495 OA
ATOM     20  C   UNL     1       2.499   4.087  -0.008  0.00  0.00    +0.277 C 
ENDBRANCH  16  19
ENDBRANCH  10  13
ENDBRANCH   5  10
ENDBRANCH   2   8
BRANCH   2  21
ATOM     21  C   UNL     1      -0.024  -2.649  -6.490  0.00  0.00    +0.203 C 
ATOM     22  O   UNL     1      -0.788  -3.430  -5.963  0.00  0.00    -0.277 OA
ATOM     23  N   UNL     1      -0.249  -2.233  -7.752  0.00  0.00    -0.286 N 
ATOM     24  H   UNL     1       0.315  -1.549  -8.145  0.00  0.00    +0.155 HD
BRANCH  23  25
ATOM     25  C   UNL     1      -1.296  -2.787  -8.494  0.00  0.00    +0.041 A 
ATOM     26  C   UNL     1      -1.766  -4.057  -8.194  0.00  0.00    +0.024 A 
ATOM     27  C   UNL     1      -2.804  -4.601  -8.925  0.00  0.00    +0.002 A 
ATOM     28  C   UNL     1      -3.374  -3.888  -9.966  0.00  0.00    +0.001 A 
ATOM     29  C   UNL     1      -2.913  -2.626 -10.279  0.00  0.00    +0.010 A 
ATOM     30  C   UNL     1      -1.870  -2.065  -9.546  0.00  0.00    +0.003 A 
BRANCH  30  31
ATOM     31  C   UNL     1      -1.371  -0.708  -9.878  0.00  0.00    -0.016 A 
ATOM     32  C   UNL     1      -1.233   0.251  -8.877  0.00  0.00    +0.008 A 
ATOM     33  C   UNL     1      -0.764   1.510  -9.191  0.00  0.00    +0.001 A 
ATOM     34  C   UNL     1      -0.441   1.824 -10.499  0.00  0.00    +0.000 A 
ATOM     35  C   UNL     1      -0.581   0.878 -11.498  0.00  0.00    +0.001 A 
ATOM     36  C   UNL     1      -1.044  -0.386 -11.194  0.00  0.00    +0.008 A 
ENDBRANCH  30  31
ENDBRANCH  23  25
ENDBRANCH   2  21
TORSDOF 7
