REMARK  Name = ZINC26894901
REMARK  12 active torsions:
REMARK  status: ('A' for Active; 'I' for Inactive)
REMARK    1  A    between atoms: C_1  and  C_2
REMARK    2  A    between atoms: C_2  and  O_3
REMARK    3  A    between atoms: O_3  and  C_4
REMARK    4  A    between atoms: C_4  and  C_6
REMARK    5  A    between atoms: C_6  and  C_7
REMARK    6  A    between atoms: C_7  and  C_9
REMARK    7  A    between atoms: C_7  and  N_18
REMARK    8  A    between atoms: C_12  and  N_15
REMARK    9  A    between atoms: C_19  and  C_21
REMARK   10  A    between atoms: C_25  and  N_34
REMARK   11  A    between atoms: C_27  and  O_32
REMARK   12  A    between atoms: O_32  and  C_33
REMARK                            x       y       z     vdW  Elec       q    Type
REMARK                         _______ _______ _______ _____ _____    ______ ____
ROOT
ATOM      1  N   UNL     1      -3.313   1.732   0.952  0.00  0.00    -0.304 N 
ATOM      2  C   UNL     1      -3.314   1.423   2.264  0.00  0.00    +0.251 C 
ATOM      3  O   UNL     1      -2.572   0.556   2.684  0.00  0.00    -0.270 OA
ATOM      4  H   UNL     1      -3.924   2.570   0.584  0.00  0.00    +0.150 HD
ENDROOT
BRANCH   2   5
ATOM      5  C   UNL     1      -4.213   2.135   3.187  0.00  0.00    +0.122 A 
ATOM      6  C   UNL     1      -5.062   3.124   2.722  0.00  0.00    +0.032 A 
ATOM      7  C   UNL     1      -5.912   3.784   3.646  0.00  0.00    +0.024 A 
ATOM      8  C   UNL     1      -6.785   4.791   3.207  0.00  0.00    +0.044 A 
ATOM      9  C   UNL     1      -7.601   5.423   4.100  0.00  0.00    +0.130 A 
ATOM     10  C   UNL     1      -7.576   5.079   5.444  0.00  0.00    +0.082 A 
ATOM     11  C   UNL     1      -6.724   4.090   5.901  0.00  0.00    +0.165 A 
ATOM     12  C   UNL     1      -5.881   3.430   5.006  0.00  0.00    +0.181 A 
ATOM     13  O   UNL     1      -5.049   2.464   5.452  0.00  0.00    -0.418 OA
ATOM     14  C   UNL     1      -4.229   1.805   4.617  0.00  0.00    +0.350 A 
ATOM     15  O   UNL     1      -3.495   0.936   5.048  0.00  0.00    -0.244 OA
BRANCH   9  16
ATOM     16  N   UNL     1      -8.521   6.484   3.631  0.00  0.00    +0.057 N 
ATOM     17  O   UNL     1      -8.547   6.789   2.452  0.00  0.00    -0.126 OA
ATOM     18  O   UNL     1      -9.251   7.051   4.424  0.00  0.00    -0.126 OA
ENDBRANCH   9  16
BRANCH  11  19
ATOM     19  O   UNL     1      -6.708   3.761   7.220  0.00  0.00    -0.491 OA
ATOM     20  C   UNL     1      -7.599   4.477   8.079  0.00  0.00    +0.277 C 
ENDBRANCH  11  19
ENDBRANCH   2   5
BRANCH   1  21
ATOM     21  C   UNL     1      -2.500   0.952   0.016  0.00  0.00    +0.114 C 
BRANCH  21  22
ATOM     22  C   UNL     1      -1.119   1.550  -0.069  0.00  0.00    -0.027 A 
ATOM     23  C   UNL     1      -0.012   0.726  -0.133  0.00  0.00    +0.008 A 
ATOM     24  C   UNL     1       1.254   1.274  -0.216  0.00  0.00    +0.033 A 
ATOM     25  C   UNL     1       1.413   2.647  -0.231  0.00  0.00    +0.126 A 
ATOM     26  C   UNL     1       0.306   3.472  -0.161  0.00  0.00    +0.033 A 
ATOM     27  C   UNL     1      -0.960   2.923  -0.077  0.00  0.00    +0.008 A 
BRANCH  25  28
ATOM     28  N   UNL     1       2.769   3.235  -0.321  0.00  0.00    +0.056 N 
ATOM     29  O   UNL     1       3.745   2.508  -0.382  0.00  0.00    -0.126 OA
ATOM     30  O   UNL     1       2.909   4.444  -0.333  0.00  0.00    -0.126 OA
ENDBRANCH  25  28
ENDBRANCH  21  22
BRANCH  21  31
ATOM     31  C   UNL     1      -3.152   0.975  -1.368  0.00  0.00    +0.147 C 
BRANCH  31  32
ATOM     32  C   UNL     1      -4.473   0.254  -1.313  0.00  0.00    +0.309 C 
ATOM     33  O   UNL     1      -4.809  -0.315  -0.302  0.00  0.00    -0.251 OA
BRANCH  32  34
ATOM     34  O   UNL     1      -5.278   0.243  -2.388  0.00  0.00    -0.465 OA
BRANCH  34  36
ATOM     35  C   UNL     1      -7.311  -0.373  -3.579  0.00  0.00    +0.048 C 
ATOM     36  C   UNL     1      -6.535  -0.471  -2.263  0.00  0.00    +0.229 C 
ENDBRANCH  34  36
ENDBRANCH  32  34
ENDBRANCH  31  32
ENDBRANCH  21  31
ENDBRANCH   1  21
TORSDOF 10
