REMARK  Name = ZINC12706135
REMARK  12 active torsions:
REMARK  status: ('A' for Active; 'I' for Inactive)
REMARK    1  A    between atoms: C_1  and  C_2
REMARK    2  A    between atoms: C_5  and  C_8
REMARK    3  A    between atoms: N_11  and  C_13
REMARK    4  A    between atoms: C_13  and  C_14
REMARK    5  A    between atoms: N_16  and  C_17
REMARK    6  A    between atoms: N_16  and  C_24
REMARK    7  A    between atoms: C_17  and  C_18
REMARK    8  A    between atoms: C_24  and  C_26
REMARK    9  A    between atoms: C_24  and  C_33
REMARK   10  A    between atoms: C_29  and  C_32
REMARK   11  A    between atoms: N_35  and  C_36
REMARK   12  A    between atoms: C_36  and  C_37
REMARK                            x       y       z     vdW  Elec       q    Type
REMARK                         _______ _______ _______ _____ _____    ______ ____
ROOT
ATOM      1  C   UNL     1      -1.927   3.176  -1.787  0.00  0.00    +0.240 C 
ATOM      2  O   UNL     1      -2.767   2.321  -1.972  0.00  0.00    -0.273 OA
ATOM      3  N   UNL     1      -1.226   3.195  -0.635  0.00  0.00    -0.282 N 
ENDROOT
BRANCH   1   4
ATOM      4  C   UNL     1      -1.665   4.217  -2.845  0.00  0.00    +0.264 C 
BRANCH   4   8
ATOM      5  C   UNL     1      -3.299   3.272  -5.826  0.00  0.00    +0.205 A 
ATOM      6  N   UNL     1      -4.215   4.070  -5.258  0.00  0.00    -0.108 NA
ATOM      7  N   UNL     1      -3.723   4.484  -4.141  0.00  0.00    -0.045 NA
ATOM      8  N   UNL     1      -2.547   3.981  -3.990  0.00  0.00    -0.154 N 
ATOM      9  N   UNL     1      -2.266   3.243  -5.008  0.00  0.00    -0.130 NA
BRANCH   5  14
ATOM     10  C   UNL     1      -3.778   0.525 -10.866  0.00  0.00    +0.044 C 
ATOM     11  C   UNL     1      -3.653   1.244  -9.547  0.00  0.00    -0.050 A 
ATOM     12  C   UNL     1      -4.691   2.037  -9.093  0.00  0.00    +0.004 A 
ATOM     13  C   UNL     1      -4.582   2.697  -7.886  0.00  0.00    +0.012 A 
ATOM     14  C   UNL     1      -3.423   2.564  -7.125  0.00  0.00    +0.023 A 
ATOM     15  C   UNL     1      -2.377   1.770  -7.590  0.00  0.00    +0.012 A 
ATOM     16  C   UNL     1      -2.500   1.109  -8.796  0.00  0.00    +0.004 A 
ENDBRANCH   5  14
ENDBRANCH   4   8
ENDBRANCH   1   4
BRANCH   3  17
ATOM     17  C   UNL     1      -0.211   4.227  -0.412  0.00  0.00    +0.140 C 
BRANCH  17  18
ATOM     18  C   UNL     1       1.089   3.822  -1.109  0.00  0.00    +0.136 C 
ATOM     19  C   UNL     1       2.228   4.769  -0.684  0.00  0.00    +0.035 C 
ATOM     20  C   UNL     1       3.289   3.831  -0.059  0.00  0.00    +0.031 C 
ATOM     21  C   UNL     1       2.909   2.459  -0.671  0.00  0.00    +0.160 C 
ATOM     22  O   UNL     1       1.466   2.494  -0.708  0.00  0.00    -0.375 OA
ENDBRANCH  17  18
ENDBRANCH   3  17
BRANCH   3  23
ATOM     23  C   UNL     1      -1.481   2.183   0.393  0.00  0.00    +0.192 C 
BRANCH  23  24
ATOM     24  C   UNL     1      -1.663   0.837  -0.261  0.00  0.00    -0.018 A 
ATOM     25  C   UNL     1      -1.084   0.581  -1.489  0.00  0.00    +0.006 A 
ATOM     26  C   UNL     1      -1.256  -0.651  -2.092  0.00  0.00    +0.004 A 
ATOM     27  C   UNL     1      -2.008  -1.627  -1.465  0.00  0.00    -0.050 A 
ATOM     28  C   UNL     1      -2.588  -1.371  -0.236  0.00  0.00    +0.004 A 
ATOM     29  C   UNL     1      -2.415  -0.139   0.366  0.00  0.00    +0.006 A 
ATOM     30  C   UNL     1      -2.196  -2.971  -2.121  0.00  0.00    +0.044 C 
ENDBRANCH  23  24
BRANCH  23  31
ATOM     31  C   UNL     1      -0.311   2.126   1.342  0.00  0.00    +0.238 C 
ATOM     32  O   UNL     1       0.632   2.873   1.188  0.00  0.00    -0.273 OA
ATOM     33  N   UNL     1      -0.313   1.244   2.362  0.00  0.00    -0.311 N 
ATOM     34  H   UNL     1      -1.067   0.647   2.485  0.00  0.00    +0.149 HD
BRANCH  33  35
ATOM     35  C   UNL     1       0.824   1.189   3.284  0.00  0.00    +0.135 C 
BRANCH  35  36
ATOM     36  C   UNL     1       0.571   0.112   4.341  0.00  0.00    +0.135 C 
ATOM     37  C   UNL     1       1.718   0.095   5.376  0.00  0.00    +0.035 C 
ATOM     38  C   UNL     1       1.905  -1.404   5.703  0.00  0.00    +0.031 C 
ATOM     39  C   UNL     1       0.849  -2.114   4.828  0.00  0.00    +0.160 C 
ATOM     40  O   UNL     1       0.595  -1.200   3.738  0.00  0.00    -0.375 OA
ENDBRANCH  35  36
ENDBRANCH  33  35
ENDBRANCH  23  31
ENDBRANCH   3  23
TORSDOF 10
