REMARK  Name = ZINC12205177
REMARK  11 active torsions:
REMARK  status: ('A' for Active; 'I' for Inactive)
REMARK    1  A    between atoms: C_1  and  N_57
REMARK    2  A    between atoms: C_2  and  C_3
REMARK    3  A    between atoms: C_2  and  N_57
REMARK    4  A    between atoms: C_8  and  O_9
REMARK    5  A    between atoms: C_10  and  C_11
REMARK    6  A    between atoms: C_10  and  N_57
REMARK    7  A    between atoms: C_14  and  S_23
REMARK    8  A    between atoms: N_15  and  C_16
REMARK    9  A    between atoms: C_16  and  C_17
REMARK   10  A    between atoms: S_23  and  C_24
REMARK   11  A    between atoms: C_24  and  C_25
REMARK                            x       y       z     vdW  Elec       q    Type
REMARK                         _______ _______ _______ _____ _____    ______ ____
ROOT
ATOM      1  C   UNL     1      -0.718   1.572   1.248  0.00  0.00    +0.117 A 
ATOM      2  N   UNL     1      -0.481   2.683   1.885  0.00  0.00    -0.135 NA
ATOM      3  N   UNL     1      -1.266   2.787   2.898  0.00  0.00    -0.123 NA
ATOM      4  C   UNL     1      -2.047   1.734   2.967  0.00  0.00    +0.192 A 
ATOM      5  N   UNL     1      -1.721   0.925   1.916  0.00  0.00    -0.305 N 
ENDROOT
BRANCH   1   6
ATOM      6  C   UNL     1      -0.013   1.086   0.008  0.00  0.00    -0.001 C 
BRANCH   6   8
ATOM      7  C   UNL     1      -2.059   0.969  -1.281  0.00  0.00    -0.095 C 
ATOM      8  N   UNL     1      -0.727   1.601  -1.179  0.00  0.00    +0.385 N 
ATOM      9  H   UNL     1      -0.845   2.616  -1.083  0.00  0.00    -0.081 HD
BRANCH   8  10
ATOM     10  C   UNL     1       0.059   1.323  -2.401  0.00  0.00    -0.039 C 
BRANCH  10  11
ATOM     11  C   UNL     1      -0.576   2.045  -3.561  0.00  0.00    -0.022 A 
ATOM     12  C   UNL     1      -1.374   1.355  -4.452  0.00  0.00    +0.005 A 
ATOM     13  C   UNL     1      -1.960   2.018  -5.514  0.00  0.00    +0.000 A 
ATOM     14  C   UNL     1      -1.741   3.371  -5.694  0.00  0.00    +0.004 A 
ATOM     15  C   UNL     1      -0.939   4.065  -4.808  0.00  0.00    +0.045 A 
ATOM     16  C   UNL     1      -0.354   3.403  -3.739  0.00  0.00    +0.118 A 
BRANCH  16  17
ATOM     17  O   UNL     1       0.435   4.083  -2.867  0.00  0.00    -0.507 OA
ATOM     18  H   UNL     1       1.370   4.100  -3.113  0.00  0.00    +0.292 HD
ENDBRANCH  16  17
ENDBRANCH  10  11
ENDBRANCH   8  10
ENDBRANCH   6   8
ENDBRANCH   1   6
BRANCH   5  19
ATOM     19  C   UNL     1      -2.321  -0.367   1.575  0.00  0.00    +0.157 C 
BRANCH  19  20
ATOM     20  C   UNL     1      -1.551  -1.488   2.276  0.00  0.00    +0.138 C 
ATOM     21  C   UNL     1      -2.100  -2.860   1.828  0.00  0.00    +0.035 C 
ATOM     22  C   UNL     1      -2.068  -3.674   3.152  0.00  0.00    +0.031 C 
ATOM     23  C   UNL     1      -2.390  -2.567   4.187  0.00  0.00    +0.160 C 
ATOM     24  O   UNL     1      -1.733  -1.389   3.694  0.00  0.00    -0.375 OA
ENDBRANCH  19  20
ENDBRANCH   5  19
BRANCH   4  25
ATOM     25  S   UNL     1      -3.281   1.422   4.185  0.00  0.00    -0.080 S 
BRANCH  25  26
ATOM     26  C   UNL     1      -3.107   2.913   5.197  0.00  0.00    +0.132 C 
BRANCH  26  27
ATOM     27  C   UNL     1      -4.093   2.865   6.335  0.00  0.00    +0.051 A 
ATOM     28  C   UNL     1      -3.725   2.284   7.535  0.00  0.00    +0.024 A 
ATOM     29  C   UNL     1      -4.640   2.246   8.575  0.00  0.00    +0.003 A 
ATOM     30  C   UNL     1      -5.896   2.796   8.370  0.00  0.00    +0.020 A 
ATOM     31  C   UNL     1      -6.193   3.359   7.144  0.00  0.00    +0.111 A 
ATOM     32  N   UNL     1      -5.296   3.382   6.178  0.00  0.00    -0.259 NA
ENDBRANCH  26  27
ENDBRANCH  25  26
ENDBRANCH   4  25
TORSDOF 10
