REMARK  Name = ZINC33262956
REMARK  11 active torsions:
REMARK  status: ('A' for Active; 'I' for Inactive)
REMARK    1  A    between atoms: C_1  and  C_2
REMARK    2  A    between atoms: C_2  and  C_3
REMARK    3  A    between atoms: C_2  and  N_4
REMARK    4  A    between atoms: C_8  and  S_13
REMARK    5  A    between atoms: S_13  and  N_16
REMARK    6  A    between atoms: C_20  and  C_22
REMARK    7  A    between atoms: N_24  and  C_25
REMARK    8  A    between atoms: C_25  and  C_26
REMARK    9  A    between atoms: C_26  and  N_27
REMARK   10  A    between atoms: N_27  and  C_28
REMARK   11  A    between atoms: N_27  and  C_29
REMARK                            x       y       z     vdW  Elec       q    Type
REMARK                         _______ _______ _______ _____ _____    ______ ____
ROOT
ATOM      1  N   UNL     1       2.115   0.844   0.844  0.00  0.00    -0.165 NA
ATOM      2  C   UNL     1       1.494   1.879  -0.002  0.00  0.00    +0.110 C 
ATOM      3  C   UNL     1      -0.019   1.547   0.011  0.00  0.00    +0.019 C 
ATOM      4  C   UNL     1       0.002  -0.004   0.002  0.00  0.00    +0.031 C 
ATOM      5  C   UNL     1       1.239  -0.338   0.862  0.00  0.00    +0.165 C 
ENDROOT
BRANCH   5   6
ATOM      6  C   UNL     1       0.815  -0.640   2.276  0.00  0.00    +0.232 C 
ATOM      7  O   UNL     1       1.212   0.052   3.189  0.00  0.00    -0.274 OA
ATOM      8  N   UNL     1      -0.007  -1.679   2.525  0.00  0.00    -0.316 N 
ATOM      9  H   UNL     1      -0.368  -2.306   1.697  0.00  0.00    +0.149 HD
BRANCH   8  10
ATOM     10  C   UNL     1      -0.420  -1.972   3.900  0.00  0.00    +0.086 C 
BRANCH  10  11
ATOM     11  C   UNL     1      -1.345  -3.191   3.905  0.00  0.00    -0.060 C 
BRANCH  11  12
ATOM     12  N   UNL     1      -1.759  -3.486   5.284  0.00  0.00    +0.381 N 
ATOM     13  C   UNL     1      -0.613  -3.912   6.098  0.00  0.00    -0.096 C 
ATOM     14  H   UNL     1      -2.159  -2.559   5.722  0.00  0.00    -0.082 HD
BRANCH  12  15
ATOM     15  C   UNL     1      -2.827  -4.494   5.308  0.00  0.00    -0.069 C 
ATOM     16  C   UNL     1      -4.039  -3.972   4.533  0.00  0.00    -0.015 C 
ATOM     17  C   UNL     1      -5.151  -5.022   4.559  0.00  0.00    -0.002 C 
ATOM     18  C   UNL     1      -5.555  -5.302   6.008  0.00  0.00    -0.000 C 
ATOM     19  C   UNL     1      -4.343  -5.824   6.783  0.00  0.00    -0.002 C 
ATOM     20  C   UNL     1      -3.231  -4.773   6.757  0.00  0.00    -0.015 C 
ENDBRANCH  12  15
ENDBRANCH  11  12
ENDBRANCH  10  11
ENDBRANCH   8  10
ENDBRANCH   5   6
BRANCH   1  21
ATOM     21  S   UNL     1       3.558   0.988   1.644  0.00  0.00    +0.062 S 
ATOM     22  O   UNL     1       3.782   2.378   1.830  0.00  0.00    -0.153 OA
ATOM     23  O   UNL     1       3.514   0.071   2.729  0.00  0.00    -0.153 OA
BRANCH  21  28
ATOM     24  N   UNL     1       7.780  -0.656  -2.090  0.00  0.00    -0.241 N 
ATOM     25  C   UNL     1       6.790  -0.513  -1.147  0.00  0.00    +0.089 A 
ATOM     26  C   UNL     1       6.154  -1.389  -0.274  0.00  0.00    +0.031 A 
ATOM     27  C   UNL     1       5.182  -0.924   0.567  0.00  0.00    +0.031 A 
ATOM     28  C   UNL     1       4.817   0.416   0.552  0.00  0.00    +0.108 A 
ATOM     29  C   UNL     1       5.427   1.296  -0.293  0.00  0.00    +0.060 A 
ATOM     30  C   UNL     1       6.429   0.845  -1.163  0.00  0.00    +0.115 A 
ATOM     31  N   UNL     1       7.192   1.460  -2.088  0.00  0.00    -0.129 NA
ATOM     32  N   UNL     1       7.987   0.616  -2.645  0.00  0.00    -0.064 NA
BRANCH  24  34
ATOM     33  C   UNL     1       8.254  -2.201  -3.925  0.00  0.00    +0.032 C 
ATOM     34  C   UNL     1       8.482  -1.892  -2.444  0.00  0.00    +0.103 C 
ATOM     35  C   UNL     1       9.980  -1.720  -2.184  0.00  0.00    +0.032 C 
ENDBRANCH  24  34
ENDBRANCH  21  28
ENDBRANCH   1  21
TORSDOF 8
