REMARK  Name = ZINC39711538
REMARK  14 active torsions:
REMARK  status: ('A' for Active; 'I' for Inactive)
REMARK    1  A    between atoms: C_1  and  C_2
REMARK    2  A    between atoms: C_2  and  O_3
REMARK    3  A    between atoms: O_3  and  C_4
REMARK    4  A    between atoms: C_11  and  C_16
REMARK    5  A    between atoms: C_16  and  C_18
REMARK    6  A    between atoms: C_16  and  N_27
REMARK    7  A    between atoms: N_22  and  C_23
REMARK    8  A    between atoms: C_23  and  C_24
REMARK    9  A    between atoms: C_24  and  O_25
REMARK   10  A    between atoms: O_25  and  C_26
REMARK   11  A    between atoms: N_27  and  C_28
REMARK   12  A    between atoms: N_27  and  C_35
REMARK   13  A    between atoms: C_28  and  C_29
REMARK   14  A    between atoms: C_35  and  C_36
REMARK                            x       y       z     vdW  Elec       q    Type
REMARK                         _______ _______ _______ _____ _____    ______ ____
ROOT
ATOM      1  C   UNL     1       3.753  -5.453  -3.892  0.00  0.00    +0.019 C 
ENDROOT
BRANCH   1   9
ATOM      2  C   UNL     1       1.512  -0.068  -4.143  0.00  0.00    +0.121 A 
ATOM      3  C   UNL     1       0.628  -0.337  -3.091  0.00  0.00    +0.047 A 
ATOM      4  C   UNL     1       0.406  -1.593  -2.625  0.00  0.00    +0.027 A 
ATOM      5  C   UNL     1       1.071  -2.696  -3.193  0.00  0.00    +0.041 A 
ATOM      6  N   UNL     1       0.844  -3.923  -2.726  0.00  0.00    -0.285 N 
ATOM      7  C   UNL     1       1.433  -5.002  -3.212  0.00  0.00    +0.223 C 
ATOM      8  O   UNL     1       1.185  -6.097  -2.744  0.00  0.00    -0.275 OA
ATOM      9  C   UNL     1       2.416  -4.870  -4.354  0.00  0.00    +0.092 C 
ATOM     10  C   UNL     1       2.678  -3.476  -4.889  0.00  0.00    -0.006 C 
ATOM     11  C   UNL     1       2.008  -2.444  -4.303  0.00  0.00    -0.004 A 
ATOM     12  C   UNL     1       2.198  -1.068  -4.763  0.00  0.00    +0.055 A 
ATOM     13  H   UNL     1       0.217  -4.029  -1.993  0.00  0.00    +0.155 HD
BRANCH   2  14
ATOM     14  O   UNL     1       1.684   1.215  -4.558  0.00  0.00    -0.492 OA
BRANCH  14  16
ATOM     15  C   UNL     1       1.261   3.593  -4.474  0.00  0.00    +0.048 C 
ATOM     16  C   UNL     1       0.939   2.224  -3.872  0.00  0.00    +0.225 C 
ENDBRANCH  14  16
ENDBRANCH   2  14
ENDBRANCH   1   9
BRANCH   1  17
ATOM     17  C   UNL     1       4.804  -5.194  -4.940  0.00  0.00    +0.139 A 
ATOM     18  N   UNL     1       4.892  -5.764  -6.117  0.00  0.00    -0.115 NA
ATOM     19  N   UNL     1       5.922  -5.277  -6.719  0.00  0.00    -0.023 NA
ATOM     20  N   UNL     1       6.493  -4.411  -5.956  0.00  0.00    -0.044 NA
ATOM     21  N   UNL     1       5.830  -4.327  -4.853  0.00  0.00    -0.229 N 
BRANCH  21  22
ATOM     22  C   UNL     1       6.138  -3.455  -3.716  0.00  0.00    +0.175 C 
BRANCH  22  23
ATOM     23  C   UNL     1       7.291  -4.057  -2.910  0.00  0.00    +0.183 C 
BRANCH  23  24
ATOM     24  O   UNL     1       7.504  -3.279  -1.731  0.00  0.00    -0.381 OA
ATOM     25  C   UNL     1       8.641  -3.683  -0.965  0.00  0.00    +0.194 C 
ENDBRANCH  23  24
ENDBRANCH  22  23
ENDBRANCH  21  22
ENDBRANCH   1  17
BRANCH   1  26
ATOM     26  N   UNL     1       3.611  -6.901  -3.688  0.00  0.00    +0.394 N 
ATOM     27  H   UNL     1       2.854  -7.078  -3.046  0.00  0.00    -0.080 HD
BRANCH  26  28
ATOM     28  C   UNL     1       3.323  -7.550  -4.974  0.00  0.00    -0.041 C 
BRANCH  28  29
ATOM     29  C   UNL     1       3.043  -9.013  -4.747  0.00  0.00    -0.064 A 
ATOM     30  C   UNL     1       4.079  -9.928  -4.774  0.00  0.00    +0.002 A 
ATOM     31  C   UNL     1       3.822 -11.270  -4.566  0.00  0.00    +0.000 A 
ATOM     32  C   UNL     1       2.529 -11.697  -4.330  0.00  0.00    +0.000 A 
ATOM     33  C   UNL     1       1.493 -10.783  -4.301  0.00  0.00    +0.000 A 
ATOM     34  C   UNL     1       1.750  -9.440  -4.506  0.00  0.00    +0.002 A 
ENDBRANCH  28  29
ENDBRANCH  26  28
BRANCH  26  35
ATOM     35  C   UNL     1       4.860  -7.443  -3.135  0.00  0.00    -0.002 C 
BRANCH  35  36
ATOM     36  C   UNL     1       5.048  -6.935  -1.729  0.00  0.00    +0.089 A 
ATOM     37  C   UNL     1       4.707  -7.590  -0.604  0.00  0.00    +0.042 A 
ATOM     38  C   UNL     1       5.058  -6.753   0.480  0.00  0.00    +0.041 A 
ATOM     39  C   UNL     1       5.593  -5.637  -0.047  0.00  0.00    +0.195 A 
ATOM     40  O   UNL     1       5.589  -5.755  -1.385  0.00  0.00    -0.470 OA
ENDBRANCH  35  36
ENDBRANCH  26  35
ENDBRANCH   1  26
TORSDOF 12
