REMARK  Name = ZINC23000370
REMARK  8 active torsions:
REMARK  status: ('A' for Active; 'I' for Inactive)
REMARK    1  A    between atoms: C_1  and  C_2
REMARK    2  A    between atoms: C_5  and  N_25
REMARK    3  A    between atoms: C_7  and  S_8
REMARK    4  A    between atoms: S_8  and  N_11
REMARK    5  A    between atoms: N_11  and  C_12
REMARK    6  A    between atoms: C_12  and  C_13
REMARK    7  A    between atoms: N_16  and  C_19
REMARK    8  A    between atoms: C_19  and  C_20
REMARK                            x       y       z     vdW  Elec       q    Type
REMARK                         _______ _______ _______ _____ _____    ______ ____
ROOT
ATOM      1  N   UNL     1      -1.214   1.029  -2.895  0.00  0.00    -0.190 NA
ATOM      2  H   UNL     1      -2.068   0.748  -3.529  0.00  0.00    +0.148 HD
ENDROOT
BRANCH   1   3
ATOM      3  S   UNL     1       0.036  -0.040  -2.702  0.00  0.00    +0.059 S 
ATOM      4  O   UNL     1       1.229   0.731  -2.672  0.00  0.00    -0.153 OA
ATOM      5  O   UNL     1      -0.173  -1.084  -3.643  0.00  0.00    -0.153 OA
BRANCH   3  12
ATOM      6  C   UNL     1      -2.324  -1.728  -1.845  0.00  0.00    +0.046 C 
ATOM      7  C   UNL     1      -1.255  -1.518  -0.804  0.00  0.00    -0.024 A 
ATOM      8  C   UNL     1      -1.388  -2.088   0.448  0.00  0.00    +0.007 A 
ATOM      9  C   UNL     1      -0.407  -1.897   1.403  0.00  0.00    +0.033 A 
ATOM     10  C   UNL     1       0.707  -1.135   1.105  0.00  0.00    +0.128 A 
ATOM     11  C   UNL     1       0.841  -0.565  -0.146  0.00  0.00    +0.061 A 
ATOM     12  C   UNL     1      -0.138  -0.761  -1.103  0.00  0.00    +0.110 A 
BRANCH  10  13
ATOM     13  N   UNL     1       1.758  -0.930   2.128  0.00  0.00    +0.056 N 
ATOM     14  O   UNL     1       1.641  -1.433   3.231  0.00  0.00    -0.126 OA
ATOM     15  O   UNL     1       2.740  -0.259   1.866  0.00  0.00    -0.126 OA
ENDBRANCH  10  13
ENDBRANCH   3  12
ENDBRANCH   1   3
BRANCH   1  16
ATOM     16  C   UNL     1      -1.284   2.233  -2.064  0.00  0.00    +0.109 C 
BRANCH  16  17
ATOM     17  C   UNL     1      -2.303   3.206  -2.659  0.00  0.00    +0.001 C 
ATOM     18  C   UNL     1      -1.809   3.693  -4.024  0.00  0.00    -0.014 C 
ATOM     19  C   UNL     1      -2.803   4.712  -4.587  0.00  0.00    -0.078 C 
ATOM     20  N   UNL     1      -2.925   5.843  -3.658  0.00  0.00    +0.383 N 
ATOM     21  C   UNL     1      -3.443   5.406  -2.355  0.00  0.00    -0.078 C 
ATOM     22  C   UNL     1      -2.469   4.408  -1.726  0.00  0.00    -0.014 C 
ATOM     23  H   UNL     1      -1.918   6.255  -3.497  0.00  0.00    -0.081 HD
BRANCH  20  24
ATOM     24  C   UNL     1      -3.764   6.905  -4.230  0.00  0.00    -0.036 C 
BRANCH  24  25
ATOM     25  C   UNL     1      -3.077   7.495  -5.434  0.00  0.00    -0.027 A 
ATOM     26  C   UNL     1      -3.158   7.118  -6.733  0.00  0.00    +0.009 A 
ATOM     27  C   UNL     1      -2.432   7.817  -7.680  0.00  0.00    +0.008 A 
ATOM     28  C   UNL     1      -1.653   8.851  -7.279  0.00  0.00    +0.045 A 
ATOM     29  S   UNL     1      -1.938   8.868  -5.517  0.00  0.00    -0.103 S 
ENDBRANCH  24  25
ENDBRANCH  20  24
ENDBRANCH  16  17
ENDBRANCH   1  16
TORSDOF 7
