REMARK  Name = ZINC09135792
REMARK  9 active torsions:
REMARK  status: ('A' for Active; 'I' for Inactive)
REMARK    1  A    between atoms: C_1  and  C_2
REMARK    2  A    between atoms: C_4  and  N_32
REMARK    3  A    between atoms: C_7  and  N_8
REMARK    4  A    between atoms: C_9  and  C_11
REMARK    5  A    between atoms: N_13  and  C_14
REMARK    6  A    between atoms: C_14  and  C_15
REMARK    7  A    between atoms: C_15  and  C_17
REMARK    8  A    between atoms: C_15  and  N_65
REMARK    9  A    between atoms: N_26  and  C_27
REMARK                            x       y       z     vdW  Elec       q    Type
REMARK                         _______ _______ _______ _____ _____    ______ ____
ROOT
ATOM      1  C   UNL     1       3.380  -1.926   5.432  0.00  0.00    +0.094 C 
ENDROOT
BRANCH   1   4
ATOM      2  C   UNL     1       2.764   0.097   6.644  0.00  0.00    +0.299 C 
ATOM      3  O   UNL     1       2.391  -0.603   7.563  0.00  0.00    -0.265 OA
ATOM      4  N   UNL     1       3.275  -0.468   5.532  0.00  0.00    -0.309 N 
ATOM      5  H   UNL     1       3.573   0.090   4.797  0.00  0.00    +0.149 HD
BRANCH   2   7
ATOM      6  N   UNL     1       2.147   2.147   7.857  0.00  0.00    -0.278 N 
ATOM      7  C   UNL     1       2.657   1.583   6.745  0.00  0.00    +0.303 C 
ATOM      8  O   UNL     1       3.030   2.282   5.825  0.00  0.00    -0.265 OA
ATOM      9  H   UNL     1       1.910   1.594   8.617  0.00  0.00    +0.155 HD
BRANCH   6  16
ATOM     10  C   UNL     1       0.064   3.151   9.516  0.00  0.00    +0.046 C 
ATOM     11  C   UNL     1       0.953   4.064   8.711  0.00  0.00    -0.027 A 
ATOM     12  C   UNL     1       0.772   5.432   8.770  0.00  0.00    +0.038 A 
ATOM     13  C   UNL     1       1.583   6.270   8.027  0.00  0.00    +0.127 A 
ATOM     14  C   UNL     1       2.582   5.742   7.229  0.00  0.00    +0.034 A 
ATOM     15  C   UNL     1       2.771   4.376   7.170  0.00  0.00    +0.026 A 
ATOM     16  C   UNL     1       1.958   3.531   7.914  0.00  0.00    +0.037 A 
BRANCH  13  17
ATOM     17  N   UNL     1       1.383   7.735   8.088  0.00  0.00    +0.056 N 
ATOM     18  O   UNL     1       2.096   8.475   7.434  0.00  0.00    -0.126 OA
ATOM     19  O   UNL     1       0.504   8.201   8.791  0.00  0.00    -0.126 OA
ENDBRANCH  13  17
ENDBRANCH   6  16
ENDBRANCH   2   7
ENDBRANCH   1   4
BRANCH   1  20
ATOM     20  C   UNL     1       3.865  -2.308   4.032  0.00  0.00    -0.020 C 
BRANCH  20  21
ATOM     21  C   UNL     1       2.822  -1.920   3.016  0.00  0.00    -0.059 A 
ATOM     22  C   UNL     1       1.716  -2.726   2.815  0.00  0.00    +0.004 A 
ATOM     23  C   UNL     1       0.765  -2.370   1.884  0.00  0.00    +0.023 A 
ATOM     24  C   UNL     1       0.909  -1.198   1.139  0.00  0.00    +0.033 A 
ATOM     25  C   UNL     1       2.014  -0.393   1.347  0.00  0.00    -0.026 A 
ATOM     26  C   UNL     1       2.969  -0.759   2.284  0.00  0.00    +0.007 A 
ATOM     27  C   UNL     1       2.221   0.894   0.589  0.00  0.00    +0.038 C 
ATOM     28  C   UNL     1       1.298   0.925  -0.632  0.00  0.00    +0.024 C 
ATOM     29  C   UNL     1      -0.107   0.517  -0.172  0.00  0.00    +0.105 C 
ATOM     30  N   UNL     1      -0.084  -0.897   0.207  0.00  0.00    -0.333 N 
ATOM     31  C   UNL     1      -1.402  -1.337   0.683  0.00  0.00    +0.129 C 
ENDBRANCH  20  21
BRANCH  20  36
ATOM     32  C   UNL     1       4.565  -4.168   2.625  0.00  0.00    -0.078 C 
ATOM     33  C   UNL     1       5.234  -5.541   2.886  0.00  0.00    -0.020 C 
ATOM     34  C   UNL     1       5.911  -5.339   4.261  0.00  0.00    -0.020 C 
ATOM     35  C   UNL     1       5.154  -4.169   4.915  0.00  0.00    -0.078 C 
ATOM     36  N   UNL     1       4.107  -3.781   3.969  0.00  0.00    +0.385 N 
ATOM     37  H   UNL     1       3.236  -4.276   4.194  0.00  0.00    -0.081 HD
ENDBRANCH  20  36
ENDBRANCH   1  20
TORSDOF 7
