REMARK  Name = ZINC17160949
REMARK  11 active torsions:
REMARK  status: ('A' for Active; 'I' for Inactive)
REMARK    1  A    between atoms: C_1  and  C_2
REMARK    2  A    between atoms: C_2  and  C_3
REMARK    3  A    between atoms: C_3  and  N_4
REMARK    4  A    between atoms: C_8  and  S_30
REMARK    5  A    between atoms: C_12  and  C_13
REMARK    6  A    between atoms: C_13  and  C_14
REMARK    7  A    between atoms: C_14  and  C_15
REMARK    8  A    between atoms: N_17  and  N_18
REMARK    9  A    between atoms: C_25  and  C_29
REMARK   10  A    between atoms: C_26  and  C_28
REMARK   11  A    between atoms: S_30  and  N_33
REMARK                            x       y       z     vdW  Elec       q    Type
REMARK                         _______ _______ _______ _____ _____    ______ ____
ROOT
ATOM      1  N   UNL     1      -7.545   0.097   2.275  0.00  0.00    -0.328 N 
ATOM      2  C   UNL     1      -8.465  -0.928   2.377  0.00  0.00    +0.069 A 
ATOM      3  C   UNL     1      -9.841  -1.012   2.213  0.00  0.00    +0.030 A 
ATOM      4  C   UNL     1     -10.478  -2.220   2.399  0.00  0.00    +0.030 A 
ATOM      5  C   UNL     1      -9.754  -3.350   2.749  0.00  0.00    +0.107 A 
ATOM      6  C   UNL     1      -8.399  -3.287   2.915  0.00  0.00    +0.058 A 
ATOM      7  C   UNL     1      -7.732  -2.073   2.731  0.00  0.00    +0.091 A 
ATOM      8  N   UNL     1      -6.430  -1.697   2.820  0.00  0.00    -0.232 NA
ATOM      9  C   UNL     1      -6.321  -0.429   2.550  0.00  0.00    +0.111 A 
ENDROOT
BRANCH   5  10
ATOM     10  S   UNL     1     -10.590  -4.884   2.983  0.00  0.00    +0.056 S 
ATOM     11  O   UNL     1      -9.769  -5.668   3.838  0.00  0.00    -0.153 OA
ATOM     12  O   UNL     1     -11.938  -4.567   3.302  0.00  0.00    -0.153 OA
BRANCH  10  13
ATOM     13  N   UNL     1     -10.618  -5.654   1.517  0.00  0.00    -0.204 NA
ATOM     14  H   UNL     1     -11.134  -6.620   1.621  0.00  0.00    +0.144 HD
ATOM     15  H   UNL     1      -9.588  -5.824   1.172  0.00  0.00    +0.144 HD
ENDBRANCH  10  13
ENDBRANCH   5  10
BRANCH   1  16
ATOM     16  C   UNL     1      -7.834   1.492   1.932  0.00  0.00    +0.123 C 
BRANCH  16  18
ATOM     17  C   UNL     1      -8.053   3.127   0.055  0.00  0.00    +0.005 C 
ATOM     18  C   UNL     1      -7.752   1.670   0.414  0.00  0.00    +0.018 C 
ENDBRANCH  16  18
ENDBRANCH   1  16
BRANCH   9  19
ATOM     19  C   UNL     1      -5.029   0.345   2.548  0.00  0.00    +0.083 C 
BRANCH  19  20
ATOM     20  C   UNL     1      -4.406   0.295   1.152  0.00  0.00    +0.105 C 
BRANCH  20  21
ATOM     21  C   UNL     1      -3.113   1.069   1.150  0.00  0.00    +0.232 C 
ATOM     22  O   UNL     1      -2.728   1.609   2.166  0.00  0.00    -0.274 OA
ATOM     23  N   UNL     1      -2.385   1.163   0.019  0.00  0.00    -0.219 N 
ATOM     24  H   UNL     1      -2.734   0.673  -0.902  0.00  0.00    +0.176 HD
BRANCH  23  25
ATOM     25  N   UNL     1      -1.183   1.883   0.018  0.00  0.00    -0.212 N 
ATOM     26  C   UNL     1      -1.221   3.240   0.031  0.00  0.00    +0.223 A 
ATOM     27  N   UNL     1      -0.122   3.947   0.025  0.00  0.00    -0.228 NA
ATOM     28  C   UNL     1       1.070   3.359   0.010  0.00  0.00    +0.116 A 
ATOM     29  C   UNL     1       1.210   1.959   0.001  0.00  0.00    +0.077 A 
ATOM     30  C   UNL     1      -0.015   1.215   0.009  0.00  0.00    +0.280 A 
ATOM     31  O   UNL     1       0.002  -0.004   0.002  0.00  0.00    -0.265 OA
ATOM     32  C   UNL     1       2.579   1.479  -0.015  0.00  0.00    -0.026 A 
ATOM     33  C   UNL     1       3.585   2.369  -0.020  0.00  0.00    -0.008 A 
ATOM     34  S   UNL     1       2.746   3.942  -0.004  0.00  0.00    -0.073 S 
ATOM     35  C   UNL     1       5.068   2.101  -0.036  0.00  0.00    +0.052 C 
ATOM     36  C   UNL     1       2.869   0.001  -0.026  0.00  0.00    +0.045 C 
ENDBRANCH  23  25
ENDBRANCH  20  21
ENDBRANCH  19  20
ENDBRANCH   9  19
TORSDOF 8
