REMARK  Name = ZINC66870852
REMARK  9 active torsions:
REMARK  status: ('A' for Active; 'I' for Inactive)
REMARK    1  A    between atoms: C_1  and  C_2
REMARK    2  A    between atoms: C_2  and  O_3
REMARK    3  A    between atoms: O_3  and  C_4
REMARK    4  A    between atoms: C_4  and  C_6
REMARK    5  A    between atoms: C_6  and  N_11
REMARK    6  A    between atoms: N_11  and  S_12
REMARK    7  A    between atoms: S_12  and  N_15
REMARK    8  A    between atoms: C_17  and  C_24
REMARK    9  A    between atoms: C_20  and  C_23
REMARK                            x       y       z     vdW  Elec       q    Type
REMARK                         _______ _______ _______ _____ _____    ______ ____
ROOT
ATOM      1  N   UNL     1       3.214  -1.141  -2.475  0.00  0.00    -0.163 NA
ATOM      2  H   UNL     1       2.434  -1.716  -2.437  0.00  0.00    +0.150 HD
ENDROOT
BRANCH   1   3
ATOM      3  C   UNL     1       4.534  -1.672  -2.127  0.00  0.00    +0.137 C 
ATOM      4  C   UNL     1       5.213  -0.761  -1.084  0.00  0.00    +0.035 C 
ATOM      5  C   UNL     1       4.886  -1.428   0.275  0.00  0.00    +0.002 C 
ATOM      6  C   UNL     1       4.985  -2.938  -0.054  0.00  0.00    +0.002 C 
ATOM      7  C   UNL     1       4.389  -3.057  -1.472  0.00  0.00    +0.035 C 
BRANCH   3   8
ATOM      8  C   UNL     1       5.392  -1.773  -3.362  0.00  0.00    +0.329 C 
ATOM      9  O   UNL     1       6.237  -2.633  -3.442  0.00  0.00    -0.249 OA
BRANCH   8  10
ATOM     10  O   UNL     1       5.217  -0.907  -4.373  0.00  0.00    -0.464 OA
BRANCH  10  12
ATOM     11  C   UNL     1       5.741   0.014  -6.545  0.00  0.00    +0.048 C 
ATOM     12  C   UNL     1       5.992  -1.125  -5.554  0.00  0.00    +0.229 C 
ENDBRANCH  10  12
ENDBRANCH   8  10
ENDBRANCH   3   8
ENDBRANCH   1   3
BRANCH   1  13
ATOM     13  S   UNL     1       3.054   0.442  -2.934  0.00  0.00    +0.098 S 
ATOM     14  O   UNL     1       4.369   0.947  -3.118  0.00  0.00    -0.141 OA
ATOM     15  O   UNL     1       2.077   0.469  -3.966  0.00  0.00    -0.141 OA
BRANCH  13  16
ATOM     16  N   UNL     1       2.407   1.261  -1.649  0.00  0.00    -0.166 NA
ATOM     17  C   UNL     1       0.959   1.241  -1.400  0.00  0.00    +0.113 C 
ATOM     18  C   UNL     1       0.712   0.788   0.042  0.00  0.00    +0.002 C 
ATOM     19  C   UNL     1       1.502   1.687   0.997  0.00  0.00    +0.009 C 
ATOM     20  C   UNL     1       2.998   1.560   0.700  0.00  0.00    +0.002 C 
ATOM     21  C   UNL     1       3.271   2.017  -0.732  0.00  0.00    +0.113 C 
ATOM     22  C   UNL     1       3.788   2.433   1.677  0.00  0.00    +0.009 C 
ATOM     23  C   UNL     1       1.172  -0.662   0.207  0.00  0.00    +0.009 C 
ENDBRANCH  13  16
ENDBRANCH   1  13
TORSDOF 6
