REMARK  Name = ZINC14151893
REMARK  13 active torsions:
REMARK  status: ('A' for Active; 'I' for Inactive)
REMARK    1  A    between atoms: C_1  and  C_2
REMARK    2  A    between atoms: C_4  and  C_31
REMARK    3  A    between atoms: C_8  and  N_30
REMARK    4  A    between atoms: C_9  and  C_11
REMARK    5  A    between atoms: C_11  and  O_13
REMARK    6  A    between atoms: O_13  and  C_14
REMARK    7  A    between atoms: C_14  and  C_16
REMARK    8  A    between atoms: C_14  and  C_17
REMARK    9  A    between atoms: N_19  and  C_20
REMARK   10  A    between atoms: C_22  and  O_28
REMARK   11  A    between atoms: C_25  and  O_26
REMARK   12  A    between atoms: O_26  and  C_27
REMARK   13  A    between atoms: O_28  and  C_29
REMARK                            x       y       z     vdW  Elec       q    Type
REMARK                         _______ _______ _______ _____ _____    ______ ____
ROOT
ATOM      1  O   UNL     1      -0.367   1.086  -1.092  0.00  0.00    -0.448 OA
ENDROOT
BRANCH   1   2
ATOM      2  C   UNL     1      -0.200  -0.250  -1.178  0.00  0.00    +0.348 C 
ATOM      3  O   UNL     1       0.896  -0.711  -1.438  0.00  0.00    -0.244 OA
BRANCH   2  12
ATOM      4  C   UNL     1      -1.758  -5.557  -1.023  0.00  0.00    +0.044 C 
ATOM      5  C   UNL     1      -2.855  -4.562  -0.744  0.00  0.00    -0.037 A 
ATOM      6  C   UNL     1      -4.134  -4.989  -0.475  0.00  0.00    +0.027 A 
ATOM      7  C   UNL     1      -5.141  -4.071  -0.219  0.00  0.00    +0.040 A 
ATOM      8  N   UNL     1      -4.885  -2.778  -0.229  0.00  0.00    -0.245 NA
ATOM      9  C   UNL     1      -3.677  -2.319  -0.480  0.00  0.00    +0.111 A 
ATOM     10  C   UNL     1      -2.583  -3.171  -0.753  0.00  0.00    +0.032 A 
ATOM     11  C   UNL     1      -1.323  -2.494  -1.015  0.00  0.00    +0.056 A 
ATOM     12  C   UNL     1      -1.298  -1.116  -0.965  0.00  0.00    +0.119 A 
ATOM     13  S   UNL     1      -2.983  -0.688  -0.576  0.00  0.00    -0.060 S 
ATOM     14  C   UNL     1      -6.538  -4.555   0.074  0.00  0.00    +0.065 C 
BRANCH  11  15
ATOM     15  N   UNL     1      -0.174  -3.215  -1.304  0.00  0.00    -0.356 N 
ATOM     16  H   UNL     1       0.566  -2.786  -1.761  0.00  0.00    +0.142 HD
ATOM     17  H   UNL     1      -0.111  -4.149  -1.049  0.00  0.00    +0.142 HD
ENDBRANCH  11  15
ENDBRANCH   2  12
ENDBRANCH   1   2
BRANCH   1  18
ATOM     18  C   UNL     1       0.785   1.901  -1.319  0.00  0.00    +0.259 C 
ATOM     19  C   UNL     1       0.883   2.242  -2.807  0.00  0.00    +0.062 C 
BRANCH  18  20
ATOM     20  C   UNL     1       0.667   3.172  -0.518  0.00  0.00    +0.258 C 
ATOM     21  O   UNL     1      -0.308   3.362   0.178  0.00  0.00    -0.271 OA
ATOM     22  N   UNL     1       1.645   4.098  -0.576  0.00  0.00    -0.279 N 
ATOM     23  H   UNL     1       2.416   3.953  -1.145  0.00  0.00    +0.155 HD
BRANCH  22  24
ATOM     24  C   UNL     1       1.546   5.269   0.186  0.00  0.00    +0.079 A 
ATOM     25  C   UNL     1       0.675   5.325   1.265  0.00  0.00    +0.072 A 
ATOM     26  C   UNL     1       0.580   6.485   2.017  0.00  0.00    +0.122 A 
ATOM     27  C   UNL     1       1.355   7.589   1.693  0.00  0.00    +0.049 A 
ATOM     28  C   UNL     1       2.224   7.536   0.619  0.00  0.00    +0.051 A 
ATOM     29  C   UNL     1       2.326   6.378  -0.133  0.00  0.00    +0.141 A 
BRANCH  29  30
ATOM     30  O   UNL     1       3.186   6.324  -1.187  0.00  0.00    -0.493 OA
ATOM     31  C   UNL     1       3.955   7.498  -1.457  0.00  0.00    +0.277 C 
ENDBRANCH  29  30
BRANCH  26  32
ATOM     32  O   UNL     1      -0.273   6.541   3.075  0.00  0.00    -0.495 OA
ATOM     33  C   UNL     1      -0.320   7.768   3.806  0.00  0.00    +0.277 C 
ENDBRANCH  26  32
ENDBRANCH  22  24
ENDBRANCH  18  20
ENDBRANCH   1  18
TORSDOF 8
