REMARK  Name = ZINC45440226
REMARK  8 active torsions:
REMARK  status: ('A' for Active; 'I' for Inactive)
REMARK    1  A    between atoms: C_1  and  C_2
REMARK    2  A    between atoms: C_5  and  O_9
REMARK    3  A    between atoms: C_7  and  C_8
REMARK    4  A    between atoms: O_9  and  C_10
REMARK    5  A    between atoms: C_10  and  C_11
REMARK    6  A    between atoms: N_13  and  N_14
REMARK    7  A    between atoms: N_17  and  C_18
REMARK    8  A    between atoms: C_23  and  C_26
REMARK                            x       y       z     vdW  Elec       q    Type
REMARK                         _______ _______ _______ _____ _____    ______ ____
ROOT
ATOM      1  N   UNL     1       0.103  -8.471  -2.006  0.00  0.00    -0.218 N 
ATOM      2  C   UNL     1       0.108  -9.286  -3.079  0.00  0.00    +0.316 C 
ATOM      3  O   UNL     1       0.124 -10.492  -2.926  0.00  0.00    -0.251 OA
ATOM      4  N   UNL     1       0.095  -8.764  -4.322  0.00  0.00    -0.295 N 
ATOM      5  H   UNL     1       0.112  -8.846  -1.111  0.00  0.00    +0.174 HD
ATOM      6  H   UNL     1       0.082  -7.802  -4.443  0.00  0.00    +0.151 HD
ENDROOT
BRANCH   4   7
ATOM      7  C   UNL     1       0.100  -9.650  -5.488  0.00  0.00    +0.075 C 
ATOM      8  C   UNL     1       1.541 -10.040  -5.826  0.00  0.00    +0.022 C 
ATOM      9  C   UNL     1       1.546 -10.965  -7.044  0.00  0.00    +0.002 C 
ATOM     10  C   UNL     1       0.921 -10.241  -8.238  0.00  0.00    +0.012 C 
ATOM     11  C   UNL     1      -0.519  -9.851  -7.900  0.00  0.00    +0.095 C 
ATOM     12  C   UNL     1      -0.525  -8.925  -6.682  0.00  0.00    +0.034 C 
BRANCH  11  13
ATOM     13  C   UNL     1      -1.144  -9.126  -9.094  0.00  0.00    +0.393 C 
ATOM     14  F   UNL     1      -1.139  -9.972 -10.208  0.00  0.00    -0.170 F 
ATOM     15  F   UNL     1      -2.462  -8.769  -8.786  0.00  0.00    -0.170 F 
ATOM     16  F   UNL     1      -0.404  -7.974  -9.380  0.00  0.00    -0.170 F 
ENDBRANCH  11  13
ENDBRANCH   4   7
BRANCH   1  19
ATOM     17  C   UNL     1       0.079  -6.266  -1.108  0.00  0.00    +0.267 C 
ATOM     18  O   UNL     1       0.090  -6.735   0.010  0.00  0.00    -0.271 OA
ATOM     19  N   UNL     1       0.084  -7.081  -2.182  0.00  0.00    -0.230 N 
ATOM     20  H   UNL     1       0.074  -6.705  -3.076  0.00  0.00    +0.173 HD
BRANCH  17  21
ATOM     21  C   UNL     1       0.058  -4.771  -1.298  0.00  0.00    +0.326 C 
BRANCH  21  22
ATOM     22  O   UNL     1       0.057  -4.129  -0.021  0.00  0.00    -0.483 OA
BRANCH  22  27
ATOM     23  C   UNL     1      -0.018   1.503   0.010  0.00  0.00    +0.044 C 
ATOM     24  C   UNL     1       0.002  -0.004   0.002  0.00  0.00    -0.047 A 
ATOM     25  C   UNL     1       0.006  -0.688  -1.200  0.00  0.00    +0.007 A 
ATOM     26  C   UNL     1       0.024  -2.069  -1.210  0.00  0.00    +0.046 A 
ATOM     27  C   UNL     1       0.039  -2.770  -0.013  0.00  0.00    +0.121 A 
ATOM     28  C   UNL     1       0.036  -2.082   1.191  0.00  0.00    +0.049 A 
ATOM     29  C   UNL     1       0.023  -0.701   1.196  0.00  0.00    -0.044 A 
ATOM     30  C   UNL     1       0.025   0.048   2.504  0.00  0.00    +0.044 C 
ENDBRANCH  22  27
ENDBRANCH  21  22
ENDBRANCH  17  21
ENDBRANCH   1  19
TORSDOF 6
