REMARK  Name = ZINC61856652
REMARK  6 active torsions:
REMARK  status: ('A' for Active; 'I' for Inactive)
REMARK    1  A    between atoms: C_1  and  C_2
REMARK    2  A    between atoms: C_4  and  S_8
REMARK    3  A    between atoms: N_5  and  C_7
REMARK    4  A    between atoms: S_8  and  C_9
REMARK    5  A    between atoms: C_12  and  C_16
REMARK    6  A    between atoms: N_17  and  O_18
REMARK                            x       y       z     vdW  Elec       q    Type
REMARK                         _______ _______ _______ _____ _____    ______ ____
ROOT
ATOM      1  C   UNL     1       0.424  -4.891  -0.805  0.00  0.00    +0.016 A 
ATOM      2  C   UNL     1       0.451  -4.645   0.565  0.00  0.00    +0.016 A 
ATOM      3  C   UNL     1       0.696  -5.674   1.446  0.00  0.00    +0.014 A 
ATOM      4  C   UNL     1       0.916  -6.966   0.965  0.00  0.00    +0.036 A 
ATOM      5  C   UNL     1       0.889  -7.211  -0.410  0.00  0.00    +0.053 A 
ATOM      6  C   UNL     1       0.638  -6.178  -1.288  0.00  0.00    +0.035 A 
ATOM      7 CL   UNL     1       1.163  -8.816  -1.013  0.00  0.00    -0.083 Cl
ENDROOT
BRANCH   4   8
ATOM      8  C   UNL     1       1.180  -8.073   1.909  0.00  0.00    +0.164 C 
ATOM      9  N   UNL     1       1.385  -9.277   1.460  0.00  0.00    -0.071 NA
ATOM     10  N   UNL     1       1.207  -7.828   3.272  0.00  0.00    -0.340 N 
ATOM     11  H   UNL     1       1.054  -6.931   3.607  0.00  0.00    +0.144 HD
ATOM     12  H   UNL     1       1.380  -8.554   3.892  0.00  0.00    +0.144 HD
BRANCH   9  13
ATOM     13  O   UNL     1       1.637 -10.337   2.364  0.00  0.00    -0.408 OA
ATOM     14  H   UNL     1       1.778 -11.193   1.938  0.00  0.00    +0.328 HD
ENDBRANCH   9  13
ENDBRANCH   4   8
BRANCH   1  15
ATOM     15  S   UNL     1       0.111  -3.571  -1.930  0.00  0.00    -0.070 S 
BRANCH  15  19
ATOM     16  C   UNL     1      -0.017   1.212   0.447  0.00  0.00    +0.067 C 
ATOM     17  C   UNL     1      -0.358  -0.214   0.095  0.00  0.00    +0.061 A 
ATOM     18  C   UNL     1       0.281  -0.991  -0.874  0.00  0.00    +0.059 A 
ATOM     19  C   UNL     1      -0.315  -2.215  -0.888  0.00  0.00    +0.099 A 
ATOM     20  N   UNL     1      -1.300  -2.200   0.049  0.00  0.00    -0.260 N 
ATOM     21  N   UNL     1      -1.298  -0.935   0.650  0.00  0.00    -0.176 NA
ATOM     22  C   UNL     1      -2.199  -3.309   0.374  0.00  0.00    +0.173 C 
ENDBRANCH  15  19
ENDBRANCH   1  15
TORSDOF 4
