REMARK  Name = ZINC06858824
REMARK  11 active torsions:
REMARK  status: ('A' for Active; 'I' for Inactive)
REMARK    1  A    between atoms: C_1  and  C_2
REMARK    2  A    between atoms: C_2  and  C_3
REMARK    3  A    between atoms: C_2  and  C_4
REMARK    4  A    between atoms: C_2  and  C_5
REMARK    5  A    between atoms: C_7  and  C_19
REMARK    6  A    between atoms: C_8  and  C_17
REMARK    7  A    between atoms: C_9  and  S_11
REMARK    8  A    between atoms: S_11  and  C_12
REMARK    9  A    between atoms: C_12  and  C_13
REMARK   10  A    between atoms: C_13  and  O_15
REMARK   11  A    between atoms: O_15  and  C_16
REMARK                            x       y       z     vdW  Elec       q    Type
REMARK                         _______ _______ _______ _____ _____    ______ ____
ROOT
ATOM      1  C   UNL     1      -1.217   1.756   0.017  0.00  0.00    +0.049 A 
ATOM      2  C   UNL     1      -0.013   1.076   0.008  0.00  0.00    +0.037 A 
ATOM      3  C   UNL     1       1.173   1.789   0.001  0.00  0.00    +0.076 A 
ATOM      4  C   UNL     1       1.109   3.187   0.008  0.00  0.00    +0.095 A 
ATOM      5  C   UNL     1      -0.154   3.806   0.023  0.00  0.00    +0.116 A 
ATOM      6  N   UNL     1      -1.258   3.074   0.029  0.00  0.00    -0.244 NA
ENDROOT
BRANCH   1   8
ATOM      7  C   UNL     1      -2.743   0.386   1.411  0.00  0.00    +0.017 C 
ATOM      8  C   UNL     1      -2.507   0.977   0.020  0.00  0.00    +0.005 C 
ATOM      9  C   UNL     1      -3.666   1.907  -0.343  0.00  0.00    +0.017 C 
ATOM     10  C   UNL     1      -2.421  -0.155  -1.006  0.00  0.00    +0.017 C 
ENDBRANCH   1   8
BRANCH   3  11
ATOM     11  C   UNL     1       2.502   1.078  -0.016  0.00  0.00    +0.419 C 
ATOM     12  F   UNL     1       2.290  -0.305  -0.021  0.00  0.00    -0.166 F 
ATOM     13  F   UNL     1       3.213   1.445  -1.163  0.00  0.00    -0.166 F 
ATOM     14  F   UNL     1       3.235   1.433   1.121  0.00  0.00    -0.166 F 
ENDBRANCH   3  11
BRANCH   4  15
ATOM     15  C   UNL     1       2.306   3.973   0.000  0.00  0.00    +0.102 C 
ATOM     16  N   UNL     1       3.256   4.596  -0.006  0.00  0.00    -0.191 NA
ENDBRANCH   4  15
BRANCH   5  17
ATOM     17  S   UNL     1      -0.268   5.564   0.033  0.00  0.00    -0.093 S 
BRANCH  17  18
ATOM     18  C   UNL     1      -2.067   5.763   0.051  0.00  0.00    +0.196 C 
BRANCH  18  19
ATOM     19  C   UNL     1      -2.410   7.230   0.061  0.00  0.00    +0.317 C 
ATOM     20  O   UNL     1      -1.529   8.057   0.057  0.00  0.00    -0.250 OA
BRANCH  19  21
ATOM     21  O   UNL     1      -3.695   7.618   0.075  0.00  0.00    -0.467 OA
ATOM     22  C   UNL     1      -3.952   9.047   0.085  0.00  0.00    +0.280 C 
ENDBRANCH  19  21
ENDBRANCH  18  19
ENDBRANCH  17  18
ENDBRANCH   5  17
TORSDOF 7
