REMARK  Name = ZINC13134184
REMARK  12 active torsions:
REMARK  status: ('A' for Active; 'I' for Inactive)
REMARK    1  A    between atoms: C_1  and  C_2
REMARK    2  A    between atoms: C_5  and  S_8
REMARK    3  A    between atoms: S_8  and  N_11
REMARK    4  A    between atoms: N_11  and  C_12
REMARK    5  A    between atoms: N_11  and  C_13
REMARK    6  A    between atoms: C_16  and  O_19
REMARK    7  A    between atoms: O_19  and  C_20
REMARK    8  A    between atoms: C_20  and  C_21
REMARK    9  A    between atoms: N_23  and  C_24
REMARK   10  A    between atoms: C_27  and  N_31
REMARK   11  A    between atoms: C_29  and  C_30
REMARK   12  A    between atoms: C_36  and  N_71
REMARK                            x       y       z     vdW  Elec       q    Type
REMARK                         _______ _______ _______ _____ _____    ______ ____
ROOT
ATOM      1  C   UNL     1      -4.643   0.402  -0.020  0.00  0.00    +0.324 C 
ENDROOT
BRANCH   1   2
ATOM      2  C   UNL     1      -3.615  -0.652   0.301  0.00  0.00    +0.255 C 
ATOM      3  O   UNL     1      -3.969  -1.746   0.688  0.00  0.00    -0.272 OA
ATOM      4  N   UNL     1      -2.303  -0.379   0.158  0.00  0.00    -0.282 N 
ATOM      5  H   UNL     1      -2.017   0.514  -0.089  0.00  0.00    +0.155 HD
BRANCH   4   6
ATOM      6  C   UNL     1      -1.351  -1.387   0.366  0.00  0.00    +0.037 A 
ATOM      7  C   UNL     1      -1.601  -2.400   1.282  0.00  0.00    +0.025 A 
ATOM      8  C   UNL     1      -0.667  -3.396   1.482  0.00  0.00    +0.025 A 
ATOM      9  C   UNL     1       0.524  -3.384   0.767  0.00  0.00    +0.030 A 
ATOM     10  C   UNL     1       0.775  -2.371  -0.148  0.00  0.00    +0.028 A 
ATOM     11  C   UNL     1      -0.161  -1.375  -0.348  0.00  0.00    -0.027 A 
ATOM     12  C   UNL     1       0.111  -0.275  -1.343  0.00  0.00    +0.046 C 
BRANCH   9  13
ATOM     13  N   UNL     1       1.472  -4.393   0.971  0.00  0.00    -0.333 N 
ATOM     14  C   UNL     1       1.799  -5.070  -0.292  0.00  0.00    +0.086 C 
ATOM     15  C   UNL     1       2.894  -6.110  -0.041  0.00  0.00    -0.060 C 
ATOM     16  C   UNL     1       2.102  -6.397   2.228  0.00  0.00    -0.060 C 
ATOM     17  C   UNL     1       1.007  -5.358   1.977  0.00  0.00    +0.086 C 
ATOM     18  C   UNL     1       3.424  -8.134   1.179  0.00  0.00    -0.096 C 
ATOM     19  N   UNL     1       2.405  -7.086   0.955  0.00  0.00    +0.380 N 
ATOM     20  H   UNL     1       1.548  -7.524   0.600  0.00  0.00    -0.082 HD
ENDBRANCH   9  13
ENDBRANCH   4   6
ENDBRANCH   1   2
BRANCH   1  21
ATOM     21  O   UNL     1      -5.952  -0.124   0.209  0.00  0.00    -0.483 OA
BRANCH  21  25
ATOM     22  C   UNL     1      -9.139   2.395  -0.530  0.00  0.00    +0.051 A 
ATOM     23  C   UNL     1      -9.366   1.101  -0.080  0.00  0.00    +0.028 A 
ATOM     24  C   UNL     1      -8.299   0.259   0.168  0.00  0.00    +0.047 A 
ATOM     25  C   UNL     1      -7.002   0.706  -0.034  0.00  0.00    +0.121 A 
ATOM     26  C   UNL     1      -6.774   2.000  -0.479  0.00  0.00    +0.047 A 
ATOM     27  C   UNL     1      -7.840   2.841  -0.731  0.00  0.00    +0.028 A 
BRANCH  22  28
ATOM     28  N   UNL     1     -10.220   3.248  -0.780  0.00  0.00    -0.206 N 
ATOM     29  C   UNL     1     -11.372   2.767  -1.546  0.00  0.00    +0.157 C 
BRANCH  28  30
ATOM     30  S   UNL     1     -10.196   4.803  -0.210  0.00  0.00    +0.074 S 
ATOM     31  O   UNL     1     -11.527   5.114   0.177  0.00  0.00    -0.150 OA
ATOM     32  O   UNL     1      -9.101   4.888   0.692  0.00  0.00    -0.150 OA
BRANCH  30  37
ATOM     33  C   UNL     1      -8.870   8.395  -4.873  0.00  0.00    +0.044 C 
ATOM     34  C   UNL     1      -9.201   7.498  -3.708  0.00  0.00    -0.050 A 
ATOM     35  C   UNL     1     -10.501   7.070  -3.513  0.00  0.00    +0.005 A 
ATOM     36  C   UNL     1     -10.805   6.247  -2.444  0.00  0.00    +0.029 A 
ATOM     37  C   UNL     1      -9.809   5.852  -1.572  0.00  0.00    +0.109 A 
ATOM     38  C   UNL     1      -8.509   6.283  -1.764  0.00  0.00    +0.029 A 
ATOM     39  C   UNL     1      -8.205   7.102  -2.835  0.00  0.00    +0.005 A 
ENDBRANCH  30  37
ENDBRANCH  28  30
ENDBRANCH  22  28
ENDBRANCH  21  25
ENDBRANCH   1  21
TORSDOF 8
