REMARK  Name = ZINC15547813
REMARK  9 active torsions:
REMARK  status: ('A' for Active; 'I' for Inactive)
REMARK    1  A    between atoms: C_1  and  C_2
REMARK    2  A    between atoms: C_2  and  C_3
REMARK    3  A    between atoms: C_3  and  C_4
REMARK    4  A    between atoms: C_4  and  N_5
REMARK    5  A    between atoms: C_9  and  S_26
REMARK    6  A    between atoms: C_13  and  C_14
REMARK    7  A    between atoms: C_14  and  N_15
REMARK    8  A    between atoms: C_23  and  C_25
REMARK    9  A    between atoms: S_26  and  N_29
REMARK                            x       y       z     vdW  Elec       q    Type
REMARK                         _______ _______ _______ _____ _____    ______ ____
ROOT
ATOM      1  N   UNL     1       1.425  -2.500  -2.470  0.00  0.00    -0.329 N 
ATOM      2  C   UNL     1       0.841  -2.768  -3.692  0.00  0.00    +0.069 A 
ATOM      3  C   UNL     1      -0.458  -2.700  -4.179  0.00  0.00    +0.030 A 
ATOM      4  C   UNL     1      -0.716  -3.047  -5.488  0.00  0.00    +0.030 A 
ATOM      5  C   UNL     1       0.313  -3.466  -6.320  0.00  0.00    +0.107 A 
ATOM      6  C   UNL     1       1.596  -3.540  -5.858  0.00  0.00    +0.058 A 
ATOM      7  C   UNL     1       1.882  -3.191  -4.535  0.00  0.00    +0.091 A 
ATOM      8  N   UNL     1       3.023  -3.160  -3.801  0.00  0.00    -0.234 NA
ATOM      9  C   UNL     1       2.756  -2.750  -2.595  0.00  0.00    +0.094 A 
ENDROOT
BRANCH   5  10
ATOM     10  S   UNL     1      -0.040  -3.906  -7.989  0.00  0.00    +0.056 S 
ATOM     11  O   UNL     1       0.997  -4.784  -8.406  0.00  0.00    -0.153 OA
ATOM     12  O   UNL     1      -1.412  -4.274  -8.030  0.00  0.00    -0.153 OA
BRANCH  10  13
ATOM     13  N   UNL     1       0.108  -2.531  -8.900  0.00  0.00    -0.204 NA
ATOM     14  H   UNL     1       0.351  -1.693  -8.477  0.00  0.00    +0.144 HD
ATOM     15  H   UNL     1      -0.048  -2.564  -9.857  0.00  0.00    +0.144 HD
ENDBRANCH  10  13
ENDBRANCH   5  10
BRANCH   1  16
ATOM     16  C   UNL     1       0.739  -2.027  -1.265  0.00  0.00    +0.123 C 
BRANCH  16  17
ATOM     17  C   UNL     1       0.718  -0.497  -1.257  0.00  0.00    +0.021 C 
BRANCH  17  19
ATOM     18  C   UNL     1      -0.019   1.526   0.010  0.00  0.00    +0.004 C 
ATOM     19  C   UNL     1       0.002  -0.004   0.002  0.00  0.00    -0.002 C 
ENDBRANCH  17  19
ENDBRANCH  16  17
ENDBRANCH   1  16
BRANCH   9  20
ATOM     20  C   UNL     1       3.773  -2.580  -1.496  0.00  0.00    -0.002 C 
BRANCH  20  21
ATOM     21  N   UNL     1       3.894  -3.836  -0.743  0.00  0.00    +0.389 N 
ATOM     22  C   UNL     1       2.613  -4.132  -0.087  0.00  0.00    -0.072 C 
ATOM     23  C   UNL     1       2.636  -5.586   0.415  0.00  0.00    +0.024 C 
ATOM     24  C   UNL     1       3.932  -5.795   1.129  0.00  0.00    -0.010 A 
ATOM     25  C   UNL     1       5.018  -4.973   1.091  0.00  0.00    -0.051 A 
ATOM     26  C   UNL     1       6.122  -5.367   1.843  0.00  0.00    +0.010 A 
ATOM     27  C   UNL     1       6.079  -6.516   2.558  0.00  0.00    +0.045 A 
ATOM     28  S   UNL     1       4.434  -7.114   2.196  0.00  0.00    -0.101 S 
ATOM     29  C   UNL     1       4.969  -3.703   0.248  0.00  0.00    -0.039 C 
ATOM     30  C   UNL     1       6.307  -3.511  -0.470  0.00  0.00    -0.008 C 
ATOM     31  H   UNL     1       4.121  -4.584  -1.380  0.00  0.00    -0.080 HD
ENDBRANCH  20  21
ENDBRANCH   9  20
TORSDOF 7
