REMARK  Name = ZINC32636198
REMARK  12 active torsions:
REMARK  status: ('A' for Active; 'I' for Inactive)
REMARK    1  A    between atoms: C_1  and  C_2
REMARK    2  A    between atoms: C_3  and  N_15
REMARK    3  A    between atoms: N_6  and  C_9
REMARK    4  A    between atoms: N_7  and  C_8
REMARK    5  A    between atoms: C_16  and  C_18
REMARK    6  A    between atoms: C_18  and  C_20
REMARK    7  A    between atoms: C_18  and  S_21
REMARK    8  A    between atoms: S_21  and  C_22
REMARK    9  A    between atoms: C_28  and  C_30
REMARK   10  A    between atoms: C_30  and  C_32
REMARK   11  A    between atoms: C_30  and  S_33
REMARK   12  A    between atoms: S_33  and  C_34
REMARK                            x       y       z     vdW  Elec       q    Type
REMARK                         _______ _______ _______ _____ _____    ______ ____
ROOT
ATOM      1  N   UNL     1       5.322  -4.606  -8.725  0.00  0.00    -0.279 N 
ATOM      2  C   UNL     1       4.245  -3.854  -8.424  0.00  0.00    +0.230 C 
ATOM      3  O   UNL     1       3.541  -3.421  -9.312  0.00  0.00    -0.274 OA
ATOM      4  H   UNL     1       6.007  -4.929  -7.927  0.00  0.00    +0.155 HD
ENDROOT
BRANCH   1   7
ATOM      5  C   UNL     1       7.905  -3.984 -10.261  0.00  0.00    +0.067 C 
ATOM      6  C   UNL     1       6.694  -4.723 -10.769  0.00  0.00    +0.059 A 
ATOM      7  C   UNL     1       5.571  -4.979 -10.061  0.00  0.00    +0.121 A 
ATOM      8  C   UNL     1       4.664  -5.720 -10.938  0.00  0.00    +0.293 A 
ATOM      9  O   UNL     1       3.554  -6.131 -10.653  0.00  0.00    -0.264 OA
ATOM     10  N   UNL     1       5.292  -5.859 -12.125  0.00  0.00    -0.216 N 
ATOM     11  N   UNL     1       6.547  -5.248 -12.026  0.00  0.00    -0.282 N 
ATOM     12  C   UNL     1       7.545  -5.180 -13.096  0.00  0.00    +0.171 C 
BRANCH  10  13
ATOM     13  C   UNL     1       4.779  -6.505 -13.254  0.00  0.00    +0.067 A 
ATOM     14  C   UNL     1       4.845  -5.889 -14.498  0.00  0.00    +0.028 A 
ATOM     15  C   UNL     1       4.343  -6.533 -15.612  0.00  0.00    +0.002 A 
ATOM     16  C   UNL     1       3.766  -7.783 -15.489  0.00  0.00    +0.000 A 
ATOM     17  C   UNL     1       3.695  -8.396 -14.252  0.00  0.00    +0.002 A 
ATOM     18  C   UNL     1       4.199  -7.761 -13.134  0.00  0.00    +0.028 A 
ENDBRANCH  10  13
ENDBRANCH   1   7
BRANCH   2  19
ATOM     19  C   UNL     1       3.916  -3.551  -6.986  0.00  0.00    +0.136 C 
ATOM     20  C   UNL     1       4.714  -2.329  -6.526  0.00  0.00    +0.029 C 
BRANCH  19  21
ATOM     21  S   UNL     1       2.141  -3.206  -6.831  0.00  0.00    -0.084 S 
BRANCH  21  22
ATOM     22  C   UNL     1       1.893  -3.021  -5.097  0.00  0.00    +0.161 A 
ATOM     23  N   UNL     1       2.760  -3.103  -4.098  0.00  0.00    -0.133 NA
ATOM     24  N   UNL     1       2.410  -2.941  -2.897  0.00  0.00    -0.125 NA
ATOM     25  C   UNL     1       1.158  -2.680  -2.560  0.00  0.00    +0.189 A 
ATOM     26  S   UNL     1       0.394  -2.675  -4.179  0.00  0.00    -0.024 S 
ATOM     27  N   UNL     1       0.594  -2.473  -1.303  0.00  0.00    -0.262 N 
ATOM     28  C   UNL     1       1.367  -2.529  -0.200  0.00  0.00    +0.231 C 
ATOM     29  O   UNL     1       2.553  -2.758  -0.302  0.00  0.00    -0.274 OA
ATOM     30  H   UNL     1      -0.482  -2.265  -1.211  0.00  0.00    +0.157 HD
BRANCH  28  31
ATOM     31  C   UNL     1       0.756  -2.305   1.159  0.00  0.00    +0.129 C 
ATOM     32  C   UNL     1       0.585  -0.804   1.401  0.00  0.00    +0.029 C 
BRANCH  31  33
ATOM     33  S   UNL     1       1.844  -3.002   2.433  0.00  0.00    -0.152 S 
ATOM     34  C   UNL     1       0.909  -2.791   3.973  0.00  0.00    +0.085 C 
ENDBRANCH  31  33
ENDBRANCH  28  31
ENDBRANCH  21  22
ENDBRANCH  19  21
ENDBRANCH   2  19
TORSDOF 7
