REMARK  Name = ZINC13064681
REMARK  13 active torsions:
REMARK  status: ('A' for Active; 'I' for Inactive)
REMARK    1  A    between atoms: C_1  and  C_2
REMARK    2  A    between atoms: C_2  and  C_3
REMARK    3  A    between atoms: C_3  and  C_5
REMARK    4  A    between atoms: C_3  and  N_72
REMARK    5  A    between atoms: N_9  and  C_10
REMARK    6  A    between atoms: C_10  and  C_11
REMARK    7  A    between atoms: C_17  and  C_18
REMARK    8  A    between atoms: C_17  and  N_72
REMARK    9  A    between atoms: C_21  and  C_24
REMARK   10  A    between atoms: C_25  and  C_26
REMARK   11  A    between atoms: C_25  and  N_72
REMARK   12  A    between atoms: C_30  and  C_39
REMARK   13  A    between atoms: C_31  and  C_38
REMARK                            x       y       z     vdW  Elec       q    Type
REMARK                         _______ _______ _______ _____ _____    ______ ____
ROOT
ATOM      1  N   UNL     1      -0.786  -0.125   0.736  0.00  0.00    +0.392 N 
ATOM      2  H   UNL     1      -0.253   0.062   1.593  0.00  0.00    -0.080 HD
ENDROOT
BRANCH   1   3
ATOM      3  C   UNL     1      -0.104   0.523  -0.404  0.00  0.00    +0.003 C 
BRANCH   3   4
ATOM      4  C   UNL     1       0.472   1.835   0.063  0.00  0.00    +0.138 A 
ATOM      5  N   UNL     1      -0.134   2.742   0.789  0.00  0.00    -0.115 NA
ATOM      6  N   UNL     1       0.688   3.715   0.979  0.00  0.00    -0.023 NA
ATOM      7  N   UNL     1       1.801   3.456   0.386  0.00  0.00    -0.044 NA
ATOM      8  N   UNL     1       1.708   2.306  -0.190  0.00  0.00    -0.226 N 
BRANCH   8   9
ATOM      9  C   UNL     1       2.750   1.638  -0.973  0.00  0.00    +0.182 C 
BRANCH   9  10
ATOM     10  C   UNL     1       2.626   2.039  -2.421  0.00  0.00    -0.026 A 
ATOM     11  C   UNL     1       1.837   1.296  -3.279  0.00  0.00    +0.005 A 
ATOM     12  C   UNL     1       1.719   1.667  -4.605  0.00  0.00    +0.000 A 
ATOM     13  C   UNL     1       2.399   2.774  -5.076  0.00  0.00    +0.000 A 
ATOM     14  C   UNL     1       3.193   3.514  -4.219  0.00  0.00    +0.000 A 
ATOM     15  C   UNL     1       3.306   3.146  -2.892  0.00  0.00    +0.005 A 
ENDBRANCH   9  10
ENDBRANCH   8   9
ENDBRANCH   3   4
BRANCH   3  17
ATOM     16  C   UNL     1      -1.566  -0.561  -2.116  0.00  0.00    +0.002 C 
ATOM     17  C   UNL     1      -1.092   0.777  -1.544  0.00  0.00    -0.011 C 
ENDBRANCH   3  17
ENDBRANCH   1   3
BRANCH   1  18
ATOM     18  C   UNL     1      -2.149   0.426   0.888  0.00  0.00    -0.042 C 
BRANCH  18  19
ATOM     19  C   UNL     1      -2.675   0.045   2.248  0.00  0.00    -0.064 A 
ATOM     20  C   UNL     1      -3.366  -1.141   2.414  0.00  0.00    +0.002 A 
ATOM     21  C   UNL     1      -3.845  -1.492   3.663  0.00  0.00    +0.003 A 
ATOM     22  C   UNL     1      -3.642  -0.653   4.742  0.00  0.00    -0.050 A 
ATOM     23  C   UNL     1      -2.956   0.536   4.575  0.00  0.00    +0.003 A 
ATOM     24  C   UNL     1      -2.473   0.885   3.327  0.00  0.00    +0.002 A 
ATOM     25  C   UNL     1      -4.169  -1.034   6.102  0.00  0.00    +0.044 C 
ENDBRANCH  18  19
ENDBRANCH   1  18
BRANCH   1  26
ATOM     26  C   UNL     1      -0.853  -1.586   0.520  0.00  0.00    -0.036 C 
BRANCH  26  27
ATOM     27  C   UNL     1       0.476  -2.189   0.894  0.00  0.00    +0.001 A 
ATOM     28  C   UNL     1       0.685  -2.634   2.158  0.00  0.00    +0.017 A 
ATOM     29  C   UNL     1       1.986  -3.219   2.487  0.00  0.00    -0.001 A 
ATOM     30  C   UNL     1       2.259  -3.700   3.772  0.00  0.00    +0.013 A 
ATOM     31  C   UNL     1       3.484  -4.236   4.049  0.00  0.00    -0.047 A 
ATOM     32  C   UNL     1       4.462  -4.308   3.066  0.00  0.00    -0.046 A 
ATOM     33  C   UNL     1       4.216  -3.841   1.793  0.00  0.00    +0.030 A 
ATOM     34  C   UNL     1       2.975  -3.291   1.488  0.00  0.00    +0.049 A 
ATOM     35  N   UNL     1       2.701  -2.816   0.223  0.00  0.00    -0.322 N 
ATOM     36  H   UNL     1       3.383  -2.866  -0.465  0.00  0.00    +0.169 HD
ATOM     37  C   UNL     1       1.502  -2.285  -0.072  0.00  0.00    +0.251 A 
ATOM     38  O   UNL     1       1.294  -1.875  -1.201  0.00  0.00    -0.268 OA
ATOM     39  C   UNL     1       5.807  -4.903   3.394  0.00  0.00    +0.044 C 
ATOM     40  C   UNL     1       3.778  -4.753   5.434  0.00  0.00    +0.044 C 
ENDBRANCH  26  27
ENDBRANCH   1  26
TORSDOF 9
