REMARK  Name = ZINC45974064
REMARK  13 active torsions:
REMARK  status: ('A' for Active; 'I' for Inactive)
REMARK    1  A    between atoms: C_1  and  C_2
REMARK    2  A    between atoms: C_9  and  C_13
REMARK    3  A    between atoms: C_13  and  N_14
REMARK    4  A    between atoms: N_14  and  C_15
REMARK    5  A    between atoms: N_14  and  C_26
REMARK    6  A    between atoms: C_15  and  C_16
REMARK    7  A    between atoms: C_19  and  O_24
REMARK    8  A    between atoms: C_20  and  O_22
REMARK    9  A    between atoms: O_22  and  C_23
REMARK   10  A    between atoms: O_24  and  C_25
REMARK   11  A    between atoms: C_26  and  C_27
REMARK   12  A    between atoms: C_27  and  C_28
REMARK   13  A    between atoms: C_27  and  C_29
REMARK                            x       y       z     vdW  Elec       q    Type
REMARK                         _______ _______ _______ _____ _____    ______ ____
ROOT
ATOM      1  N   UNL     1       1.404   1.027   4.918  0.00  0.00    +0.386 N 
ATOM      2  H   UNL     1       2.118   0.321   5.018  0.00  0.00    -0.081 HD
ENDROOT
BRANCH   1   3
ATOM      3  C   UNL     1       0.102   0.380   4.707  0.00  0.00    -0.022 C 
BRANCH   3  12
ATOM      4  C   UNL     1       0.897   1.170  -0.177  0.00  0.00    +0.047 C 
ATOM      5  C   UNL     1       0.737  -0.320  -0.015  0.00  0.00    -0.008 A 
ATOM      6  C   UNL     1       0.829  -1.142  -1.098  0.00  0.00    +0.008 A 
ATOM      7  C   UNL     1       0.677  -2.525  -0.931  0.00  0.00    +0.019 A 
ATOM      8  C   UNL     1       0.442  -3.039   0.297  0.00  0.00    +0.096 A 
ATOM      9  N   UNL     1       0.349  -2.226   1.386  0.00  0.00    -0.268 N 
ATOM     10  C   UNL     1       0.498  -0.874   1.256  0.00  0.00    +0.143 A 
ATOM     11  N   UNL     1       0.414  -0.072   2.316  0.00  0.00    -0.236 NA
ATOM     12  C   UNL     1       0.190  -0.555   3.528  0.00  0.00    +0.032 A 
ATOM     13  C   UNL     1       0.039  -1.915   3.714  0.00  0.00    +0.092 A 
ATOM     14  C   UNL     1       0.114  -2.763   2.602  0.00  0.00    +0.258 A 
ATOM     15  O   UNL     1      -0.016  -3.970   2.733  0.00  0.00    -0.267 OA
ENDBRANCH   3  12
ENDBRANCH   1   3
BRANCH   1  16
ATOM     16  C   UNL     1       1.351   1.846   6.136  0.00  0.00    -0.042 C 
BRANCH  16  17
ATOM     17  C   UNL     1       1.145   0.954   7.333  0.00  0.00    -0.060 A 
ATOM     18  C   UNL     1      -0.130   0.749   7.828  0.00  0.00    +0.005 A 
ATOM     19  C   UNL     1      -0.325  -0.069   8.925  0.00  0.00    +0.049 A 
ATOM     20  C   UNL     1       0.758  -0.685   9.532  0.00  0.00    +0.161 A 
ATOM     21  C   UNL     1       2.041  -0.479   9.033  0.00  0.00    +0.162 A 
ATOM     22  C   UNL     1       2.229   0.338   7.930  0.00  0.00    +0.051 A 
BRANCH  21  23
ATOM     23  O   UNL     1       3.107  -1.081   9.625  0.00  0.00    -0.491 OA
ATOM     24  C   UNL     1       4.394  -0.824   9.059  0.00  0.00    +0.277 C 
ENDBRANCH  21  23
BRANCH  20  25
ATOM     25  O   UNL     1       0.568  -1.489  10.612  0.00  0.00    -0.491 OA
ATOM     26  C   UNL     1      -0.776  -1.655  11.069  0.00  0.00    +0.277 C 
ENDBRANCH  20  25
ENDBRANCH  16  17
ENDBRANCH   1  16
BRANCH   1  27
ATOM     27  C   UNL     1       1.718   1.882   3.766  0.00  0.00    -0.075 C 
BRANCH  27  28
ATOM     28  C   UNL     1       3.118   2.475   3.938  0.00  0.00    -0.034 C 
ATOM     29  C   UNL     1       4.157   1.353   3.886  0.00  0.00    +0.005 C 
ATOM     30  C   UNL     1       3.391   3.475   2.812  0.00  0.00    +0.005 C 
ENDBRANCH  27  28
ENDBRANCH   1  27
TORSDOF 8
