REMARK  Name = ZINC04687001
REMARK  1 active torsions:
REMARK  status: ('A' for Active; 'I' for Inactive)
REMARK    1  A    between atoms: C_12  and  C_14
REMARK                            x       y       z     vdW  Elec       q    Type
REMARK                         _______ _______ _______ _____ _____    ______ ____
ROOT
ATOM      1  C   UNL     1      -2.647  -2.495  -0.425  0.00  0.00    +0.019 A 
ATOM      2  C   UNL     1      -3.780  -2.285   0.388  0.00  0.00    +0.019 A 
ATOM      3  C   UNL     1      -3.862  -0.962   0.634  0.00  0.00    +0.093 A 
ATOM      4  N   UNL     1      -2.820  -0.344   0.001  0.00  0.00    -0.303 N 
ATOM      5  C   UNL     1      -2.083  -1.292  -0.651  0.00  0.00    +0.093 A 
ATOM      6  C   UNL     1      -2.557   1.028   0.014  0.00  0.00    +0.223 A 
ATOM      7  C   UNL     1      -1.228   1.647   0.017  0.00  0.00    +0.214 A 
ATOM      8  N   UNL     1      -1.378   2.942   0.024  0.00  0.00    -0.031 NA
ATOM      9  O   UNL     1      -2.768   3.218   0.032  0.00  0.00    -0.239 OA
ATOM     10  N   UNL     1      -3.450   1.977   0.029  0.00  0.00    -0.029 NA
ATOM     11  N   UNL     1      -0.011   0.966   0.007  0.00  0.00    -0.264 N 
ATOM     12  C   UNL     1       1.147   1.655   0.000  0.00  0.00    +0.225 C 
ATOM     13  O   UNL     1       1.130   2.868   0.007  0.00  0.00    -0.275 OA
ATOM     14  H   UNL     1       0.002  -0.004   0.002  0.00  0.00    +0.156 HD
ENDROOT
BRANCH  12  15
ATOM     15  C   UNL     1       2.462   0.920  -0.017  0.00  0.00    +0.048 C 
ATOM     16  C   UNL     1       2.567   0.035   1.227  0.00  0.00    +0.019 C 
ATOM     17  C   UNL     1       3.902  -0.712   1.210  0.00  0.00    -0.009 C 
ATOM     18  C   UNL     1       5.051   0.298   1.205  0.00  0.00    +0.007 C 
ATOM     19  C   UNL     1       4.946   1.183  -0.039  0.00  0.00    -0.009 C 
ATOM     20  C   UNL     1       3.611   1.930  -0.022  0.00  0.00    +0.019 C 
ATOM     21  C   UNL     1       5.027   0.311  -1.294  0.00  0.00    +0.007 C 
ATOM     22  C   UNL     1       3.878  -0.699  -1.288  0.00  0.00    -0.009 C 
ATOM     23  C   UNL     1       3.983  -1.584  -0.044  0.00  0.00    +0.007 C 
ATOM     24  C   UNL     1       2.543   0.048  -1.271  0.00  0.00    +0.019 C 
ENDBRANCH  12  15
TORSDOF 1
