REMARK  Name = ZINC33717384
REMARK  14 active torsions:
REMARK  status: ('A' for Active; 'I' for Inactive)
REMARK    1  A    between atoms: C_1  and  C_2
REMARK    2  A    between atoms: C_2  and  C_3
REMARK    3  A    between atoms: C_3  and  C_4
REMARK    4  A    between atoms: C_4  and  C_5
REMARK    5  A    between atoms: C_6  and  C_23
REMARK    6  A    between atoms: C_7  and  C_20
REMARK    7  A    between atoms: C_8  and  C_19
REMARK    8  A    between atoms: N_9  and  C_10
REMARK    9  A    between atoms: C_10  and  C_11
REMARK   10  A    between atoms: C_11  and  C_12
REMARK   11  A    between atoms: C_12  and  N_13
REMARK   12  A    between atoms: C_24  and  C_36
REMARK   13  A    between atoms: N_25  and  C_35
REMARK   14  A    between atoms: N_26  and  C_29
REMARK                            x       y       z     vdW  Elec       q    Type
REMARK                         _______ _______ _______ _____ _____    ______ ____
ROOT
ATOM      1  C   UNL     1      -3.064   1.701   1.966  0.00  0.00    +0.028 A 
ATOM      2  C   UNL     1      -2.555   1.741   0.709  0.00  0.00    +0.022 A 
ATOM      3  C   UNL     1      -3.647   1.320  -0.187  0.00  0.00    +0.065 A 
ATOM      4  C   UNL     1      -4.723   1.069   0.619  0.00  0.00    +0.029 A 
ATOM      5  N   UNL     1      -4.368   1.302   1.897  0.00  0.00    -0.347 N 
ATOM      6  C   UNL     1      -6.080   0.609   0.154  0.00  0.00    +0.064 C 
ENDROOT
BRANCH   2   7
ATOM      7  C   UNL     1      -1.177   2.124   0.316  0.00  0.00    +0.071 A 
ATOM      8  C   UNL     1      -0.743   3.375   0.004  0.00  0.00    +0.046 A 
ATOM      9  N   UNL     1       0.584   3.309  -0.308  0.00  0.00    -0.283 N 
ATOM     10  N   UNL     1       1.024   1.987  -0.191  0.00  0.00    -0.217 N 
ATOM     11  C   UNL     1      -0.022   1.226   0.193  0.00  0.00    +0.280 A 
ATOM     12  O   UNL     1      -0.012   0.026   0.394  0.00  0.00    -0.265 OA
ATOM     13  C   UNL     1       1.418   4.447  -0.705  0.00  0.00    +0.171 C 
ATOM     14  C   UNL     1      -1.587   4.623  -0.002  0.00  0.00    +0.066 C 
BRANCH  10  15
ATOM     15  C   UNL     1       2.324   1.531  -0.431  0.00  0.00    +0.067 A 
ATOM     16  C   UNL     1       2.985   1.895  -1.597  0.00  0.00    +0.028 A 
ATOM     17  C   UNL     1       4.271   1.448  -1.829  0.00  0.00    +0.002 A 
ATOM     18  C   UNL     1       4.896   0.628  -0.906  0.00  0.00    +0.000 A 
ATOM     19  C   UNL     1       4.239   0.260   0.253  0.00  0.00    +0.002 A 
ATOM     20  C   UNL     1       2.955   0.708   0.493  0.00  0.00    +0.028 A 
ENDBRANCH  10  15
ENDBRANCH   2   7
BRANCH   3  21
ATOM     21  C   UNL     1      -3.591   1.195  -1.651  0.00  0.00    +0.244 C 
ATOM     22  O   UNL     1      -3.261   0.140  -2.159  0.00  0.00    -0.270 OA
ATOM     23  N   UNL     1      -3.905   2.249  -2.430  0.00  0.00    -0.325 N 
ATOM     24  H   UNL     1      -3.864   2.155  -3.525  0.00  0.00    +0.145 HD
ATOM     25  H   UNL     1      -4.204   3.203  -1.970  0.00  0.00    +0.145 HD
ENDBRANCH   3  21
BRANCH   1  26
ATOM     26  C   UNL     1      -2.316   2.044   3.228  0.00  0.00    +0.054 C 
BRANCH  26  27
ATOM     27  C   UNL     1      -1.644   0.785   3.781  0.00  0.00    +0.006 C 
BRANCH  27  29
ATOM     28  C   UNL     1      -0.213  -0.125   5.615  0.00  0.00    +0.004 C 
ATOM     29  C   UNL     1      -0.884   1.134   5.062  0.00  0.00    -0.003 C 
ENDBRANCH  27  29
ENDBRANCH  26  27
ENDBRANCH   1  26
BRANCH   5  30
ATOM     30  C   UNL     1      -5.255   1.143   3.051  0.00  0.00    +0.123 C 
BRANCH  30  31
ATOM     31  C   UNL     1      -5.143  -0.286   3.588  0.00  0.00    +0.040 C 
BRANCH  31  32
ATOM     32  C   UNL     1      -6.070  -0.452   4.794  0.00  0.00    +0.109 C 
BRANCH  32  33
ATOM     33  N   UNL     1      -5.963  -1.820   5.307  0.00  0.00    -0.301 N 
ATOM     34  C   UNL     1      -6.803  -2.938   4.865  0.00  0.00    +0.108 C 
ATOM     35  C   UNL     1      -6.062  -4.215   5.325  0.00  0.00    +0.028 C 
ATOM     36  C   UNL     1      -5.247  -3.688   6.529  0.00  0.00    +0.097 C 
ATOM     37  C   UNL     1      -5.086  -2.210   6.248  0.00  0.00    +0.216 C 
ATOM     38  O   UNL     1      -4.283  -1.484   6.793  0.00  0.00    -0.276 OA
ENDBRANCH  32  33
ENDBRANCH  31  32
ENDBRANCH  30  31
ENDBRANCH   5  30
TORSDOF 10
