REMARK  Name = ZINC16523852
REMARK  4 active torsions:
REMARK  status: ('A' for Active; 'I' for Inactive)
REMARK    1  A    between atoms: C_4  and  N_7
REMARK    2  A    between atoms: C_8  and  S_12
REMARK    3  A    between atoms: S_12  and  C_13
REMARK    4  A    between atoms: N_22  and  O_23
REMARK                            x       y       z     vdW  Elec       q    Type
REMARK                         _______ _______ _______ _____ _____    ______ ____
ROOT
ATOM      1  S   UNL     1       2.824  -2.812   1.538  0.00  0.00    -0.075 S 
ENDROOT
BRANCH   1   2
ATOM      2  C   UNL     1       3.835  -4.234   2.038  0.00  0.00    +0.102 C 
ATOM      3  C   UNL     1       3.033  -5.114   3.004  0.00  0.00    +0.020 C 
ATOM      4  C   UNL     1       3.722  -6.484   3.083  0.00  0.00    +0.001 C 
ATOM      5  C   UNL     1       5.028  -6.353   3.868  0.00  0.00    +0.000 C 
ATOM      6  C   UNL     1       6.114  -5.749   2.986  0.00  0.00    +0.000 C 
ATOM      7  C   UNL     1       6.083  -6.416   1.604  0.00  0.00    +0.006 C 
ATOM      8  C   UNL     1       5.670  -5.358   0.566  0.00  0.00    +0.055 C 
ATOM      9  C   UNL     1       4.215  -5.028   0.821  0.00  0.00    +0.071 C 
ATOM     10  N   UNL     1       3.312  -5.423   0.004  0.00  0.00    -0.095 NA
BRANCH  10  11
ATOM     11  O   UNL     1       3.674  -6.172  -1.143  0.00  0.00    -0.409 OA
ATOM     12  H   UNL     1       2.924  -6.425  -1.699  0.00  0.00    +0.328 HD
ENDBRANCH  10  11
ENDBRANCH   1   2
BRANCH   1  14
ATOM     13  N   UNL     1       3.624  -0.652  -0.037  0.00  0.00    -0.187 N 
ATOM     14  C   UNL     1       3.918  -1.831   0.567  0.00  0.00    +0.215 A 
ATOM     15  N   UNL     1       5.176  -2.102   0.291  0.00  0.00    -0.101 NA
ATOM     16  N   UNL     1       5.685  -1.178  -0.441  0.00  0.00    -0.022 NA
ATOM     17  N   UNL     1       4.809  -0.266  -0.689  0.00  0.00    -0.038 NA
BRANCH  13  21
ATOM     18  C   UNL     1      -0.017   1.379   0.010  0.00  0.00    +0.000 A 
ATOM     19  C   UNL     1       1.170   2.089   0.002  0.00  0.00    +0.002 A 
ATOM     20  C   UNL     1       2.377   1.419  -0.013  0.00  0.00    +0.028 A 
ATOM     21  C   UNL     1       2.399   0.031  -0.021  0.00  0.00    +0.070 A 
ATOM     22  C   UNL     1       1.207  -0.680  -0.013  0.00  0.00    +0.028 A 
ATOM     23  C   UNL     1       0.002  -0.004   0.002  0.00  0.00    +0.002 A 
ENDBRANCH  13  21
ENDBRANCH   1  14
TORSDOF 4
