REMARK  Name = ZINC40917489
REMARK  11 active torsions:
REMARK  status: ('A' for Active; 'I' for Inactive)
REMARK    1  A    between atoms: C_1  and  C_2
REMARK    2  A    between atoms: C_2  and  C_3
REMARK    3  A    between atoms: C_3  and  O_4
REMARK    4  A    between atoms: O_4  and  C_5
REMARK    5  A    between atoms: C_8  and  C_12
REMARK    6  A    between atoms: C_12  and  N_13
REMARK    7  A    between atoms: N_13  and  C_14
REMARK    8  A    between atoms: C_18  and  C_27
REMARK    9  A    between atoms: C_27  and  C_28
REMARK   10  A    between atoms: C_27  and  C_29
REMARK   11  A    between atoms: C_27  and  C_30
REMARK                            x       y       z     vdW  Elec       q    Type
REMARK                         _______ _______ _______ _____ _____    ______ ____
ROOT
ATOM      1  C   UNL     1      -8.352  -4.690   1.534  0.00  0.00    +0.081 C 
ATOM      2  C   UNL     1      -8.953  -4.483   2.756  0.00  0.00    +0.058 C 
ATOM      3  C   UNL     1     -10.258  -5.098   3.076  0.00  0.00    +0.001 A 
ATOM      4  C   UNL     1     -10.930  -5.906   2.166  0.00  0.00    +0.013 A 
ATOM      5  C   UNL     1     -12.146  -6.457   2.513  0.00  0.00    -0.041 A 
ATOM      6  C   UNL     1     -12.701  -6.212   3.760  0.00  0.00    +0.005 A 
ATOM      7  C   UNL     1     -12.050  -5.414   4.676  0.00  0.00    +0.014 A 
ATOM      8  C   UNL     1     -10.819  -4.847   4.346  0.00  0.00    +0.045 A 
ATOM      9  C   UNL     1     -10.092  -3.991   5.292  0.00  0.00    +0.251 C 
ATOM     10  O   UNL     1     -10.571  -3.771   6.389  0.00  0.00    -0.270 OA
ATOM     11  N   UNL     1      -8.907  -3.449   4.968  0.00  0.00    -0.248 N 
ATOM     12  C   UNL     1      -8.313  -3.650   3.781  0.00  0.00    +0.252 C 
ATOM     13  O   UNL     1      -7.236  -3.133   3.550  0.00  0.00    -0.270 OA
ATOM     14  H   UNL     1      -8.459  -2.889   5.622  0.00  0.00    +0.158 HD
ENDROOT
BRANCH   5  15
ATOM     15  C   UNL     1     -12.877  -7.333   1.528  0.00  0.00    -0.013 C 
ATOM     16  C   UNL     1     -12.006  -8.541   1.175  0.00  0.00    +0.015 C 
ATOM     17  C   UNL     1     -14.189  -7.815   2.151  0.00  0.00    +0.015 C 
ATOM     18  C   UNL     1     -13.178  -6.533   0.259  0.00  0.00    +0.015 C 
ENDBRANCH   5  15
BRANCH   1  19
ATOM     19  N   UNL     1      -7.076  -4.274   1.325  0.00  0.00    -0.343 N 
ATOM     20  H   UNL     1      -6.560  -3.906   2.059  0.00  0.00    +0.146 HD
BRANCH  19  21
ATOM     21  C   UNL     1      -6.479  -4.381  -0.009  0.00  0.00    +0.154 C 
BRANCH  21  25
ATOM     22  C   UNL     1      -2.515  -2.822   0.115  0.00  0.00    +0.183 A 
ATOM     23  C   UNL     1      -3.592  -2.030   0.335  0.00  0.00    +0.133 A 
ATOM     24  N   UNL     1      -4.849  -2.545   0.292  0.00  0.00    -0.360 N 
ATOM     25  C   UNL     1      -5.068  -3.855   0.029  0.00  0.00    +0.037 A 
ATOM     26  C   UNL     1      -4.035  -4.697  -0.200  0.00  0.00    +0.077 A 
ATOM     27  C   UNL     1      -2.714  -4.197  -0.169  0.00  0.00    +0.223 A 
ATOM     28  O   UNL     1      -1.762  -4.935  -0.377  0.00  0.00    -0.284 OA
ATOM     29  H   UNL     1      -5.606  -1.960   0.453  0.00  0.00    +0.165 HD
BRANCH  22  30
ATOM     30  O   UNL     1      -1.258  -2.303   0.161  0.00  0.00    -0.487 OA
BRANCH  30  31
ATOM     31  C   UNL     1      -1.142  -0.909   0.453  0.00  0.00    +0.229 C 
BRANCH  31  33
ATOM     32  C   UNL     1       0.460   0.982   0.774  0.00  0.00    +0.007 C 
ATOM     33  C   UNL     1       0.336  -0.511   0.461  0.00  0.00    +0.038 C 
ENDBRANCH  31  33
ENDBRANCH  30  31
ENDBRANCH  22  30
ENDBRANCH  21  25
ENDBRANCH  19  21
ENDBRANCH   1  19
TORSDOF 7
