REMARK  Name = ZINC04649946
REMARK  5 active torsions:
REMARK  status: ('A' for Active; 'I' for Inactive)
REMARK    1  A    between atoms: C_1  and  O_2
REMARK    2  A    between atoms: O_2  and  C_3
REMARK    3  A    between atoms: C_6  and  C_9
REMARK    4  A    between atoms: C_18  and  S_20
REMARK    5  A    between atoms: S_20  and  C_21
REMARK                            x       y       z     vdW  Elec       q    Type
REMARK                         _______ _______ _______ _____ _____    ______ ____
ROOT
ATOM      1  C   UNL     1      -1.310   2.115   0.020  0.00  0.00    +0.004 A 
ATOM      2  C   UNL     1      -2.279   1.808  -0.873  0.00  0.00    +0.056 A 
ATOM      3  S   UNL     1      -3.598   2.931  -0.455  0.00  0.00    -0.076 S 
ATOM      4  C   UNL     1      -2.822   3.787   0.893  0.00  0.00    +0.117 A 
ATOM      5  C   UNL     1      -1.558   3.178   0.989  0.00  0.00    +0.080 A 
ATOM      6  C   UNL     1      -0.701   3.682   2.015  0.00  0.00    +0.261 A 
ATOM      7  O   UNL     1       0.414   3.214   2.173  0.00  0.00    -0.267 OA
ATOM      8  N   UNL     1      -1.139   4.678   2.806  0.00  0.00    -0.301 N 
ATOM      9  H   UNL     1      -0.542   5.033   3.525  0.00  0.00    +0.171 HD
ATOM     10  C   UNL     1      -2.384   5.214   2.644  0.00  0.00    +0.170 A 
ATOM     11  N   UNL     1      -3.195   4.768   1.706  0.00  0.00    -0.216 NA
ENDROOT
BRANCH   1  15
ATOM     12  C   UNL     1       2.399   0.035  -0.021  0.00  0.00    +0.120 A 
ATOM     13  C   UNL     1       1.207  -0.676  -0.013  0.00  0.00    +0.046 A 
ATOM     14  C   UNL     1       0.002  -0.004   0.002  0.00  0.00    +0.012 A 
ATOM     15  C   UNL     1      -0.017   1.390   0.010  0.00  0.00    -0.016 A 
ATOM     16  C   UNL     1       1.183   2.100   0.002  0.00  0.00    +0.012 A 
ATOM     17  C   UNL     1       2.384   1.423  -0.013  0.00  0.00    +0.046 A 
BRANCH  12  19
ATOM     18  C   UNL     1       4.773   0.163  -0.043  0.00  0.00    +0.277 C 
ATOM     19  O   UNL     1       3.584  -0.630  -0.036  0.00  0.00    -0.495 OA
ENDBRANCH  12  19
ENDBRANCH   1  15
BRANCH  10  20
ATOM     20  S   UNL     1      -2.915   6.518   3.704  0.00  0.00    -0.091 S 
ATOM     21  C   UNL     1      -4.574   6.806   3.042  0.00  0.00    +0.093 C 
ENDBRANCH  10  20
TORSDOF 3
