REMARK  Name = ZINC40330330
REMARK  3 active torsions:
REMARK  status: ('A' for Active; 'I' for Inactive)
REMARK    1  A    between atoms: C_3  and  S_9
REMARK    2  A    between atoms: C_6  and  N_7
REMARK    3  A    between atoms: S_9  and  N_12
REMARK                            x       y       z     vdW  Elec       q    Type
REMARK                         _______ _______ _______ _____ _____    ______ ____
ROOT
ATOM      1  S   UNL     1       3.890   2.321  -0.023  0.00  0.00    +0.063 S 
ATOM      2  O   UNL     1       4.704   1.644  -0.971  0.00  0.00    -0.153 OA
ATOM      3  O   UNL     1       3.590   3.706  -0.127  0.00  0.00    -0.153 OA
ENDROOT
BRANCH   1   4
ATOM      4  N   UNL     1       4.602   2.101   1.455  0.00  0.00    -0.169 NA
ATOM      5  C   UNL     1       4.241   2.941   2.608  0.00  0.00    +0.138 C 
ATOM      6  C   UNL     1       3.908   2.029   3.794  0.00  0.00    +0.177 C 
ATOM      7  O   UNL     1       4.976   1.097   3.991  0.00  0.00    -0.374 OA
ATOM      8  C   UNL     1       5.198   0.228   2.881  0.00  0.00    +0.137 C 
ATOM      9  C   UNL     1       5.617   1.051   1.665  0.00  0.00    +0.109 C 
ATOM     10  C   UNL     1       6.959   1.730   1.949  0.00  0.00    +0.023 C 
ATOM     11  C   UNL     1       8.018   0.673   2.266  0.00  0.00    +0.002 C 
ATOM     12  C   UNL     1       7.589  -0.115   3.506  0.00  0.00    +0.003 C 
ATOM     13  C   UNL     1       6.277  -0.797   3.214  0.00  0.00    +0.033 C 
ENDBRANCH   1   4
BRANCH   1  16
ATOM     14  C   UNL     1      -0.048   1.528  -0.008  0.00  0.00    +0.025 A 
ATOM     15  C   UNL     1       1.164   2.189  -0.034  0.00  0.00    +0.032 A 
ATOM     16  C   UNL     1       2.345   1.473   0.011  0.00  0.00    +0.124 A 
ATOM     17  C   UNL     1       2.318   0.091   0.082  0.00  0.00    +0.069 A 
ATOM     18  C   UNL     1       1.108  -0.577   0.108  0.00  0.00    +0.044 A 
ATOM     19  C   UNL     1      -0.080   0.141   0.063  0.00  0.00    +0.026 A 
ATOM     20 CL   UNL     1       3.804  -0.804   0.139  0.00  0.00    -0.081 Cl
BRANCH  19  21
ATOM     21  N   UNL     1      -1.305  -0.530   0.090  0.00  0.00    -0.358 N 
ATOM     22  H   UNL     1      -2.134  -0.028   0.059  0.00  0.00    +0.142 HD
ATOM     23  H   UNL     1      -1.326  -1.499   0.140  0.00  0.00    +0.142 HD
ENDBRANCH  19  21
ENDBRANCH   1  16
TORSDOF 3
