REMARK  Name = ZINC13096693
REMARK  5 active torsions:
REMARK  status: ('A' for Active; 'I' for Inactive)
REMARK    1  A    between atoms: C_12  and  C_18
REMARK    2  A    between atoms: N_20  and  C_21
REMARK    3  A    between atoms: C_21  and  C_22
REMARK    4  A    between atoms: C_22  and  C_24
REMARK    5  A    between atoms: C_22  and  N_54
REMARK                            x       y       z     vdW  Elec       q    Type
REMARK                         _______ _______ _______ _____ _____    ______ ____
ROOT
ATOM      1  C   UNL     1       2.174   0.257   0.492  0.00  0.00    +0.001 A 
ATOM      2  C   UNL     1       0.878   0.564   0.114  0.00  0.00    +0.002 A 
ATOM      3  C   UNL     1       0.515   1.880  -0.109  0.00  0.00    +0.028 A 
ATOM      4  C   UNL     1       1.442   2.893   0.036  0.00  0.00    +0.104 A 
ATOM      5  C   UNL     1       2.750   2.594   0.414  0.00  0.00    +0.047 A 
ATOM      6  C   UNL     1       3.108   1.258   0.641  0.00  0.00    +0.013 A 
ATOM      7  C   UNL     1       3.763   3.644   0.583  0.00  0.00    +0.197 C 
ATOM      8  O   UNL     1       4.737   3.398   1.266  0.00  0.00    -0.287 OA
ATOM      9  C   UNL     1       3.663   4.980  -0.030  0.00  0.00    +0.048 A 
ATOM     10  C   UNL     1       4.829   5.741  -0.191  0.00  0.00    +0.014 A 
ATOM     11  C   UNL     1       4.768   6.993  -0.757  0.00  0.00    +0.014 A 
ATOM     12  C   UNL     1       3.541   7.512  -1.175  0.00  0.00    +0.039 A 
ATOM     13  C   UNL     1       2.379   6.756  -1.017  0.00  0.00    +0.041 A 
ATOM     14  C   UNL     1       2.440   5.501  -0.450  0.00  0.00    +0.105 A 
ATOM     15  S   UNL     1       0.962   4.562  -0.260  0.00  0.00    +0.026 S 
ATOM     16  O   UNL     1       0.338   5.022   0.930  0.00  0.00    -0.164 OA
ATOM     17  O   UNL     1       0.306   4.578  -1.520  0.00  0.00    -0.164 OA
ENDROOT
BRANCH  12  18
ATOM     18  C   UNL     1       3.473   8.860  -1.784  0.00  0.00    +0.244 C 
ATOM     19  O   UNL     1       2.404   9.309  -2.147  0.00  0.00    -0.270 OA
ATOM     20  N   UNL     1       4.597   9.588  -1.936  0.00  0.00    -0.313 N 
ATOM     21  H   UNL     1       5.450   9.229  -1.646  0.00  0.00    +0.149 HD
BRANCH  20  22
ATOM     22  C   UNL     1       4.530  10.921  -2.538  0.00  0.00    +0.094 C 
BRANCH  22  23
ATOM     23  C   UNL     1       5.947  11.465  -2.734  0.00  0.00    -0.013 C 
BRANCH  23  28
ATOM     24  C   UNL     1       7.943  11.250  -4.112  0.00  0.00    -0.078 C 
ATOM     25  C   UNL     1       8.779  10.058  -4.641  0.00  0.00    -0.020 C 
ATOM     26  C   UNL     1       8.412   8.918  -3.663  0.00  0.00    -0.020 C 
ATOM     27  C   UNL     1       7.057   9.328  -3.057  0.00  0.00    -0.078 C 
ATOM     28  N   UNL     1       6.694  10.596  -3.692  0.00  0.00    +0.386 N 
ATOM     29  H   UNL     1       6.104  10.416  -4.513  0.00  0.00    -0.081 HD
ENDBRANCH  23  28
BRANCH  23  30
ATOM     30  C   UNL     1       5.876  12.870  -3.273  0.00  0.00    -0.022 A 
ATOM     31  C   UNL     1       6.107  14.043  -2.634  0.00  0.00    +0.009 A 
ATOM     32  C   UNL     1       5.982  15.226  -3.337  0.00  0.00    +0.008 A 
ATOM     33  C   UNL     1       5.633  15.179  -4.646  0.00  0.00    +0.045 A 
ATOM     34  S   UNL     1       5.475  13.422  -4.923  0.00  0.00    -0.103 S 
ENDBRANCH  23  30
ENDBRANCH  22  23
ENDBRANCH  20  22
ENDBRANCH  12  18
TORSDOF 5
