REMARK  Name = ZINC38676420
REMARK  12 active torsions:
REMARK  status: ('A' for Active; 'I' for Inactive)
REMARK    1  A    between atoms: C_1  and  C_2
REMARK    2  A    between atoms: N_5  and  C_17
REMARK    3  A    between atoms: N_8  and  C_9
REMARK    4  A    between atoms: C_12  and  O_15
REMARK    5  A    between atoms: O_15  and  C_16
REMARK    6  A    between atoms: C_17  and  C_18
REMARK    7  A    between atoms: N_20  and  C_21
REMARK    8  A    between atoms: C_25  and  O_35
REMARK    9  A    between atoms: C_29  and  C_31
REMARK   10  A    between atoms: C_31  and  O_33
REMARK   11  A    between atoms: O_33  and  C_34
REMARK   12  A    between atoms: O_35  and  C_36
REMARK                            x       y       z     vdW  Elec       q    Type
REMARK                         _______ _______ _______ _____ _____    ______ ____
ROOT
ATOM      1  C   UNL     1      -2.299  -5.330   0.327  0.00  0.00    +0.231 C 
ATOM      2  O   UNL     1      -1.437  -4.907  -0.413  0.00  0.00    -0.274 OA
ATOM      3  N   UNL     1      -2.788  -6.573   0.152  0.00  0.00    -0.285 N 
ATOM      4  H   UNL     1      -3.527  -6.886   0.697  0.00  0.00    +0.155 HD
ENDROOT
BRANCH   3   5
ATOM      5  C   UNL     1      -2.245  -7.393  -0.793  0.00  0.00    +0.053 C 
ATOM      6  C   UNL     1      -2.688  -8.649  -1.161  0.00  0.00    +0.018 A 
ATOM      7  C   UNL     1      -3.771  -9.447  -0.717  0.00  0.00    +0.015 A 
ATOM      8  C   UNL     1      -3.976 -10.668  -1.265  0.00  0.00    +0.046 A 
ATOM      9  C   UNL     1      -3.138 -11.171  -2.272  0.00  0.00    +0.122 A 
ATOM     10  C   UNL     1      -2.079 -10.456  -2.746  0.00  0.00    +0.071 A 
ATOM     11  C   UNL     1      -1.804  -9.172  -2.219  0.00  0.00    +0.048 A 
ATOM     12  N   UNL     1      -0.859  -8.297  -2.502  0.00  0.00    -0.367 N 
ATOM     13  C   UNL     1      -1.037  -7.111  -1.658  0.00  0.00    +0.234 C 
ATOM     14  H   UNL     1      -0.160  -8.417  -3.164  0.00  0.00    +0.161 HD
BRANCH  13  15
ATOM     15  C   UNL     1       0.182  -6.903  -0.796  0.00  0.00    +0.335 C 
ATOM     16  O   UNL     1       0.773  -7.856  -0.346  0.00  0.00    -0.248 OA
BRANCH  15  17
ATOM     17  O   UNL     1       0.611  -5.660  -0.529  0.00  0.00    -0.466 OA
ATOM     18  C   UNL     1       1.772  -5.537   0.295  0.00  0.00    +0.280 C 
ENDBRANCH  15  17
ENDBRANCH  13  15
BRANCH   9  19
ATOM     19  O   UNL     1      -3.388 -12.400  -2.787  0.00  0.00    -0.495 OA
ATOM     20  C   UNL     1      -4.509 -13.110  -2.256  0.00  0.00    +0.277 C 
ENDBRANCH   9  19
ENDBRANCH   3   5
BRANCH   1  21
ATOM     21  C   UNL     1      -2.824  -4.465   1.444  0.00  0.00    +0.180 C 
BRANCH  21  25
ATOM     22  C   UNL     1      -2.699   0.129   3.212  0.00  0.00    +0.029 C 
ATOM     23  C   UNL     1      -2.149  -0.830   2.154  0.00  0.00    +0.084 C 
ATOM     24  C   UNL     1      -2.779  -2.215   2.338  0.00  0.00    +0.107 C 
ATOM     25  N   UNL     1      -2.135  -3.167   1.423  0.00  0.00    -0.291 NA
ATOM     26  C   UNL     1      -0.708  -3.323   1.733  0.00  0.00    +0.104 C 
ATOM     27  C   UNL     1       0.006  -1.983   1.524  0.00  0.00    +0.121 C 
ATOM     28  N   UNL     1      -0.692  -0.951   2.306  0.00  0.00    -0.325 N 
BRANCH  28  29
ATOM     29  C   UNL     1       0.012  -0.109   3.176  0.00  0.00    +0.030 A 
ATOM     30  C   UNL     1       0.214  -0.488   4.496  0.00  0.00    +0.027 A 
ATOM     31  C   UNL     1       0.909   0.343   5.353  0.00  0.00    +0.047 A 
ATOM     32  C   UNL     1       1.405   1.554   4.896  0.00  0.00    +0.120 A 
ATOM     33  C   UNL     1       1.202   1.934   3.577  0.00  0.00    +0.047 A 
ATOM     34  C   UNL     1       0.513   1.102   2.717  0.00  0.00    +0.027 A 
BRANCH  32  35
ATOM     35  O   UNL     1       2.089   2.372   5.740  0.00  0.00    -0.495 OA
ATOM     36  C   UNL     1       2.571   3.605   5.202  0.00  0.00    +0.277 C 
ENDBRANCH  32  35
ENDBRANCH  28  29
ENDBRANCH  21  25
ENDBRANCH   1  21
TORSDOF 8
