REMARK  Name = ZINC35804807
REMARK  16 active torsions:
REMARK  status: ('A' for Active; 'I' for Inactive)
REMARK    1  A    between atoms: C_1  and  C_2
REMARK    2  A    between atoms: C_6  and  C_38
REMARK    3  A    between atoms: C_7  and  N_8
REMARK    4  A    between atoms: N_11  and  C_12
REMARK    5  A    between atoms: N_11  and  C_35
REMARK    6  A    between atoms: C_12  and  C_13
REMARK    7  A    between atoms: N_15  and  C_16
REMARK    8  A    between atoms: N_15  and  C_28
REMARK    9  A    between atoms: C_16  and  C_17
REMARK   10  A    between atoms: C_17  and  C_18
REMARK   11  A    between atoms: C_21  and  O_26
REMARK   12  A    between atoms: C_22  and  O_24
REMARK   13  A    between atoms: O_24  and  C_25
REMARK   14  A    between atoms: O_26  and  C_27
REMARK   15  A    between atoms: C_28  and  C_29
REMARK   16  A    between atoms: C_32  and  C_34
REMARK                            x       y       z     vdW  Elec       q    Type
REMARK                         _______ _______ _______ _____ _____    ______ ____
ROOT
ATOM      1  C   UNL     1       0.626  -0.985   6.577  0.00  0.00    +0.233 C 
ATOM      2  O   UNL     1       1.689  -0.725   6.054  0.00  0.00    -0.274 OA
ATOM      3  N   UNL     1       0.597  -1.625   7.762  0.00  0.00    -0.295 N 
ENDROOT
BRANCH   1   4
ATOM      4  C   UNL     1      -0.662  -0.591   5.901  0.00  0.00    +0.205 C 
BRANCH   4   8
ATOM      5  N   UNL     1      -0.074   0.003   2.322  0.00  0.00    -0.269 N 
ATOM      6  C   UNL     1      -0.248  -0.628   3.500  0.00  0.00    +0.307 C 
ATOM      7  O   UNL     1      -0.302  -1.843   3.538  0.00  0.00    -0.252 OA
ATOM      8  N   UNL     1      -0.363   0.086   4.637  0.00  0.00    -0.274 N 
ATOM      9  H   UNL     1       0.019   0.968   2.298  0.00  0.00    +0.156 HD
BRANCH   5  16
ATOM     10  C   UNL     1       1.998   0.585   0.460  0.00  0.00    +0.045 C 
ATOM     11  C   UNL     1       0.968  -0.483   0.198  0.00  0.00    -0.029 A 
ATOM     12  C   UNL     1       1.015  -1.217  -0.972  0.00  0.00    +0.005 A 
ATOM     13  C   UNL     1       0.070  -2.197  -1.214  0.00  0.00    +0.001 A 
ATOM     14  C   UNL     1      -0.925  -2.446  -0.286  0.00  0.00    +0.005 A 
ATOM     15  C   UNL     1      -0.978  -1.716   0.885  0.00  0.00    -0.029 A 
ATOM     16  C   UNL     1      -0.026  -0.735   1.134  0.00  0.00    +0.041 A 
ATOM     17  C   UNL     1      -2.063  -1.987   1.895  0.00  0.00    +0.045 C 
ENDBRANCH   5  16
BRANCH   8  18
ATOM     18  C   UNL     1      -0.189   1.541   4.608  0.00  0.00    +0.078 C 
ATOM     19  C   UNL     1      -0.028   2.260   5.949  0.00  0.00    +0.024 C 
ATOM     20  C   UNL     1      -1.330   2.400   5.158  0.00  0.00    +0.024 C 
ENDBRANCH   8  18
ENDBRANCH   4   8
ENDBRANCH   1   4
BRANCH   3  21
ATOM     21  C   UNL     1       1.849  -2.008   8.419  0.00  0.00    +0.113 C 
BRANCH  21  22
ATOM     22  C   UNL     1       2.313  -0.873   9.334  0.00  0.00    +0.054 C 
BRANCH  22  23
ATOM     23  C   UNL     1       3.601  -1.267  10.009  0.00  0.00    -0.042 A 
ATOM     24  C   UNL     1       3.570  -1.929  11.223  0.00  0.00    +0.007 A 
ATOM     25  C   UNL     1       4.748  -2.292  11.847  0.00  0.00    +0.049 A 
ATOM     26  C   UNL     1       5.966  -1.993  11.256  0.00  0.00    +0.161 A 
ATOM     27  C   UNL     1       5.998  -1.327  10.034  0.00  0.00    +0.162 A 
ATOM     28  C   UNL     1       4.812  -0.970   9.412  0.00  0.00    +0.053 A 
BRANCH  27  29
ATOM     29  O   UNL     1       7.190  -1.032   9.450  0.00  0.00    -0.491 OA
ATOM     30  C   UNL     1       7.146  -0.347   8.197  0.00  0.00    +0.277 C 
ENDBRANCH  27  29
BRANCH  26  31
ATOM     31  O   UNL     1       7.126  -2.350  11.868  0.00  0.00    -0.491 OA
ATOM     32  C   UNL     1       7.017  -3.030  13.120  0.00  0.00    +0.277 C 
ENDBRANCH  26  31
ENDBRANCH  22  23
ENDBRANCH  21  22
ENDBRANCH   3  21
BRANCH   3  33
ATOM     33  C   UNL     1      -0.687  -1.939   8.394  0.00  0.00    +0.150 C 
BRANCH  33  34
ATOM     34  C   UNL     1      -1.155  -3.296   7.935  0.00  0.00    +0.007 A 
ATOM     35  C   UNL     1      -0.918  -4.511   8.485  0.00  0.00    +0.013 A 
ATOM     36  C   UNL     1      -1.456  -5.635   7.885  0.00  0.00    +0.011 A 
ATOM     37  C   UNL     1      -2.204  -5.487   6.765  0.00  0.00    -0.013 A 
ATOM     38  S   UNL     1      -2.171  -3.718   6.529  0.00  0.00    -0.097 S 
ATOM     39  C   UNL     1      -2.891  -6.543   5.936  0.00  0.00    +0.051 C 
ENDBRANCH  33  34
ENDBRANCH   3  33
TORSDOF 11
