REMARK  Name = ZINC41584837
REMARK  11 active torsions:
REMARK  status: ('A' for Active; 'I' for Inactive)
REMARK    1  A    between atoms: C_1  and  C_2
REMARK    2  A    between atoms: C_4  and  O_37
REMARK    3  A    between atoms: C_5  and  C_23
REMARK    4  A    between atoms: C_11  and  C_12
REMARK    5  A    between atoms: C_14  and  O_20
REMARK    6  A    between atoms: C_17  and  O_18
REMARK    7  A    between atoms: O_18  and  C_19
REMARK    8  A    between atoms: O_20  and  C_21
REMARK    9  A    between atoms: C_23  and  N_24
REMARK   10  A    between atoms: N_27  and  C_30
REMARK   11  A    between atoms: C_30  and  C_31
REMARK                            x       y       z     vdW  Elec       q    Type
REMARK                         _______ _______ _______ _____ _____    ______ ____
ROOT
ATOM      1  C   UNL     1      -0.648   1.599   0.131  0.00  0.00    +0.045 C 
ATOM      2  C   UNL     1      -0.757   0.096   0.111  0.00  0.00    -0.033 A 
ATOM      3  C   UNL     1      -1.037  -0.555  -1.057  0.00  0.00    +0.050 A 
ATOM      4  C   UNL     1      -1.138  -1.943  -1.078  0.00  0.00    +0.122 A 
ATOM      5  C   UNL     1      -0.958  -2.680   0.082  0.00  0.00    +0.020 A 
ATOM      6  C   UNL     1      -0.672  -2.034   1.278  0.00  0.00    +0.145 A 
ATOM      7  C   UNL     1      -0.566  -0.634   1.285  0.00  0.00    +0.071 A 
ATOM      8  C   UNL     1      -0.254  -0.248   2.673  0.00  0.00    +0.232 C 
ATOM      9  O   UNL     1      -0.085   0.875   3.115  0.00  0.00    -0.283 OA
ATOM     10  C   UNL     1      -0.192  -1.521   3.405  0.00  0.00    +0.176 C 
ATOM     11  C   UNL     1       0.070  -1.674   4.729  0.00  0.00    +0.062 C 
ATOM     12  O   UNL     1      -0.456  -2.514   2.522  0.00  0.00    -0.451 OA
ENDROOT
BRANCH  11  13
ATOM     13  C   UNL     1      -0.017  -3.002   5.345  0.00  0.00    +0.024 A 
ATOM     14  C   UNL     1      -0.010  -4.152   4.546  0.00  0.00    +0.057 A 
ATOM     15  C   UNL     1      -0.091  -5.399   5.135  0.00  0.00    +0.121 A 
ATOM     16  C   UNL     1      -0.181  -5.515   6.517  0.00  0.00    +0.049 A 
ATOM     17  C   UNL     1      -0.189  -4.387   7.314  0.00  0.00    +0.050 A 
ATOM     18  C   UNL     1      -0.102  -3.129   6.742  0.00  0.00    +0.128 A 
BRANCH  18  19
ATOM     19  O   UNL     1      -0.105  -2.021   7.527  0.00  0.00    -0.495 OA
ATOM     20  C   UNL     1      -0.194  -2.227   8.938  0.00  0.00    +0.277 C 
ENDBRANCH  18  19
BRANCH  15  21
ATOM     21  O   UNL     1      -0.085  -6.516   4.360  0.00  0.00    -0.495 OA
ATOM     22  C   UNL     1      -0.172  -7.774   5.033  0.00  0.00    +0.277 C 
ENDBRANCH  15  21
ENDBRANCH  11  13
BRANCH   4  23
ATOM     23  O   UNL     1      -1.417  -2.580  -2.244  0.00  0.00    -0.506 OA
ATOM     24  H   UNL     1      -0.634  -2.825  -2.755  0.00  0.00    +0.292 HD
ENDBRANCH   4  23
BRANCH   5  25
ATOM     25  C   UNL     1      -1.072  -4.183   0.045  0.00  0.00    -0.035 C 
BRANCH  25  26
ATOM     26  N   UNL     1       0.246  -4.767  -0.240  0.00  0.00    +0.384 N 
ATOM     27  C   UNL     1       0.674  -4.375  -1.589  0.00  0.00    -0.063 C 
ATOM     28  C   UNL     1       2.055  -4.967  -1.878  0.00  0.00    +0.066 C 
ATOM     29  N   UNL     1       1.988  -6.432  -1.773  0.00  0.00    -0.302 NA
ATOM     30  C   UNL     1       1.537  -6.839  -0.435  0.00  0.00    +0.066 C 
ATOM     31  C   UNL     1       0.160  -6.231  -0.157  0.00  0.00    -0.063 C 
ATOM     32  H   UNL     1       0.915  -4.431   0.436  0.00  0.00    -0.081 HD
BRANCH  29  33
ATOM     33  C   UNL     1       3.284  -7.043  -2.100  0.00  0.00    +0.119 C 
BRANCH  33  34
ATOM     34  C   UNL     1       3.118  -8.536  -2.222  0.00  0.00    -0.033 A 
ATOM     35  C   UNL     1       3.274  -9.342  -1.110  0.00  0.00    +0.005 A 
ATOM     36  C   UNL     1       3.122 -10.711  -1.222  0.00  0.00    +0.000 A 
ATOM     37  C   UNL     1       2.814 -11.275  -2.446  0.00  0.00    +0.000 A 
ATOM     38  C   UNL     1       2.658 -10.469  -3.558  0.00  0.00    +0.000 A 
ATOM     39  C   UNL     1       2.805  -9.099  -3.445  0.00  0.00    +0.005 A 
ENDBRANCH  33  34
ENDBRANCH  29  33
ENDBRANCH  25  26
ENDBRANCH   5  25
TORSDOF 8
