REMARK  Name = ZINC16752109
REMARK  15 active torsions:
REMARK  status: ('A' for Active; 'I' for Inactive)
REMARK    1  A    between atoms: C_1  and  C_2
REMARK    2  A    between atoms: C_2  and  C_3
REMARK    3  A    between atoms: C_3  and  O_4
REMARK    4  A    between atoms: O_4  and  C_5
REMARK    5  A    between atoms: C_8  and  C_14
REMARK    6  A    between atoms: C_10  and  O_11
REMARK    7  A    between atoms: O_11  and  C_12
REMARK    8  A    between atoms: C_12  and  C_13
REMARK    9  A    between atoms: C_21  and  C_35
REMARK   10  A    between atoms: N_29  and  C_30
REMARK   11  A    between atoms: C_30  and  C_31
REMARK   12  A    between atoms: C_31  and  C_32
REMARK   13  A    between atoms: C_32  and  N_69
REMARK   14  A    between atoms: C_33  and  N_69
REMARK   15  A    between atoms: C_34  and  N_69
REMARK                            x       y       z     vdW  Elec       q    Type
REMARK                         _______ _______ _______ _____ _____    ______ ____
ROOT
ATOM      1  C   UNL     1      -1.092  -1.040   0.007  0.00  0.00    +0.145 C 
ATOM      2  C   UNL     1       0.002  -0.004   0.002  0.00  0.00    +0.072 A 
ATOM      3  C   UNL     1      -0.018   1.462   0.010  0.00  0.00    +0.199 A 
ATOM      4  O   UNL     1      -1.063   2.087   0.018  0.00  0.00    -0.287 OA
ATOM      5  C   UNL     1       1.292   2.142   0.001  0.00  0.00    +0.065 A 
ATOM      6  C   UNL     1       1.390   3.532   0.007  0.00  0.00    +0.018 A 
ATOM      7  C   UNL     1       2.623   4.123  -0.002  0.00  0.00    -0.050 A 
ATOM      8  C   UNL     1       3.773   3.346  -0.017  0.00  0.00    +0.007 A 
ATOM      9  C   UNL     1       3.695   1.971  -0.024  0.00  0.00    +0.047 A 
ATOM     10  C   UNL     1       2.451   1.346  -0.015  0.00  0.00    +0.139 A 
ATOM     11  O   UNL     1       2.357   0.004  -0.020  0.00  0.00    -0.450 OA
ATOM     12  C   UNL     1       1.187  -0.663  -0.013  0.00  0.00    +0.199 A 
ATOM     13  C   UNL     1       0.910  -2.121  -0.018  0.00  0.00    +0.283 C 
ATOM     14  O   UNL     1       1.759  -2.990  -0.030  0.00  0.00    -0.267 OA
ATOM     15  N   UNL     1      -0.416  -2.342  -0.006  0.00  0.00    -0.284 N 
ATOM     16  C   UNL     1       2.734   5.626   0.004  0.00  0.00    +0.044 C 
ENDROOT
BRANCH   1  20
ATOM     17  C   UNL     1      -3.535  -0.619  -3.477  0.00  0.00    +0.162 A 
ATOM     18  C   UNL     1      -2.303  -1.246  -3.563  0.00  0.00    +0.050 A 
ATOM     19  C   UNL     1      -1.515  -1.380  -2.435  0.00  0.00    +0.009 A 
ATOM     20  C   UNL     1      -1.954  -0.890  -1.220  0.00  0.00    -0.019 A 
ATOM     21  C   UNL     1      -3.185  -0.267  -1.126  0.00  0.00    +0.055 A 
ATOM     22  C   UNL     1      -3.977  -0.124  -2.254  0.00  0.00    +0.162 A 
BRANCH  17  23
ATOM     23  O   UNL     1      -4.311  -0.486  -4.586  0.00  0.00    -0.488 OA
BRANCH  23  24
ATOM     24  C   UNL     1      -3.794  -1.018  -5.808  0.00  0.00    +0.229 C 
BRANCH  24  26
ATOM     25  C   UNL     1      -4.246  -1.346  -8.243  0.00  0.00    +0.007 C 
ATOM     26  C   UNL     1      -4.800  -0.777  -6.935  0.00  0.00    +0.038 C 
ENDBRANCH  24  26
ENDBRANCH  23  24
ENDBRANCH  17  23
BRANCH  22  27
ATOM     27  O   UNL     1      -5.186   0.493  -2.164  0.00  0.00    -0.489 OA
BRANCH  27  28
ATOM     28  C   UNL     1      -5.574   0.975  -0.877  0.00  0.00    +0.226 C 
ATOM     29  C   UNL     1      -6.952   1.634  -0.973  0.00  0.00    +0.048 C 
ENDBRANCH  27  28
ENDBRANCH  22  27
ENDBRANCH   1  20
BRANCH  15  30
ATOM     30  C   UNL     1      -1.071  -3.653  -0.006  0.00  0.00    +0.107 C 
BRANCH  30  31
ATOM     31  C   UNL     1      -1.313  -4.102  -1.448  0.00  0.00    +0.000 C 
BRANCH  31  32
ATOM     32  C   UNL     1      -1.997  -5.471  -1.448  0.00  0.00    -0.078 C 
BRANCH  32  35
ATOM     33  C   UNL     1      -0.960  -6.147  -3.528  0.00  0.00    -0.097 C 
ATOM     34  C   UNL     1      -3.091  -7.092  -2.876  0.00  0.00    -0.097 C 
ATOM     35  N   UNL     1      -2.244  -5.881  -2.846  0.00  0.00    +0.376 N 
ATOM     36  H   UNL     1      -2.731  -5.121  -3.336  0.00  0.00    -0.083 HD
ENDBRANCH  32  35
ENDBRANCH  31  32
ENDBRANCH  30  31
ENDBRANCH  15  30
TORSDOF 10
