REMARK  Name = ZINC63530793
REMARK  10 active torsions:
REMARK  status: ('A' for Active; 'I' for Inactive)
REMARK    1  A    between atoms: C_1  and  C_2
REMARK    2  A    between atoms: C_6  and  S_26
REMARK    3  A    between atoms: C_7  and  C_12
REMARK    4  A    between atoms: N_14  and  C_15
REMARK    5  A    between atoms: C_15  and  C_16
REMARK    6  A    between atoms: C_19  and  O_22
REMARK    7  A    between atoms: O_22  and  C_23
REMARK    8  A    between atoms: C_23  and  C_24
REMARK    9  A    between atoms: C_23  and  C_25
REMARK   10  A    between atoms: S_26  and  C_27
REMARK                            x       y       z     vdW  Elec       q    Type
REMARK                         _______ _______ _______ _____ _____    ______ ____
ROOT
ATOM      1  C   UNL     1       3.447   0.114   1.406  0.00  0.00    +0.044 C 
ATOM      2  C   UNL     1       3.066  -1.334   1.236  0.00  0.00    -0.048 A 
ATOM      3  C   UNL     1       3.167  -1.919  -0.027  0.00  0.00    +0.004 A 
ATOM      4  C   UNL     1       2.837  -3.219  -0.237  0.00  0.00    +0.011 A 
ATOM      5  C   UNL     1       2.378  -4.008   0.841  0.00  0.00    +0.010 A 
ATOM      6  C   UNL     1       1.975  -5.336   0.927  0.00  0.00    +0.030 C 
ATOM      7  C   UNL     1       1.600  -5.558   2.376  0.00  0.00    +0.204 C 
ATOM      8  N   UNL     1       1.826  -4.276   3.052  0.00  0.00    -0.369 N 
ATOM      9  C   UNL     1       2.269  -3.395   2.174  0.00  0.00    +0.044 A 
ATOM     10  C   UNL     1       2.638  -2.034   2.317  0.00  0.00    +0.029 A 
ATOM     11  H   UNL     1       1.674  -4.104   3.994  0.00  0.00    +0.161 HD
ENDROOT
BRANCH   7  12
ATOM     12  C   UNL     1       0.150  -5.954   2.482  0.00  0.00    +0.241 C 
ATOM     13  O   UNL     1      -0.683  -5.128   2.789  0.00  0.00    -0.273 OA
ATOM     14  N   UNL     1      -0.220  -7.226   2.235  0.00  0.00    -0.309 N 
ATOM     15  H   UNL     1       0.446  -7.887   1.990  0.00  0.00    +0.149 HD
BRANCH  14  16
ATOM     16  C   UNL     1      -1.630  -7.612   2.339  0.00  0.00    +0.139 C 
BRANCH  16  17
ATOM     17  C   UNL     1      -1.775  -9.076   2.016  0.00  0.00    -0.030 A 
ATOM     18  C   UNL     1      -1.995  -9.477   0.711  0.00  0.00    +0.009 A 
ATOM     19  C   UNL     1      -2.129 -10.819   0.413  0.00  0.00    +0.046 A 
ATOM     20  C   UNL     1      -2.042 -11.765   1.424  0.00  0.00    +0.121 A 
ATOM     21  C   UNL     1      -1.821 -11.361   2.733  0.00  0.00    +0.046 A 
ATOM     22  C   UNL     1      -1.683 -10.018   3.025  0.00  0.00    +0.009 A 
BRANCH  20  23
ATOM     23  O   UNL     1      -2.174 -13.086   1.133  0.00  0.00    -0.489 OA
BRANCH  23  24
ATOM     24  C   UNL     1      -2.514 -13.424  -0.213  0.00  0.00    +0.167 C 
ATOM     25  C   UNL     1      -1.245 -13.459  -1.066  0.00  0.00    +0.051 C 
ATOM     26  C   UNL     1      -3.185 -14.798  -0.240  0.00  0.00    +0.051 C 
ENDBRANCH  23  24
ENDBRANCH  20  23
ENDBRANCH  16  17
ENDBRANCH  14  16
ENDBRANCH   7  12
BRANCH   6  27
ATOM     27  S   UNL     1       1.918  -6.448  -0.305  0.00  0.00    -0.091 S 
BRANCH  27  28
ATOM     28  C   UNL     1       3.168  -7.616   0.117  0.00  0.00    +0.013 A 
ATOM     29  C   UNL     1       4.015  -7.372   1.191  0.00  0.00    +0.015 A 
ATOM     30  C   UNL     1       4.994  -8.289   1.518  0.00  0.00    +0.001 A 
ATOM     31  C   UNL     1       5.132  -9.450   0.778  0.00  0.00    +0.000 A 
ATOM     32  C   UNL     1       4.291  -9.695  -0.292  0.00  0.00    +0.001 A 
ATOM     33  C   UNL     1       3.306  -8.785  -0.621  0.00  0.00    +0.015 A 
ENDBRANCH  27  28
ENDBRANCH   6  27
TORSDOF 7
