REMARK  Name = ZINC08921169
REMARK  7 active torsions:
REMARK  status: ('A' for Active; 'I' for Inactive)
REMARK    1  A    between atoms: C_1  and  C_2
REMARK    2  A    between atoms: C_2  and  O_3
REMARK    3  A    between atoms: O_3  and  C_4
REMARK    4  A    between atoms: C_14  and  O_32
REMARK    5  A    between atoms: C_16  and  C_19
REMARK    6  A    between atoms: C_22  and  C_24
REMARK    7  A    between atoms: C_27  and  C_31
REMARK                            x       y       z     vdW  Elec       q    Type
REMARK                         _______ _______ _______ _____ _____    ______ ____
ROOT
ATOM      1  C   UNL     1      -6.810   1.619  -7.909  0.00  0.00    +0.403 C 
ATOM      2  O   UNL     1      -7.242   2.583  -8.509  0.00  0.00    -0.226 OA
ATOM      3  N   UNL     1      -5.958   1.792  -6.880  0.00  0.00    -0.262 N 
ATOM      4  C   UNL     1      -5.531   3.135  -6.459  0.00  0.00    +0.116 C 
ATOM      5  C   UNL     1      -6.036   3.413  -5.043  0.00  0.00    +0.056 C 
ATOM      6  C   UNL     1      -5.710   2.222  -4.150  0.00  0.00    -0.020 A 
ATOM      7  C   UNL     1      -5.444   1.005  -4.678  0.00  0.00    +0.013 A 
ATOM      8  S   UNL     1      -5.132  -0.043  -3.282  0.00  0.00    -0.076 S 
ATOM      9  C   UNL     1      -5.344   1.108  -2.034  0.00  0.00    +0.080 A 
ATOM     10  C   UNL     1      -5.663   2.298  -2.700  0.00  0.00    +0.068 A 
ATOM     11  C   UNL     1      -5.925   3.497  -1.862  0.00  0.00    +0.220 C 
ATOM     12  N   UNL     1      -5.606   3.433  -0.597  0.00  0.00    -0.220 NA
ATOM     13  C   UNL     1      -4.954   2.295   0.038  0.00  0.00    +0.260 C 
ATOM     14  N   UNL     1      -5.256   1.034  -0.665  0.00  0.00    -0.311 N 
ATOM     15  C   UNL     1      -5.417   0.640  -6.131  0.00  0.00    +0.153 C 
ATOM     16  H   UNL     1      -5.384   0.199  -0.187  0.00  0.00    +0.149 HD
ENDROOT
BRANCH  13  17
ATOM     17  C   UNL     1      -3.463   2.517   0.032  0.00  0.00    +0.148 A 
ATOM     18  C   UNL     1      -2.848   3.715   0.036  0.00  0.00    +0.049 A 
ATOM     19  C   UNL     1      -1.460   3.466   0.028  0.00  0.00    +0.050 A 
ATOM     20  C   UNL     1      -1.305   2.116   0.020  0.00  0.00    +0.135 A 
ATOM     21  O   UNL     1      -2.529   1.553   0.017  0.00  0.00    -0.456 OA
BRANCH  20  22
ATOM     22  C   UNL     1      -0.017   1.391   0.010  0.00  0.00    +0.019 A 
ATOM     23  C   UNL     1       1.186   2.100   0.002  0.00  0.00    +0.012 A 
ATOM     24  C   UNL     1       2.385   1.418  -0.013  0.00  0.00    +0.005 A 
ATOM     25  C   UNL     1       2.398   0.035  -0.020  0.00  0.00    -0.032 A 
ATOM     26  C   UNL     1       1.209  -0.675  -0.013  0.00  0.00    +0.045 A 
ATOM     27  C   UNL     1       0.002  -0.004   0.002  0.00  0.00    +0.031 A 
ATOM     28 CL   UNL     1       1.236  -2.410  -0.023  0.00  0.00    -0.083 Cl
ATOM     29  C   UNL     1       3.712  -0.703  -0.037  0.00  0.00    +0.045 C 
ENDBRANCH  20  22
ENDBRANCH  13  17
BRANCH  11  30
ATOM     30  O   UNL     1      -6.473   4.615  -2.391  0.00  0.00    -0.492 OA
ATOM     31  H   UNL     1      -6.598   5.332  -1.753  0.00  0.00    +0.294 HD
ENDBRANCH  11  30
BRANCH   1  32
ATOM     32  O   UNL     1      -7.184   0.378  -8.272  0.00  0.00    -0.451 OA
BRANCH  32  34
ATOM     33  C   UNL     1      -8.412  -1.209  -9.653  0.00  0.00    +0.048 C 
ATOM     34  C   UNL     1      -8.105   0.267  -9.389  0.00  0.00    +0.230 C 
ENDBRANCH  32  34
ENDBRANCH   1  32
TORSDOF 5
