REMARK  Name = ZINC14038013
REMARK  8 active torsions:
REMARK  status: ('A' for Active; 'I' for Inactive)
REMARK    1  A    between atoms: C_1  and  C_2
REMARK    2  A    between atoms: C_5  and  C_9
REMARK    3  A    between atoms: N_11  and  N_12
REMARK    4  A    between atoms: C_13  and  C_15
REMARK    5  A    between atoms: C_15  and  C_17
REMARK    6  A    between atoms: C_15  and  O_18
REMARK    7  A    between atoms: O_18  and  C_19
REMARK    8  A    between atoms: C_22  and  N_25
REMARK                            x       y       z     vdW  Elec       q    Type
REMARK                         _______ _______ _______ _____ _____    ______ ____
ROOT
ATOM      1  N   UNL     1       1.336   1.265   2.597  0.00  0.00    -0.231 N 
ATOM      2  C   UNL     1       0.067   0.885   2.346  0.00  0.00    +0.270 C 
ATOM      3  O   UNL     1      -0.432  -0.018   2.983  0.00  0.00    -0.270 OA
ATOM      4  H   UNL     1       1.736   1.987   2.088  0.00  0.00    +0.173 HD
ENDROOT
BRANCH   1   7
ATOM      5  C   UNL     1       3.346   0.997   3.845  0.00  0.00    +0.260 C 
ATOM      6  O   UNL     1       3.846   1.902   3.207  0.00  0.00    -0.269 OA
ATOM      7  N   UNL     1       2.077   0.617   3.594  0.00  0.00    -0.230 N 
ATOM      8  H   UNL     1       1.677  -0.106   4.103  0.00  0.00    +0.173 HD
BRANCH   5  13
ATOM      9  C   UNL     1       6.389  -1.669   7.938  0.00  0.00    +0.045 C 
ATOM     10  C   UNL     1       5.593  -0.971   6.866  0.00  0.00    -0.036 A 
ATOM     11  C   UNL     1       4.290  -1.362   6.610  0.00  0.00    +0.005 A 
ATOM     12  C   UNL     1       3.554  -0.724   5.635  0.00  0.00    +0.013 A 
ATOM     13  C   UNL     1       4.128   0.312   4.896  0.00  0.00    +0.039 A 
ATOM     14  C   UNL     1       5.441   0.704   5.159  0.00  0.00    +0.028 A 
ATOM     15  C   UNL     1       6.166   0.060   6.142  0.00  0.00    +0.021 A 
ATOM     16 BR   UNL     1       7.947   0.588   6.500  0.00  0.00    -0.050 Br
ENDBRANCH   5  13
ENDBRANCH   1   7
BRANCH   2  17
ATOM     17  C   UNL     1      -0.730   1.582   1.274  0.00  0.00    +0.257 C 
ATOM     18  C   UNL     1      -0.091   1.318  -0.091  0.00  0.00    +0.062 C 
BRANCH  17  19
ATOM     19  O   UNL     1      -2.070   1.085   1.277  0.00  0.00    -0.480 OA
BRANCH  19  20
ATOM     20  C   UNL     1      -3.033   1.903   0.779  0.00  0.00    +0.122 A 
ATOM     21  C   UNL     1      -2.684   3.115   0.201  0.00  0.00    +0.048 A 
ATOM     22  C   UNL     1      -3.665   3.944  -0.309  0.00  0.00    +0.036 A 
ATOM     23  C   UNL     1      -4.994   3.571  -0.234  0.00  0.00    +0.126 A 
ATOM     24  C   UNL     1      -5.345   2.365   0.345  0.00  0.00    +0.036 A 
ATOM     25  C   UNL     1      -4.367   1.531   0.852  0.00  0.00    +0.048 A 
BRANCH  23  26
ATOM     26  N   UNL     1      -6.044   4.463  -0.776  0.00  0.00    +0.056 N 
ATOM     27  O   UNL     1      -7.215   4.135  -0.711  0.00  0.00    -0.126 OA
ATOM     28  O   UNL     1      -5.736   5.525  -1.287  0.00  0.00    -0.126 OA
ENDBRANCH  23  26
ENDBRANCH  19  20
ENDBRANCH  17  19
ENDBRANCH   2  17
TORSDOF 6
