REMARK  Name = ZINC09965995
REMARK  11 active torsions:
REMARK  status: ('A' for Active; 'I' for Inactive)
REMARK    1  A    between atoms: C_1  and  C_2
REMARK    2  A    between atoms: C_5  and  N_9
REMARK    3  A    between atoms: C_6  and  C_8
REMARK    4  A    between atoms: C_18  and  S_19
REMARK    5  A    between atoms: S_19  and  C_20
REMARK    6  A    between atoms: C_20  and  C_22
REMARK    7  A    between atoms: C_20  and  C_23
REMARK    8  A    between atoms: N_25  and  C_26
REMARK    9  A    between atoms: C_26  and  C_27
REMARK   10  A    between atoms: C_26  and  C_28
REMARK   11  A    between atoms: C_26  and  C_29
REMARK                            x       y       z     vdW  Elec       q    Type
REMARK                         _______ _______ _______ _____ _____    ______ ____
ROOT
ATOM      1  N   UNL     1       0.803   1.711  -4.644  0.00  0.00    -0.255 N 
ATOM      2  C   UNL     1       0.725   1.477  -3.320  0.00  0.00    +0.268 A 
ATOM      3  O   UNL     1       1.676   1.011  -2.717  0.00  0.00    -0.267 OA
ATOM      4  C   UNL     1      -0.491   1.785  -2.633  0.00  0.00    +0.076 A 
ATOM      5  C   UNL     1      -0.791   1.612  -1.202  0.00  0.00    -0.023 A 
ATOM      6  C   UNL     1      -2.014   1.979  -0.789  0.00  0.00    -0.004 A 
ATOM      7  S   UNL     1      -2.837   2.567  -2.252  0.00  0.00    -0.073 S 
ATOM      8  C   UNL     1      -1.524   2.317  -3.417  0.00  0.00    +0.117 A 
ATOM      9  N   UNL     1      -1.385   2.524  -4.723  0.00  0.00    -0.215 NA
ATOM     10  C   UNL     1      -0.255   2.232  -5.334  0.00  0.00    +0.178 A 
ATOM     11  C   UNL     1      -2.206   1.760   0.688  0.00  0.00    +0.043 C 
ATOM     12  C   UNL     1      -0.772   1.602   1.246  0.00  0.00    +0.010 C 
ATOM     13  C   UNL     1      -0.013   1.086   0.008  0.00  0.00    +0.037 C 
ENDROOT
BRANCH   1  18
ATOM     14  C   UNL     1       5.609   0.504  -7.409  0.00  0.00    +0.044 C 
ATOM     15  C   UNL     1       4.333   0.824  -6.675  0.00  0.00    -0.050 A 
ATOM     16  C   UNL     1       3.345  -0.136  -6.556  0.00  0.00    +0.005 A 
ATOM     17  C   UNL     1       2.174   0.154  -5.884  0.00  0.00    +0.027 A 
ATOM     18  C   UNL     1       1.990   1.413  -5.326  0.00  0.00    +0.055 A 
ATOM     19  C   UNL     1       2.981   2.376  -5.450  0.00  0.00    -0.026 A 
ATOM     20  C   UNL     1       4.152   2.078  -6.120  0.00  0.00    +0.008 A 
ATOM     21  C   UNL     1       2.783   3.745  -4.851  0.00  0.00    +0.046 C 
ENDBRANCH   1  18
BRANCH  10  22
ATOM     22  S   UNL     1      -0.105   2.520  -7.066  0.00  0.00    -0.075 S 
BRANCH  22  23
ATOM     23  C   UNL     1      -1.750   3.189  -7.417  0.00  0.00    +0.137 C 
ATOM     24  C   UNL     1      -2.804   2.108  -7.167  0.00  0.00    +0.029 C 
BRANCH  23  25
ATOM     25  C   UNL     1      -1.816   3.631  -8.856  0.00  0.00    +0.227 C 
ATOM     26  O   UNL     1      -1.079   3.130  -9.679  0.00  0.00    -0.275 OA
ATOM     27  N   UNL     1      -2.694   4.583  -9.229  0.00  0.00    -0.310 N 
ATOM     28  H   UNL     1      -3.362   5.037  -8.483  0.00  0.00    +0.149 HD
BRANCH  27  29
ATOM     29  C   UNL     1      -2.758   5.013 -10.628  0.00  0.00    +0.026 C 
ATOM     30  C   UNL     1      -3.112   3.816 -11.514  0.00  0.00    +0.031 C 
ATOM     31  C   UNL     1      -3.829   6.095 -10.781  0.00  0.00    +0.031 C 
ATOM     32  C   UNL     1      -1.399   5.576 -11.052  0.00  0.00    +0.031 C 
ENDBRANCH  27  29
ENDBRANCH  23  25
ENDBRANCH  22  23
ENDBRANCH  10  22
TORSDOF 5
