REMARK  Name = ZINC40371962
REMARK  5 active torsions:
REMARK  status: ('A' for Active; 'I' for Inactive)
REMARK    1  A    between atoms: C_4  and  C_6
REMARK    2  A    between atoms: C_6  and  C_7
REMARK    3  A    between atoms: N_9  and  C_10
REMARK    4  A    between atoms: C_10  and  C_15
REMARK    5  A    between atoms: N_16  and  O_17
REMARK                            x       y       z     vdW  Elec       q    Type
REMARK                         _______ _______ _______ _____ _____    ______ ____
ROOT
ATOM      1  C   UNL     1      -0.278  -4.816  -2.083  0.00  0.00    +0.093 C 
ATOM      2  C   UNL     1       0.732  -5.516  -1.139  0.00  0.00    +0.033 C 
ATOM      3  C   UNL     1       1.766  -6.111  -2.127  0.00  0.00    +0.003 C 
ATOM      4  C   UNL     1       0.917  -6.587  -3.323  0.00  0.00    +0.003 C 
ATOM      5  C   UNL     1      -0.382  -5.764  -3.296  0.00  0.00    +0.033 C 
ENDROOT
BRANCH   1   6
ATOM      6  C   UNL     1      -1.618  -4.670  -1.410  0.00  0.00    +0.155 C 
ATOM      7  N   UNL     1      -2.196  -5.702  -0.890  0.00  0.00    -0.075 NA
ATOM      8  N   UNL     1      -2.228  -3.436  -1.350  0.00  0.00    -0.342 N 
ATOM      9  H   UNL     1      -1.835  -2.679  -1.812  0.00  0.00    +0.144 HD
ATOM     10  H   UNL     1      -3.049  -3.325  -0.846  0.00  0.00    +0.144 HD
BRANCH   7  11
ATOM     11  O   UNL     1      -1.631  -6.989  -1.059  0.00  0.00    -0.408 OA
ATOM     12  H   UNL     1      -2.134  -7.698  -0.634  0.00  0.00    +0.328 HD
ENDBRANCH   7  11
ENDBRANCH   1   6
BRANCH   1  15
ATOM     13  C   UNL     1       0.509  -2.567  -1.572  0.00  0.00    +0.214 C 
ATOM     14  O   UNL     1       0.251  -2.771  -0.405  0.00  0.00    -0.276 OA
ATOM     15  N   UNL     1       0.232  -3.507  -2.498  0.00  0.00    -0.303 N 
ATOM     16  H   UNL     1       0.370  -3.316  -3.439  0.00  0.00    +0.150 HD
BRANCH  13  17
ATOM     17  C   UNL     1       1.139  -1.263  -1.987  0.00  0.00    +0.099 C 
BRANCH  17  21
ATOM     18  C   UNL     1      -0.037   1.606  -0.259  0.00  0.00    +0.000 C 
ATOM     19  C   UNL     1       1.459   2.007  -0.268  0.00  0.00    +0.000 C 
ATOM     20  C   UNL     1       2.103   0.905  -1.145  0.00  0.00    +0.004 C 
ATOM     21  C   UNL     1       1.345  -0.381  -0.754  0.00  0.00    -0.002 C 
ATOM     22  C   UNL     1      -0.015   0.065  -0.191  0.00  0.00    +0.004 C 
ENDBRANCH  17  21
ENDBRANCH  13  17
ENDBRANCH   1  15
TORSDOF 5
