REMARK  Name = ZINC08419172
REMARK  8 active torsions:
REMARK  status: ('A' for Active; 'I' for Inactive)
REMARK    1  A    between atoms: C_1  and  C_2
REMARK    2  A    between atoms: C_7  and  N_12
REMARK    3  A    between atoms: C_9  and  C_11
REMARK    4  A    between atoms: N_12  and  C_13
REMARK    5  A    between atoms: C_13  and  N_15
REMARK    6  A    between atoms: N_15  and  N_16
REMARK    7  A    between atoms: C_17  and  C_19
REMARK    8  A    between atoms: C_19  and  C_20
REMARK                            x       y       z     vdW  Elec       q    Type
REMARK                         _______ _______ _______ _____ _____    ______ ____
ROOT
ATOM      1  N   UNL     1      -2.030   7.687   1.722  0.00  0.00    -0.235 N 
ATOM      2  C   UNL     1      -1.149   6.700   1.463  0.00  0.00    +0.233 C 
ATOM      3  O   UNL     1      -0.686   6.047   2.374  0.00  0.00    -0.274 OA
ATOM      4  H   UNL     1      -2.401   8.210   0.994  0.00  0.00    +0.173 HD
ENDROOT
BRANCH   1   5
ATOM      5  N   UNL     1      -2.410   7.958   3.043  0.00  0.00    -0.246 N 
ATOM      6  H   UNL     1      -2.039   7.436   3.771  0.00  0.00    +0.172 HD
BRANCH   5   7
ATOM      7  C   UNL     1      -3.291   8.945   3.302  0.00  0.00    +0.147 C 
ATOM      8  S   UNL     1      -3.755   9.276   4.916  0.00  0.00    -0.017 S 
BRANCH   7   9
ATOM      9  N   UNL     1      -3.806   9.671   2.290  0.00  0.00    -0.322 N 
ATOM     10  H   UNL     1      -3.543   9.483   1.375  0.00  0.00    +0.148 HD
BRANCH   9  16
ATOM     11  C   UNL     1      -7.517  12.337   0.403  0.00  0.00    +0.008 C 
ATOM     12  C   UNL     1      -6.640  12.101   1.635  0.00  0.00    -0.009 C 
ATOM     13  C   UNL     1      -5.882  13.385   1.975  0.00  0.00    +0.003 C 
ATOM     14  C   UNL     1      -5.005  13.148   3.206  0.00  0.00    +0.002 C 
ATOM     15  C   UNL     1      -4.005  12.028   2.912  0.00  0.00    +0.022 C 
ATOM     16  C   UNL     1      -4.763  10.744   2.572  0.00  0.00    +0.075 C 
ATOM     17  C   UNL     1      -5.641  10.980   1.341  0.00  0.00    +0.009 C 
ATOM     18  C   UNL     1      -4.759  11.381   0.156  0.00  0.00    +0.009 C 
ENDBRANCH   9  16
ENDBRANCH   7   9
ENDBRANCH   5   7
ENDBRANCH   1   5
BRANCH   2  19
ATOM     19  C   UNL     1      -0.741   6.409   0.042  0.00  0.00    +0.134 C 
BRANCH  19  20
ATOM     20  C   UNL     1       0.245   5.269   0.027  0.00  0.00    -0.014 A 
ATOM     21  C   UNL     1       1.583   5.371   0.015  0.00  0.00    +0.087 A 
ATOM     22  N   UNL     1       2.147   4.124   0.003  0.00  0.00    -0.360 N 
ATOM     23  H   UNL     1       3.099   3.943  -0.007  0.00  0.00    +0.165 HD
ATOM     24  C   UNL     1       1.159   3.165   0.007  0.00  0.00    +0.047 A 
ATOM     25  C   UNL     1      -0.075   3.840   0.022  0.00  0.00    +0.003 A 
ATOM     26  C   UNL     1      -1.267   3.112   0.030  0.00  0.00    +0.010 A 
ATOM     27  C   UNL     1      -1.228   1.746   0.017  0.00  0.00    +0.001 A 
ATOM     28  C   UNL     1      -0.013   1.076   0.008  0.00  0.00    +0.002 A 
ATOM     29  C   UNL     1       1.175   1.774   0.000  0.00  0.00    +0.026 A 
ENDBRANCH  19  20
ENDBRANCH   2  19
TORSDOF 6
