REMARK  Name = ZINC00573364
REMARK  2 active torsions:
REMARK  status: ('A' for Active; 'I' for Inactive)
REMARK    1  A    between atoms: C_3  and  N_19
REMARK    2  A    between atoms: C_6  and  C_7
REMARK                            x       y       z     vdW  Elec       q    Type
REMARK                         _______ _______ _______ _____ _____    ______ ____
ROOT
ATOM      1  C   UNL     1      -1.296   2.117   0.020  0.00  0.00    +0.021 C 
ATOM      2  C   UNL     1      -1.312   3.475   0.130  0.00  0.00    +0.046 C 
ATOM      3  C   UNL     1      -0.148   4.392   0.152  0.00  0.00    +0.008 A 
ATOM      4  C   UNL     1       1.225   4.189   0.075  0.00  0.00    +0.012 A 
ATOM      5  C   UNL     1       2.081   5.271   0.125  0.00  0.00    +0.021 A 
ATOM      6  C   UNL     1       1.572   6.553   0.251  0.00  0.00    +0.043 A 
ATOM      7  C   UNL     1       0.209   6.765   0.320  0.00  0.00    +0.044 A 
ATOM      8  C   UNL     1      -0.668   5.687   0.276  0.00  0.00    +0.043 A 
ATOM      9  N   UNL     1      -2.055   5.621   0.340  0.00  0.00    -0.281 N 
ATOM     10  C   UNL     1      -2.490   4.352   0.259  0.00  0.00    +0.249 C 
ATOM     11  O   UNL     1      -3.652   3.990   0.288  0.00  0.00    -0.270 OA
ATOM     12 CL   UNL     1       2.657   7.907   0.313  0.00  0.00    -0.083 Cl
ATOM     13  H   UNL     1      -2.635   6.393   0.432  0.00  0.00    +0.155 HD
ENDROOT
BRANCH   1  19
ATOM     14  C   UNL     1       0.771   1.919  -1.349  0.00  0.00    +0.010 A 
ATOM     15  C   UNL     1       1.937   1.258  -1.673  0.00  0.00    +0.033 A 
ATOM     16  C   UNL     1       2.296   0.107  -0.993  0.00  0.00    +0.126 A 
ATOM     17  C   UNL     1       1.491  -0.390   0.017  0.00  0.00    +0.033 A 
ATOM     18  C   UNL     1       0.322   0.258   0.354  0.00  0.00    +0.010 A 
ATOM     19  C   UNL     1      -0.050   1.423  -0.328  0.00  0.00    -0.024 A 
BRANCH  16  20
ATOM     20  N   UNL     1       3.550  -0.595  -1.348  0.00  0.00    +0.056 N 
ATOM     21  O   UNL     1       3.870  -1.608  -0.752  0.00  0.00    -0.126 OA
ATOM     22  O   UNL     1       4.261  -0.161  -2.236  0.00  0.00    -0.126 OA
ENDBRANCH  16  20
ENDBRANCH   1  19
TORSDOF 2
