REMARK  Name = ZINC67046886
REMARK  12 active torsions:
REMARK  status: ('A' for Active; 'I' for Inactive)
REMARK    1  A    between atoms: C_1  and  C_2
REMARK    2  A    between atoms: C_2  and  C_3
REMARK    3  A    between atoms: C_2  and  C_4
REMARK    4  A    between atoms: C_4  and  C_5
REMARK    5  A    between atoms: C_5  and  C_7
REMARK    6  A    between atoms: C_5  and  N_21
REMARK    7  A    between atoms: C_13  and  C_16
REMARK    8  A    between atoms: C_22  and  O_24
REMARK    9  A    between atoms: O_24  and  C_25
REMARK   10  A    between atoms: C_25  and  C_26
REMARK   11  A    between atoms: C_25  and  C_27
REMARK   12  A    between atoms: C_25  and  C_28
REMARK                            x       y       z     vdW  Elec       q    Type
REMARK                         _______ _______ _______ _____ _____    ______ ____
ROOT
ATOM      1  C   UNL     1      -1.414  -2.061  -0.121  0.00  0.00    +0.162 C 
ENDROOT
BRANCH   1   2
ATOM      2  C   UNL     1      -2.798  -2.600   0.134  0.00  0.00    +0.236 C 
ATOM      3  O   UNL     1      -3.480  -2.985  -0.792  0.00  0.00    -0.274 OA
ATOM      4  N   UNL     1      -3.278  -2.656   1.392  0.00  0.00    -0.299 N 
ATOM      5  C   UNL     1      -2.515  -2.087   2.511  0.00  0.00    +0.108 C 
ATOM      6  C   UNL     1      -2.346  -3.161   3.590  0.00  0.00    +0.020 C 
ATOM      7  C   UNL     1      -3.722  -3.706   3.981  0.00  0.00    +0.013 C 
ATOM      8  C   UNL     1      -4.384  -4.348   2.760  0.00  0.00    +0.062 C 
ATOM      9  C   UNL     1      -4.578  -3.282   1.670  0.00  0.00    +0.118 C 
BRANCH   8  10
ATOM     10  C   UNL     1      -5.725  -4.913   3.153  0.00  0.00    +0.083 A 
ATOM     11  N   UNL     1      -6.762  -4.281   3.644  0.00  0.00    -0.252 NA
ATOM     12  C   UNL     1      -7.876  -4.920   3.941  0.00  0.00    +0.119 A 
ATOM     13  C   UNL     1      -7.897  -6.259   3.717  0.00  0.00    +0.066 A 
ATOM     14  S   UNL     1      -6.254  -6.508   3.063  0.00  0.00    -0.080 S 
ENDBRANCH   8  10
ENDBRANCH   1   2
BRANCH   1  15
ATOM     15  N   UNL     1      -0.907  -2.597  -1.386  0.00  0.00    -0.270 N 
ATOM     16  C   UNL     1       0.422  -2.689  -1.594  0.00  0.00    +0.401 C 
ATOM     17  O   UNL     1       1.198  -2.327  -0.732  0.00  0.00    -0.226 OA
ATOM     18  H   UNL     1      -1.526  -2.886  -2.074  0.00  0.00    +0.153 HD
BRANCH  16  19
ATOM     19  O   UNL     1       0.888  -3.182  -2.757  0.00  0.00    -0.445 OA
BRANCH  19  20
ATOM     20  C   UNL     1       2.308  -3.251  -2.909  0.00  0.00    +0.107 C 
ATOM     21  C   UNL     1       2.895  -4.147  -1.817  0.00  0.00    +0.055 C 
ATOM     22  C   UNL     1       2.645  -3.833  -4.283  0.00  0.00    +0.055 C 
ATOM     23  C   UNL     1       2.902  -1.846  -2.790  0.00  0.00    +0.055 C 
ENDBRANCH  19  20
ENDBRANCH  16  19
ENDBRANCH   1  15
BRANCH   1  24
ATOM     24  C   UNL     1      -1.469  -0.534  -0.200  0.00  0.00    +0.035 C 
BRANCH  24  26
ATOM     25  C   UNL     1      -0.105   1.539  -0.494  0.00  0.00    +0.007 C 
ATOM     26  C   UNL     1      -0.047   0.024  -0.290  0.00  0.00    -0.015 C 
ATOM     27  C   UNL     1       0.706  -0.288   1.005  0.00  0.00    +0.007 C 
ENDBRANCH  24  26
ENDBRANCH   1  24
TORSDOF 7
