REMARK  Name = ZINC17177778
REMARK  4 active torsions:
REMARK  status: ('A' for Active; 'I' for Inactive)
REMARK    1  A    between atoms: C_5  and  C_7
REMARK    2  A    between atoms: C_7  and  S_8
REMARK    3  A    between atoms: S_8  and  C_9
REMARK    4  A    between atoms: C_16  and  C_26
REMARK                            x       y       z     vdW  Elec       q    Type
REMARK                         _______ _______ _______ _____ _____    ______ ____
ROOT
ATOM      1  C   UNL     1       1.275  -4.553   1.506  0.00  0.00    +0.194 A 
ATOM      2  N   UNL     1       1.290  -5.313   2.594  0.00  0.00    -0.206 NA
ATOM      3  C   UNL     1       1.307  -6.637   2.491  0.00  0.00    +0.135 A 
ATOM      4  C   UNL     1       1.312  -7.223   1.231  0.00  0.00    +0.071 A 
ATOM      5  C   UNL     1       1.294  -6.396   0.114  0.00  0.00    +0.280 A 
ATOM      6  N   UNL     1       1.270  -5.078   0.290  0.00  0.00    -0.183 NA
ATOM      7  O   UNL     1       1.295  -6.925  -1.134  0.00  0.00    -0.265 OA
ATOM      8  C   UNL     1       1.341  -8.713   1.080  0.00  0.00    +0.093 C 
ATOM      9  C   UNL     1       0.929  -9.402   2.357  0.00  0.00    +0.024 C 
ATOM     10  C   UNL     1       0.530 -10.748   2.274  0.00  0.00    +0.162 C 
ATOM     11  C   UNL     1       0.089 -11.509   3.494  0.00  0.00    +0.080 C 
ATOM     12  C   UNL     1      -0.507 -10.526   4.507  0.00  0.00    +0.014 C 
ATOM     13  C   UNL     1       0.542  -9.456   4.815  0.00  0.00    +0.051 C 
ATOM     14  C   UNL     1       0.942  -8.753   3.540  0.00  0.00    +0.017 C 
ATOM     15  N   UNL     1       1.314  -7.439   3.619  0.00  0.00    -0.302 N 
ATOM     16  O   UNL     1       0.540 -11.307   1.195  0.00  0.00    -0.292 OA
ATOM     17  H   UNL     1       1.585  -7.066   4.473  0.00  0.00    +0.153 HD
ENDROOT
BRANCH   8  18
ATOM     18  C   UNL     1       2.738  -9.145   0.716  0.00  0.00    -0.032 A 
ATOM     19  C   UNL     1       3.790  -8.875   1.571  0.00  0.00    +0.005 A 
ATOM     20  C   UNL     1       5.072  -9.271   1.239  0.00  0.00    +0.003 A 
ATOM     21  C   UNL     1       5.304  -9.936   0.050  0.00  0.00    +0.038 A 
ATOM     22  C   UNL     1       4.252 -10.207  -0.807  0.00  0.00    +0.124 A 
ATOM     23  C   UNL     1       2.967  -9.816  -0.470  0.00  0.00    +0.043 A 
ATOM     24  F   UNL     1       4.477 -10.858  -1.970  0.00  0.00    -0.205 F 
ENDBRANCH   8  18
BRANCH   1  25
ATOM     25  S   UNL     1       1.253  -2.800   1.685  0.00  0.00    -0.081 S 
BRANCH  25  26
ATOM     26  C   UNL     1       1.228  -2.186  -0.022  0.00  0.00    +0.115 C 
BRANCH  26  31
ATOM     27  C   UNL     1      -0.017   1.378   0.010  0.00  0.00    +0.000 A 
ATOM     28  C   UNL     1       1.171   2.087   0.002  0.00  0.00    +0.003 A 
ATOM     29  C   UNL     1       2.377   1.414  -0.013  0.00  0.00    +0.038 A 
ATOM     30  C   UNL     1       2.397   0.029  -0.021  0.00  0.00    +0.127 A 
ATOM     31  C   UNL     1       1.208  -0.679  -0.013  0.00  0.00    -0.002 A 
ATOM     32  C   UNL     1       0.002  -0.004   0.002  0.00  0.00    +0.007 A 
ATOM     33  F   UNL     1       3.577  -0.630  -0.036  0.00  0.00    -0.205 F 
ENDBRANCH  26  31
ENDBRANCH  25  26
ENDBRANCH   1  25
TORSDOF 4
