REMARK  Name = ZINC52905461
REMARK  5 active torsions:
REMARK  status: ('A' for Active; 'I' for Inactive)
REMARK    1  A    between atoms: C_4  and  N_7
REMARK    2  A    between atoms: C_8  and  S_12
REMARK    3  A    between atoms: S_12  and  C_13
REMARK    4  A    between atoms: C_18  and  C_19
REMARK    5  A    between atoms: C_19  and  N_20
REMARK                            x       y       z     vdW  Elec       q    Type
REMARK                         _______ _______ _______ _____ _____    ______ ____
ROOT
ATOM      1  S   UNL     1       2.827  -2.819   1.541  0.00  0.00    -0.048 S 
ENDROOT
BRANCH   1   2
ATOM      2  C   UNL     1       3.930  -4.120   1.982  0.00  0.00    +0.018 A 
ATOM      3  C   UNL     1       5.266  -4.060   1.602  0.00  0.00    +0.015 A 
ATOM      4  C   UNL     1       6.128  -5.080   1.950  0.00  0.00    +0.003 A 
ATOM      5  C   UNL     1       5.665  -6.162   2.676  0.00  0.00    +0.020 A 
ATOM      6  C   UNL     1       4.336  -6.226   3.057  0.00  0.00    +0.043 A 
ATOM      7  C   UNL     1       3.469  -5.205   2.717  0.00  0.00    -0.033 A 
ATOM      8 CL   UNL     1       3.760  -7.586   3.969  0.00  0.00    -0.083 Cl
BRANCH   7   9
ATOM      9  C   UNL     1       2.023  -5.271   3.137  0.00  0.00    -0.048 C 
BRANCH   9  10
ATOM     10  N   UNL     1       1.242  -5.956   2.098  0.00  0.00    +0.381 N 
ATOM     11  H   UNL     1       0.275  -6.001   2.380  0.00  0.00    -0.090 HD
ATOM     12  H   UNL     1       1.317  -5.447   1.230  0.00  0.00    -0.090 HD
ATOM     13  H   UNL     1       1.599  -6.892   1.971  0.00  0.00    -0.090 HD
ENDBRANCH   9  10
ENDBRANCH   7   9
ENDBRANCH   1   2
BRANCH   1  15
ATOM     14  N   UNL     1       1.784  -0.853   3.233  0.00  0.00    -0.187 N 
ATOM     15  C   UNL     1       2.626  -1.905   3.034  0.00  0.00    +0.219 A 
ATOM     16  N   UNL     1       3.260  -2.110   4.168  0.00  0.00    -0.101 NA
ATOM     17  N   UNL     1       2.877  -1.266   5.057  0.00  0.00    -0.022 NA
ATOM     18  N   UNL     1       1.990  -0.467   4.569  0.00  0.00    -0.038 NA
BRANCH  14  22
ATOM     19  C   UNL     1      -0.823   0.867   0.472  0.00  0.00    +0.000 A 
ATOM     20  C   UNL     1      -1.178   0.799   1.807  0.00  0.00    +0.002 A 
ATOM     21  C   UNL     1      -0.316   0.230   2.724  0.00  0.00    +0.028 A 
ATOM     22  C   UNL     1       0.907  -0.275   2.304  0.00  0.00    +0.070 A 
ATOM     23  C   UNL     1       1.260  -0.206   0.964  0.00  0.00    +0.028 A 
ATOM     24  C   UNL     1       0.395   0.365   0.051  0.00  0.00    +0.002 A 
ENDBRANCH  14  22
ENDBRANCH   1  15
TORSDOF 5
