REMARK  Name = ZINC13498828
REMARK  19 active torsions:
REMARK  status: ('A' for Active; 'I' for Inactive)
REMARK    1  A    between atoms: C_1  and  C_2
REMARK    2  A    between atoms: C_2  and  C_3
REMARK    3  A    between atoms: C_3  and  C_4
REMARK    4  A    between atoms: C_3  and  C_5
REMARK    5  A    between atoms: C_3  and  N_6
REMARK    6  A    between atoms: C_7  and  C_11
REMARK    7  A    between atoms: C_11  and  C_13
REMARK    8  A    between atoms: C_11  and  N_16
REMARK    9  A    between atoms: C_13  and  C_14
REMARK   10  A    between atoms: C_13  and  C_15
REMARK   11  A    between atoms: N_16  and  C_17
REMARK   12  A    between atoms: N_16  and  C_25
REMARK   13  A    between atoms: C_17  and  C_18
REMARK   14  A    between atoms: C_21  and  C_24
REMARK   15  A    between atoms: C_25  and  C_26
REMARK   16  A    between atoms: C_30  and  O_40
REMARK   17  A    between atoms: C_31  and  O_38
REMARK   18  A    between atoms: O_38  and  C_39
REMARK   19  A    between atoms: O_40  and  C_41
REMARK                            x       y       z     vdW  Elec       q    Type
REMARK                         _______ _______ _______ _____ _____    ______ ____
ROOT
ATOM      1  N   UNL     1       0.592   0.235   4.774  0.00  0.00    +0.392 N 
ATOM      2  H   UNL     1       0.617   0.352   5.867  0.00  0.00    -0.080 HD
ENDROOT
BRANCH   1   3
ATOM      3  C   UNL     1      -0.426   1.152   4.244  0.00  0.00    +0.006 C 
BRANCH   3   5
ATOM      4  N   UNL     1      -2.711   0.294   3.503  0.00  0.00    -0.225 N 
ATOM      5  C   UNL     1      -1.795   0.559   4.454  0.00  0.00    +0.139 A 
ATOM      6  N   UNL     1      -2.327   0.203   5.598  0.00  0.00    -0.115 NA
ATOM      7  N   UNL     1      -3.504  -0.264   5.361  0.00  0.00    -0.023 NA
ATOM      8  N   UNL     1      -3.739  -0.210   4.097  0.00  0.00    -0.043 NA
BRANCH   4   9
ATOM      9  C   UNL     1      -2.564   0.530   2.065  0.00  0.00    +0.061 C 
ATOM     10  C   UNL     1      -1.422  -0.331   1.521  0.00  0.00    +0.036 C 
ATOM     11  C   UNL     1      -2.251   2.007   1.819  0.00  0.00    +0.036 C 
BRANCH   9  13
ATOM     12  C   UNL     1      -3.713   0.404  -0.150  0.00  0.00    +0.006 C 
ATOM     13  C   UNL     1      -3.866   0.159   1.352  0.00  0.00    +0.026 C 
ENDBRANCH   9  13
ENDBRANCH   4   9
ENDBRANCH   3   5
BRANCH   3  14
ATOM     14  C   UNL     1      -0.334   2.493   4.976  0.00  0.00    -0.024 C 
ATOM     15  C   UNL     1      -1.423   3.433   4.456  0.00  0.00    +0.006 C 
ATOM     16  C   UNL     1      -0.526   2.269   6.477  0.00  0.00    +0.006 C 
ENDBRANCH   3  14
ENDBRANCH   1   3
BRANCH   1  17
ATOM     17  C   UNL     1       0.247  -1.162   4.477  0.00  0.00    -0.042 C 
BRANCH  17  18
ATOM     18  C   UNL     1       1.073  -2.078   5.342  0.00  0.00    -0.064 A 
ATOM     19  C   UNL     1       2.254  -2.609   4.856  0.00  0.00    +0.002 A 
ATOM     20  C   UNL     1       3.014  -3.446   5.651  0.00  0.00    +0.003 A 
ATOM     21  C   UNL     1       2.589  -3.760   6.929  0.00  0.00    -0.050 A 
ATOM     22  C   UNL     1       1.407  -3.232   7.413  0.00  0.00    +0.003 A 
ATOM     23  C   UNL     1       0.648  -2.392   6.620  0.00  0.00    +0.002 A 
ATOM     24  C   UNL     1       3.416  -4.676   7.794  0.00  0.00    +0.044 C 
ENDBRANCH  17  18
ENDBRANCH   1  17
BRANCH   1  25
ATOM     25  C   UNL     1       1.924   0.570   4.253  0.00  0.00    -0.036 C 
BRANCH  25  26
ATOM     26  C   UNL     1       2.444   1.797   4.957  0.00  0.00    +0.001 A 
ATOM     27  C   UNL     1       2.597   1.790   6.305  0.00  0.00    +0.017 A 
ATOM     28  C   UNL     1       3.109   2.994   6.958  0.00  0.00    +0.002 A 
ATOM     29  C   UNL     1       3.291   3.041   8.346  0.00  0.00    +0.059 A 
ATOM     30  C   UNL     1       3.770   4.192   8.932  0.00  0.00    +0.162 A 
ATOM     31  C   UNL     1       4.072   5.310   8.147  0.00  0.00    +0.163 A 
ATOM     32  C   UNL     1       3.896   5.274   6.776  0.00  0.00    +0.075 A 
ATOM     33  C   UNL     1       3.414   4.120   6.169  0.00  0.00    +0.053 A 
ATOM     34  N   UNL     1       3.230   4.064   4.802  0.00  0.00    -0.322 N 
ATOM     35  H   UNL     1       3.466   4.940   4.179  0.00  0.00    +0.169 HD
ATOM     36  C   UNL     1       2.764   2.950   4.212  0.00  0.00    +0.251 A 
ATOM     37  O   UNL     1       2.615   2.937   3.002  0.00  0.00    -0.268 OA
BRANCH  31  38
ATOM     38  O   UNL     1       4.543   6.439   8.736  0.00  0.00    -0.491 OA
ATOM     39  C   UNL     1       4.832   7.546   7.879  0.00  0.00    +0.277 C 
ENDBRANCH  31  38
BRANCH  30  40
ATOM     40  O   UNL     1       3.948   4.242  10.279  0.00  0.00    -0.491 OA
ATOM     41  C   UNL     1       3.620   3.067  11.022  0.00  0.00    +0.277 C 
ENDBRANCH  30  40
ENDBRANCH  25  26
ENDBRANCH   1  25
TORSDOF 11
