REMARK  Name = ZINC36607215
REMARK  15 active torsions:
REMARK  status: ('A' for Active; 'I' for Inactive)
REMARK    1  A    between atoms: C_1  and  C_2
REMARK    2  A    between atoms: C_2  and  C_3
REMARK    3  A    between atoms: C_3  and  C_4
REMARK    4  A    between atoms: C_5  and  C_6
REMARK    5  A    between atoms: C_6  and  C_8
REMARK    6  A    between atoms: C_6  and  N_22
REMARK    7  A    between atoms: N_10  and  C_11
REMARK    8  A    between atoms: C_11  and  S_12
REMARK    9  A    between atoms: S_12  and  C_15
REMARK   10  A    between atoms: C_18  and  C_21
REMARK   11  A    between atoms: N_22  and  C_23
REMARK   12  A    between atoms: C_29  and  C_31
REMARK   13  A    between atoms: C_31  and  C_33
REMARK   14  A    between atoms: C_31  and  C_35
REMARK   15  A    between atoms: C_33  and  C_34
REMARK                            x       y       z     vdW  Elec       q    Type
REMARK                         _______ _______ _______ _____ _____    ______ ____
ROOT
ATOM      1  C   UNL     1       0.086  -4.289  -2.148  0.00  0.00    +0.190 C 
ENDROOT
BRANCH   1   2
ATOM      2  C   UNL     1      -1.317  -4.838  -2.181  0.00  0.00    +0.239 C 
ATOM      3  O   UNL     1      -1.722  -5.520  -1.263  0.00  0.00    -0.273 OA
ATOM      4  N   UNL     1      -2.120  -4.572  -3.230  0.00  0.00    -0.294 N 
ATOM      5  H   UNL     1      -1.796  -4.027  -3.963  0.00  0.00    +0.150 HD
BRANCH   4   6
ATOM      6  C   UNL     1      -3.484  -5.106  -3.261  0.00  0.00    +0.278 C 
BRANCH   6   7
ATOM      7  S   UNL     1      -4.636  -3.861  -2.617  0.00  0.00    +0.013 S 
ATOM      8  O   UNL     1      -5.971  -4.340  -2.700  0.00  0.00    -0.168 OA
ATOM      9  O   UNL     1      -4.137  -3.313  -1.405  0.00  0.00    -0.168 OA
BRANCH   7  10
ATOM     10  C   UNL     1      -4.562  -2.534  -3.775  0.00  0.00    +0.090 A 
ATOM     11  C   UNL     1      -3.639  -1.519  -3.603  0.00  0.00    +0.027 A 
ATOM     12  C   UNL     1      -3.581  -0.478  -4.511  0.00  0.00    +0.005 A 
ATOM     13  C   UNL     1      -4.445  -0.453  -5.590  0.00  0.00    -0.050 A 
ATOM     14  C   UNL     1      -5.367  -1.469  -5.762  0.00  0.00    +0.005 A 
ATOM     15  C   UNL     1      -5.422  -2.512  -4.856  0.00  0.00    +0.027 A 
ATOM     16  C   UNL     1      -4.382   0.682  -6.579  0.00  0.00    +0.044 C 
ENDBRANCH   7  10
ENDBRANCH   6   7
ENDBRANCH   4   6
ENDBRANCH   1   2
BRANCH   1  17
ATOM     17  N   UNL     1       0.750  -4.717  -0.914  0.00  0.00    -0.255 N 
ATOM     18  C   UNL     1       1.842  -5.504  -0.974  0.00  0.00    +0.228 C 
ATOM     19  O   UNL     1       2.330  -5.941   0.047  0.00  0.00    -0.275 OA
BRANCH  17  20
ATOM     20  C   UNL     1       0.249  -4.307   0.327  0.00  0.00    +0.037 A 
ATOM     21  C   UNL     1      -0.963  -3.633   0.401  0.00  0.00    +0.023 A 
ATOM     22  C   UNL     1      -1.454  -3.231   1.627  0.00  0.00    +0.002 A 
ATOM     23  C   UNL     1      -0.741  -3.499   2.781  0.00  0.00    +0.000 A 
ATOM     24  C   UNL     1       0.466  -4.170   2.711  0.00  0.00    +0.002 A 
ATOM     25  C   UNL     1       0.960  -4.580   1.488  0.00  0.00    +0.023 A 
ENDBRANCH  17  20
BRANCH  18  26
ATOM     26  C   UNL     1       2.456  -5.841  -2.308  0.00  0.00    +0.105 C 
BRANCH  26  27
ATOM     27  C   UNL     1       3.604  -6.796  -2.106  0.00  0.00    -0.036 A 
ATOM     28  C   UNL     1       4.680  -6.427  -1.321  0.00  0.00    +0.004 A 
ATOM     29  C   UNL     1       5.734  -7.303  -1.136  0.00  0.00    +0.000 A 
ATOM     30  C   UNL     1       5.710  -8.548  -1.735  0.00  0.00    +0.000 A 
ATOM     31  C   UNL     1       4.633  -8.918  -2.519  0.00  0.00    +0.000 A 
ATOM     32  C   UNL     1       3.578  -8.043  -2.701  0.00  0.00    +0.004 A 
ENDBRANCH  26  27
BRANCH  26  33
ATOM     33  C   UNL     1       2.968  -4.561  -2.971  0.00  0.00    +0.014 C 
ATOM     34  C   UNL     1       3.473  -4.883  -4.379  0.00  0.00    +0.005 C 
ENDBRANCH  26  33
ENDBRANCH  18  26
ENDBRANCH   1  17
BRANCH   1  36
ATOM     35  C   UNL     1       0.634  -2.079  -1.268  0.00  0.00    -0.029 C 
ATOM     36  C   UNL     1       0.038  -2.784  -2.197  0.00  0.00    +0.001 C 
BRANCH  35  37
ATOM     37  C   UNL     1       0.585  -0.573  -1.317  0.00  0.00    +0.027 C 
BRANCH  37  39
ATOM     38  C   UNL     1      -0.021   1.490  -0.045  0.00  0.00    +0.004 C 
ATOM     39  C   UNL     1       0.028  -0.038   0.004  0.00  0.00    +0.001 C 
ENDBRANCH  37  39
ENDBRANCH  35  37
ENDBRANCH   1  36
TORSDOF 12
