REMARK  Name = ZINC12377192
REMARK  3 active torsions:
REMARK  status: ('A' for Active; 'I' for Inactive)
REMARK    1  A    between atoms: N_8  and  C_9
REMARK    2  A    between atoms: C_12  and  S_15
REMARK    3  A    between atoms: S_15  and  N_18
REMARK                            x       y       z     vdW  Elec       q    Type
REMARK                         _______ _______ _______ _____ _____    ______ ____
ROOT
ATOM      1  C   UNL     1      -0.585  -3.048  -0.020  0.00  0.00    +0.065 A 
ATOM      2  C   UNL     1      -1.225  -2.108   0.799  0.00  0.00    +0.029 A 
ATOM      3  C   UNL     1      -2.600  -2.020   0.795  0.00  0.00    +0.030 A 
ATOM      4  C   UNL     1      -3.349  -2.857  -0.016  0.00  0.00    +0.106 A 
ATOM      5  C   UNL     1      -2.725  -3.788  -0.828  0.00  0.00    +0.030 A 
ATOM      6  C   UNL     1      -1.350  -3.886  -0.841  0.00  0.00    +0.029 A 
ENDROOT
BRANCH   1  14
ATOM      7  C   UNL     1      -0.745  -4.782   3.982  0.00  0.00    +0.001 A 
ATOM      8  C   UNL     1       0.310  -5.074   4.829  0.00  0.00    +0.002 A 
ATOM      9  C   UNL     1       1.614  -4.863   4.428  0.00  0.00    +0.024 A 
ATOM     10  C   UNL     1       1.881  -4.353   3.162  0.00  0.00    +0.043 A 
ATOM     11  C   UNL     1       0.810  -4.059   2.307  0.00  0.00    +0.027 A 
ATOM     12  C   UNL     1      -0.501  -4.275   2.722  0.00  0.00    +0.012 A 
ATOM     13  C   UNL     1       1.403  -3.541   1.055  0.00  0.00    +0.135 C 
ATOM     14  N   UNL     1       0.771  -3.141  -0.022  0.00  0.00    -0.242 NA
ATOM     15  C   UNL     1       2.870  -3.572   1.285  0.00  0.00    +0.267 C 
ATOM     16  O   UNL     1       3.727  -3.225   0.496  0.00  0.00    -0.268 OA
ATOM     17  N   UNL     1       3.080  -4.052   2.523  0.00  0.00    -0.280 N 
ATOM     18  H   UNL     1       3.957  -4.172   2.921  0.00  0.00    +0.155 HD
ENDBRANCH   1  14
BRANCH   4  19
ATOM     19  S   UNL     1      -5.107  -2.735  -0.013  0.00  0.00    +0.061 S 
ATOM     20  O   UNL     1      -5.602  -3.994  -0.448  0.00  0.00    -0.153 OA
ATOM     21  O   UNL     1      -5.473  -2.162   1.234  0.00  0.00    -0.153 OA
BRANCH  19  22
ATOM     22  N   UNL     1      -5.523  -1.635  -1.179  0.00  0.00    -0.177 NA
ATOM     23  C   UNL     1      -5.626  -0.241  -0.811  0.00  0.00    +0.109 C 
ATOM     24  C   UNL     1      -7.068   0.066  -0.337  0.00  0.00    +0.017 C 
ATOM     25  C   UNL     1      -7.997   0.044  -1.478  0.00  0.00    +0.001 C 
ATOM     26  C   UNL     1      -8.108  -1.311  -2.171  0.00  0.00    +0.001 C 
ATOM     27  C   UNL     1      -7.002  -1.444  -3.189  0.00  0.00    +0.017 C 
ATOM     28  C   UNL     1      -5.769  -2.118  -2.552  0.00  0.00    +0.109 C 
ENDBRANCH  19  22
ENDBRANCH   4  19
TORSDOF 3
