REMARK  Name = ZINC48418017
REMARK  6 active torsions:
REMARK  status: ('A' for Active; 'I' for Inactive)
REMARK    1  A    between atoms: C_1  and  C_2
REMARK    2  A    between atoms: C_3  and  N_9
REMARK    3  A    between atoms: C_4  and  C_8
REMARK    4  A    between atoms: C_10  and  C_12
REMARK    5  A    between atoms: C_12  and  N_13
REMARK    6  A    between atoms: C_21  and  C_23
REMARK                            x       y       z     vdW  Elec       q    Type
REMARK                         _______ _______ _______ _____ _____    ______ ____
ROOT
ATOM      1  N   UNL     1      -0.056  -0.145  -2.373  0.00  0.00    -0.281 N 
ATOM      2  C   UNL     1       0.353  -0.879  -3.427  0.00  0.00    +0.235 C 
ATOM      3  O   UNL     1       0.670  -2.040  -3.271  0.00  0.00    -0.274 OA
ATOM      4  H   UNL     1      -0.381   0.759  -2.509  0.00  0.00    +0.155 HD
ENDROOT
BRANCH   1   7
ATOM      5  C   UNL     1       2.046   0.576  -0.244  0.00  0.00    +0.067 C 
ATOM      6  C   UNL     1       0.900  -0.394  -0.115  0.00  0.00    +0.054 A 
ATOM      7  C   UNL     1      -0.011  -0.690  -1.076  0.00  0.00    +0.077 A 
ATOM      8  C   UNL     1      -0.902  -1.636  -0.547  0.00  0.00    +0.081 A 
ATOM      9  N   UNL     1      -0.541  -1.897   0.683  0.00  0.00    -0.177 NA
ATOM     10  N   UNL     1       0.595  -1.134   0.982  0.00  0.00    -0.280 N 
ATOM     11  H   UNL     1       1.077  -1.133   1.823  0.00  0.00    +0.189 HD
ATOM     12  C   UNL     1      -2.074  -2.246  -1.271  0.00  0.00    +0.069 C 
ENDBRANCH   1   7
BRANCH   2  13
ATOM     13  C   UNL     1       0.417  -0.259  -4.799  0.00  0.00    +0.201 C 
BRANCH  13  14
ATOM     14  N   UNL     1       0.888  -1.255  -5.764  0.00  0.00    -0.318 N 
ATOM     15  C   UNL     1       2.226  -1.481  -6.091  0.00  0.00    +0.034 A 
ATOM     16  C   UNL     1       3.375  -0.851  -5.606  0.00  0.00    +0.023 A 
ATOM     17  C   UNL     1       4.619  -1.227  -6.064  0.00  0.00    +0.002 A 
ATOM     18  C   UNL     1       4.740  -2.231  -7.007  0.00  0.00    +0.000 A 
ATOM     19  C   UNL     1       3.608  -2.860  -7.491  0.00  0.00    +0.005 A 
ATOM     20  C   UNL     1       2.359  -2.487  -7.035  0.00  0.00    -0.025 A 
ATOM     21  C   UNL     1       0.980  -2.998  -7.390  0.00  0.00    +0.059 C 
ATOM     22  C   UNL     1       0.024  -2.163  -6.522  0.00  0.00    +0.075 C 
ATOM     23  C   UNL     1      -0.934  -1.367  -7.410  0.00  0.00    +0.028 C 
ENDBRANCH  13  14
ENDBRANCH   2  13
TORSDOF 3
