REMARK  Name = ZINC14271593
REMARK  12 active torsions:
REMARK  status: ('A' for Active; 'I' for Inactive)
REMARK    1  A    between atoms: C_1  and  C_2
REMARK    2  A    between atoms: C_6  and  C_10
REMARK    3  A    between atoms: C_7  and  O_8
REMARK    4  A    between atoms: O_8  and  C_9
REMARK    5  A    between atoms: N_12  and  C_13
REMARK    6  A    between atoms: C_13  and  N_15
REMARK    7  A    between atoms: N_15  and  C_16
REMARK    8  A    between atoms: C_17  and  C_30
REMARK    9  A    between atoms: C_22  and  C_26
REMARK   10  A    between atoms: C_26  and  C_27
REMARK   11  A    between atoms: C_26  and  C_28
REMARK   12  A    between atoms: C_26  and  C_29
REMARK                            x       y       z     vdW  Elec       q    Type
REMARK                         _______ _______ _______ _____ _____    ______ ____
ROOT
ATOM      1  C   UNL     1      -1.865  -1.129   1.201  0.00  0.00    +0.084 A 
ATOM      2  C   UNL     1      -1.257  -0.754   0.010  0.00  0.00    +0.068 A 
ATOM      3  C   UNL     1      -1.919  -1.128  -1.228  0.00  0.00    -0.023 A 
ATOM      4  C   UNL     1      -3.069  -1.822  -1.079  0.00  0.00    -0.004 A 
ATOM      5  S   UNL     1      -3.285  -1.969   0.672  0.00  0.00    -0.077 S 
ATOM      6  C   UNL     1      -3.958  -2.342  -2.166  0.00  0.00    +0.046 C 
ATOM      7  C   UNL     1      -3.178  -2.303  -3.489  0.00  0.00    -0.000 C 
ATOM      8  C   UNL     1      -2.513  -0.931  -3.629  0.00  0.00    +0.009 C 
ATOM      9  C   UNL     1      -1.377  -0.797  -2.613  0.00  0.00    +0.037 C 
ENDROOT
BRANCH   2  10
ATOM     10  C   UNL     1       0.002  -0.004   0.002  0.00  0.00    +0.244 C 
ATOM     11  O   UNL     1       1.064  -0.598  -0.011  0.00  0.00    -0.270 OA
ATOM     12  N   UNL     1      -0.016   1.344   0.009  0.00  0.00    -0.325 N 
ATOM     13  H   UNL     1       0.817   1.840   0.004  0.00  0.00    +0.145 HD
ATOM     14  H   UNL     1      -0.863   1.817   0.016  0.00  0.00    +0.145 HD
ENDBRANCH   2  10
BRANCH   7  15
ATOM     15  C   UNL     1      -4.139  -2.530  -4.658  0.00  0.00    -0.035 C 
ATOM     16  C   UNL     1      -5.204  -1.431  -4.663  0.00  0.00    +0.011 C 
ATOM     17  C   UNL     1      -3.359  -2.491  -5.973  0.00  0.00    +0.011 C 
ATOM     18  C   UNL     1      -4.814  -3.894  -4.505  0.00  0.00    +0.011 C 
ENDBRANCH   7  15
BRANCH   1  19
ATOM     19  N   UNL     1      -1.438  -0.889   2.497  0.00  0.00    -0.291 N 
ATOM     20  H   UNL     1      -0.615  -0.401   2.655  0.00  0.00    +0.154 HD
BRANCH  19  21
ATOM     21  C   UNL     1      -2.168  -1.334   3.539  0.00  0.00    +0.141 C 
ATOM     22  S   UNL     1      -3.621  -2.196   3.261  0.00  0.00    -0.018 S 
BRANCH  21  25
ATOM     23  C   UNL     1      -2.483  -1.546   5.843  0.00  0.00    +0.253 C 
ATOM     24  O   UNL     1      -3.514  -2.158   5.645  0.00  0.00    -0.270 OA
ATOM     25  N   UNL     1      -1.753  -1.101   4.800  0.00  0.00    -0.263 N 
ATOM     26  H   UNL     1      -0.930  -0.613   4.958  0.00  0.00    +0.157 HD
BRANCH  23  32
ATOM     27  C   UNL     1      -3.156  -2.001  10.776  0.00  0.00    +0.047 C 
ATOM     28  C   UNL     1      -2.349  -1.508   9.603  0.00  0.00    -0.008 A 
ATOM     29  C   UNL     1      -1.175  -0.812   9.817  0.00  0.00    +0.007 A 
ATOM     30  C   UNL     1      -0.426  -0.355   8.746  0.00  0.00    +0.001 A 
ATOM     31  C   UNL     1      -0.841  -0.594   7.454  0.00  0.00    +0.017 A 
ATOM     32  C   UNL     1      -2.029  -1.292   7.222  0.00  0.00    +0.079 A 
ATOM     33  C   UNL     1      -2.785  -1.753   8.310  0.00  0.00    +0.135 A 
BRANCH  33  34
ATOM     34  O   UNL     1      -3.937  -2.436   8.098  0.00  0.00    -0.494 OA
ATOM     35  C   UNL     1      -3.837  -3.857   7.984  0.00  0.00    +0.277 C 
ENDBRANCH  33  34
ENDBRANCH  23  32
ENDBRANCH  21  25
ENDBRANCH  19  21
ENDBRANCH   1  19
TORSDOF 7
