REMARK  Name = ZINC39988857
REMARK  4 active torsions:
REMARK  status: ('A' for Active; 'I' for Inactive)
REMARK    1  A    between atoms: C_7  and  C_10
REMARK    2  A    between atoms: N_11  and  N_12
REMARK    3  A    between atoms: C_15  and  C_18
REMARK    4  A    between atoms: C_21  and  C_23
REMARK                            x       y       z     vdW  Elec       q    Type
REMARK                         _______ _______ _______ _____ _____    ______ ____
ROOT
ATOM      1  N   UNL     1       0.328  -5.354  -0.031  0.00  0.00    -0.215 N 
ATOM      2  C   UNL     1       0.818  -6.647  -0.043  0.00  0.00    +0.178 A 
ATOM      3  N   UNL     1       0.156  -7.791  -0.049  0.00  0.00    -0.220 NA
ATOM      4  C   UNL     1       0.790  -8.953  -0.060  0.00  0.00    +0.115 A 
ATOM      5  C   UNL     1       2.163  -8.967  -0.066  0.00  0.00    +0.080 A 
ATOM      6  S   UNL     1       2.513  -7.213  -0.062  0.00  0.00    -0.059 S 
ATOM      7  H   UNL     1      -0.629  -5.198  -0.022  0.00  0.00    +0.176 HD
ENDROOT
BRANCH   4   8
ATOM      8  C   UNL     1       0.030 -10.218  -0.066  0.00  0.00    +0.154 A 
ATOM      9  C   UNL     1      -1.327 -10.333  -0.067  0.00  0.00    +0.052 A 
ATOM     10  C   UNL     1      -1.622 -11.706  -0.074  0.00  0.00    +0.050 A 
ATOM     11  C   UNL     1      -0.432 -12.367  -0.077  0.00  0.00    +0.137 A 
ATOM     12  O   UNL     1       0.561 -11.456  -0.078  0.00  0.00    -0.453 OA
BRANCH  11  13
ATOM     13  C   UNL     1      -0.259 -13.834  -0.084  0.00  0.00    +0.037 A 
ATOM     14  C   UNL     1      -0.952 -14.626   0.835  0.00  0.00    +0.033 A 
ATOM     15  C   UNL     1      -0.786 -15.996   0.822  0.00  0.00    +0.042 A 
ATOM     16  C   UNL     1       0.066 -16.586  -0.097  0.00  0.00    +0.021 A 
ATOM     17  C   UNL     1       0.756 -15.807  -1.009  0.00  0.00    +0.022 A 
ATOM     18  C   UNL     1       0.595 -14.436  -1.012  0.00  0.00    +0.052 A 
ATOM     19 CL   UNL     1       1.456 -13.461  -2.162  0.00  0.00    -0.083 Cl
ATOM     20 CL   UNL     1      -1.645 -16.983   1.963  0.00  0.00    -0.084 Cl
ENDBRANCH  11  13
ENDBRANCH   4   8
BRANCH   1  22
ATOM     21  C   UNL     1       0.679  -3.127  -0.022  0.00  0.00    +0.136 C 
ATOM     22  N   UNL     1       1.144  -4.355  -0.033  0.00  0.00    -0.189 NA
BRANCH  21  29
ATOM     23  C   UNL     1      -0.016   1.354   0.009  0.00  0.00    +0.001 A 
ATOM     24  C   UNL     1       1.163   2.101   0.002  0.00  0.00    +0.002 A 
ATOM     25  C   UNL     1       2.384   1.510  -0.013  0.00  0.00    +0.026 A 
ATOM     26  C   UNL     1       2.482   0.095  -0.021  0.00  0.00    +0.043 A 
ATOM     27  N   UNL     1       3.530  -0.706  -0.035  0.00  0.00    -0.380 N 
ATOM     28  C   UNL     1       3.075  -2.100  -0.038  0.00  0.00    +0.150 C 
ATOM     29  C   UNL     1       1.563  -2.046  -0.024  0.00  0.00    +0.000 C 
ATOM     30  C   UNL     1       1.236  -0.687  -0.013  0.00  0.00    +0.004 A 
ATOM     31  C   UNL     1       0.002  -0.004   0.002  0.00  0.00    +0.010 A 
ATOM     32  H   UNL     1       4.456  -0.419  -0.043  0.00  0.00    +0.160 HD
ENDBRANCH  21  29
ENDBRANCH   1  22
TORSDOF 4
