REMARK  Name = ZINC04904950
REMARK  11 active torsions:
REMARK  status: ('A' for Active; 'I' for Inactive)
REMARK    1  A    between atoms: C_1  and  C_2
REMARK    2  A    between atoms: C_2  and  C_3
REMARK    3  A    between atoms: C_7  and  C_27
REMARK    4  A    between atoms: C_8  and  N_9
REMARK    5  A    between atoms: N_9  and  C_10
REMARK    6  A    between atoms: C_10  and  N_12
REMARK    7  A    between atoms: N_12  and  C_13
REMARK    8  A    between atoms: C_13  and  C_14
REMARK    9  A    between atoms: C_14  and  C_15
REMARK   10  A    between atoms: C_16  and  C_26
REMARK   11  A    between atoms: C_27  and  C_28
REMARK                            x       y       z     vdW  Elec       q    Type
REMARK                         _______ _______ _______ _____ _____    ______ ____
ROOT
ATOM      1  N   UNL     1      -0.239   2.288   3.092  0.00  0.00    -0.326 N 
ATOM      2  H   UNL     1       0.128   2.365   3.987  0.00  0.00    +0.148 HD
ENDROOT
BRANCH   1   3
ATOM      3  C   UNL     1       0.570   2.000   2.054  0.00  0.00    +0.135 C 
ATOM      4  S   UNL     1      -0.078   1.864   0.475  0.00  0.00    -0.019 S 
BRANCH   3   5
ATOM      5  N   UNL     1       1.891   1.825   2.258  0.00  0.00    -0.296 N 
ATOM      6  H   UNL     1       2.264   1.940   3.146  0.00  0.00    +0.154 HD
BRANCH   5  12
ATOM      7  C   UNL     1       3.837   2.254   0.893  0.00  0.00    -0.026 A 
ATOM      8  C   UNL     1       4.660   1.906  -0.160  0.00  0.00    +0.005 A 
ATOM      9  C   UNL     1       4.370   0.792  -0.927  0.00  0.00    +0.001 A 
ATOM     10  C   UNL     1       3.260   0.021  -0.639  0.00  0.00    +0.005 A 
ATOM     11  C   UNL     1       2.436   0.360   0.416  0.00  0.00    -0.026 A 
ATOM     12  C   UNL     1       2.724   1.478   1.188  0.00  0.00    +0.039 A 
BRANCH   7  14
ATOM     13  C   UNL     1       4.957   3.055   2.956  0.00  0.00    +0.009 C 
ATOM     14  C   UNL     1       4.150   3.472   1.724  0.00  0.00    +0.033 C 
ENDBRANCH   7  14
BRANCH  11  15
ATOM     15  C   UNL     1       1.225  -0.481   0.729  0.00  0.00    +0.033 C 
ATOM     16  C   UNL     1       0.662  -1.067  -0.567  0.00  0.00    +0.009 C 
ENDBRANCH  11  15
ENDBRANCH   5  12
ENDBRANCH   3   5
ENDBRANCH   1   3
BRANCH   1  17
ATOM     17  C   UNL     1      -1.674   2.483   2.870  0.00  0.00    +0.108 C 
BRANCH  17  18
ATOM     18  C   UNL     1      -2.358   2.796   4.202  0.00  0.00    +0.056 C 
BRANCH  18  19
ATOM     19  C   UNL     1      -3.834   2.997   3.974  0.00  0.00    -0.018 A 
ATOM     20  C   UNL     1      -4.448   4.159   3.698  0.00  0.00    +0.017 A 
ATOM     21  N   UNL     1      -5.793   3.953   3.552  0.00  0.00    -0.358 N 
ATOM     22  H   UNL     1      -6.443   4.643   3.347  0.00  0.00    +0.166 HD
ATOM     23  C   UNL     1      -6.086   2.620   3.744  0.00  0.00    +0.047 A 
ATOM     24  C   UNL     1      -4.872   1.964   4.016  0.00  0.00    +0.006 A 
ATOM     25  C   UNL     1      -4.861   0.588   4.256  0.00  0.00    +0.048 A 
ATOM     26  C   UNL     1      -6.043  -0.119   4.224  0.00  0.00    +0.124 A 
ATOM     27  C   UNL     1      -7.242   0.531   3.955  0.00  0.00    +0.040 A 
ATOM     28  C   UNL     1      -7.268   1.888   3.716  0.00  0.00    +0.029 A 
ATOM     29  F   UNL     1      -6.037  -1.450   4.455  0.00  0.00    -0.205 F 
ATOM     30  C   UNL     1      -3.758   5.492   3.566  0.00  0.00    +0.063 C 
ENDBRANCH  18  19
ENDBRANCH  17  18
ENDBRANCH   1  17
TORSDOF 8
