REMARK  Name = ZINC20805171
REMARK  16 active torsions:
REMARK  status: ('A' for Active; 'I' for Inactive)
REMARK    1  A    between atoms: C_1  and  C_2
REMARK    2  A    between atoms: C_3  and  C_11
REMARK    3  A    between atoms: C_4  and  C_10
REMARK    4  A    between atoms: N_5  and  C_7
REMARK    5  A    between atoms: C_7  and  C_8
REMARK    6  A    between atoms: C_7  and  C_9
REMARK    7  A    between atoms: N_12  and  N_13
REMARK    8  A    between atoms: C_14  and  C_16
REMARK    9  A    between atoms: C_16  and  C_18
REMARK   10  A    between atoms: C_16  and  S_19
REMARK   11  A    between atoms: S_19  and  C_20
REMARK   12  A    between atoms: C_23  and  C_28
REMARK   13  A    between atoms: N_24  and  C_25
REMARK   14  A    between atoms: C_25  and  C_26
REMARK   15  A    between atoms: C_28  and  N_29
REMARK   16  A    between atoms: N_29  and  C_30
REMARK                            x       y       z     vdW  Elec       q    Type
REMARK                         _______ _______ _______ _____ _____    ______ ____
ROOT
ATOM      1  S   UNL     1      -5.939  -3.326   0.736  0.00  0.00    -0.073 S 
ENDROOT
BRANCH   1   2
ATOM      2  C   UNL     1      -7.684  -3.566   0.758  0.00  0.00    +0.193 A 
ATOM      3  N   UNL     1      -8.595  -2.712   0.352  0.00  0.00    -0.122 NA
ATOM      4  N   UNL     1      -9.767  -3.216   0.510  0.00  0.00    -0.132 NA
ATOM      5  C   UNL     1      -9.675  -4.408   1.028  0.00  0.00    +0.152 A 
ATOM      6  N   UNL     1      -8.345  -4.674   1.205  0.00  0.00    -0.301 N 
BRANCH   6   7
ATOM      7  C   UNL     1      -7.753  -5.894   1.759  0.00  0.00    +0.152 C 
BRANCH   7   8
ATOM      8  C   UNL     1      -7.610  -5.750   3.252  0.00  0.00    -0.013 C 
ATOM      9  C   UNL     1      -8.140  -6.643   4.051  0.00  0.00    +0.005 C 
ENDBRANCH   7   8
ENDBRANCH   6   7
BRANCH   5  10
ATOM     10  C   UNL     1     -10.822  -5.323   1.371  0.00  0.00    +0.178 C 
BRANCH  10  11
ATOM     11  N   UNL     1     -11.252  -5.073   2.748  0.00  0.00    -0.337 N 
ATOM     12  H   UNL     1     -10.744  -4.308   3.353  0.00  0.00    +0.147 HD
BRANCH  11  13
ATOM     13  C   UNL     1     -12.309  -5.807   3.294  0.00  0.00    +0.028 A 
ATOM     14  C   UNL     1     -12.956  -6.770   2.530  0.00  0.00    +0.024 A 
ATOM     15  C   UNL     1     -13.995  -7.498   3.075  0.00  0.00    +0.022 A 
ATOM     16  C   UNL     1     -14.401  -7.260   4.376  0.00  0.00    +0.041 A 
ATOM     17  C   UNL     1     -13.763  -6.297   5.138  0.00  0.00    +0.022 A 
ATOM     18  C   UNL     1     -12.718  -5.571   4.601  0.00  0.00    +0.024 A 
ATOM     19 CL   UNL     1     -15.714  -8.171   5.054  0.00  0.00    -0.084 Cl
ENDBRANCH  11  13
ENDBRANCH  10  11
ENDBRANCH   5  10
ENDBRANCH   1   2
BRANCH   1  20
ATOM     20  C   UNL     1      -5.859  -1.664   0.022  0.00  0.00    +0.139 C 
ATOM     21  C   UNL     1      -6.389  -1.700  -1.413  0.00  0.00    +0.029 C 
BRANCH  20  23
ATOM     22  N   UNL     1      -4.160   0.134   0.022  0.00  0.00    -0.206 N 
ATOM     23  C   UNL     1      -4.430  -1.187   0.018  0.00  0.00    +0.245 C 
ATOM     24  O   UNL     1      -3.522  -1.991   0.010  0.00  0.00    -0.273 OA
ATOM     25  H   UNL     1      -4.984   0.863   0.029  0.00  0.00    +0.177 HD
BRANCH  22  27
ATOM     26  C   UNL     1      -2.572   1.848   0.024  0.00  0.00    +0.141 C 
ATOM     27  N   UNL     1      -2.831   0.577   0.019  0.00  0.00    -0.188 NA
BRANCH  26  30
ATOM     28  C   UNL     1       0.002  -0.004   0.002  0.00  0.00    +0.068 C 
ATOM     29  C   UNL     1      -0.018   1.503   0.010  0.00  0.00    +0.069 A 
ATOM     30  C   UNL     1      -1.172   2.316   0.019  0.00  0.00    +0.038 A 
ATOM     31  C   UNL     1      -0.749   3.627   0.027  0.00  0.00    +0.045 A 
ATOM     32  N   UNL     1       0.599   3.615   0.015  0.00  0.00    -0.265 N 
ATOM     33  N   UNL     1       1.028   2.283   0.004  0.00  0.00    -0.175 NA
ATOM     34  C   UNL     1      -1.630   4.850   0.041  0.00  0.00    +0.066 C 
BRANCH  32  35
ATOM     35  C   UNL     1       1.466   4.796   0.013  0.00  0.00    +0.101 C 
ATOM     36  C   UNL     1       2.361   4.773   1.253  0.00  0.00    +0.032 C 
ATOM     37  C   UNL     1       2.338   4.786  -1.245  0.00  0.00    +0.032 C 
ENDBRANCH  32  35
ENDBRANCH  26  30
ENDBRANCH  22  27
ENDBRANCH  20  23
ENDBRANCH   1  20
TORSDOF 11
