REMARK  Name = ZINC09226289
REMARK  8 active torsions:
REMARK  status: ('A' for Active; 'I' for Inactive)
REMARK    1  A    between atoms: C_1  and  C_2
REMARK    2  A    between atoms: N_4  and  C_5
REMARK    3  A    between atoms: C_8  and  C_11
REMARK    4  A    between atoms: C_14  and  S_16
REMARK    5  A    between atoms: S_16  and  C_17
REMARK    6  A    between atoms: C_17  and  C_18
REMARK    7  A    between atoms: N_20  and  C_21
REMARK    8  A    between atoms: C_22  and  C_30
REMARK                            x       y       z     vdW  Elec       q    Type
REMARK                         _______ _______ _______ _____ _____    ______ ____
ROOT
ATOM      1  S   UNL     1      -2.817   8.736  -5.104  0.00  0.00    -0.056 S 
ENDROOT
BRANCH   1   5
ATOM      2  C   UNL     1      -3.998  12.297  -6.093  0.00  0.00    +0.249 A 
ATOM      3  N   UNL     1      -3.924  12.391  -4.788  0.00  0.00    -0.106 NA
ATOM      4  N   UNL     1      -3.537  11.265  -4.299  0.00  0.00    -0.101 NA
ATOM      5  C   UNL     1      -3.348  10.407  -5.274  0.00  0.00    +0.278 A 
ATOM      6  O   UNL     1      -3.629  11.041  -6.429  0.00  0.00    -0.411 OA
BRANCH   2  10
ATOM      7  C   UNL     1      -5.162  15.380  -8.775  0.00  0.00    +0.033 A 
ATOM      8  C   UNL     1      -5.131  15.626  -7.407  0.00  0.00    +0.024 A 
ATOM      9  C   UNL     1      -4.754  14.628  -6.534  0.00  0.00    +0.015 A 
ATOM     10  C   UNL     1      -4.403  13.369  -7.025  0.00  0.00    +0.039 A 
ATOM     11  C   UNL     1      -4.430  13.127  -8.401  0.00  0.00    +0.015 A 
ATOM     12  C   UNL     1      -4.813  14.127  -9.267  0.00  0.00    +0.024 A 
BRANCH   7  16
ATOM     13  C   UNL     1      -5.762  18.781 -10.267  0.00  0.00    +0.109 C 
ATOM     14  C   UNL     1      -5.247  17.678  -9.379  0.00  0.00    +0.214 C 
ATOM     15  O   UNL     1      -4.562  17.946  -8.414  0.00  0.00    -0.276 OA
ATOM     16  N   UNL     1      -5.546  16.394  -9.657  0.00  0.00    -0.286 N 
ATOM     17  H   UNL     1      -6.028  16.173 -10.470  0.00  0.00    +0.155 HD
ENDBRANCH   7  16
ENDBRANCH   2  10
ENDBRANCH   1   5
BRANCH   1  18
ATOM     18  C   UNL     1      -2.647   8.642  -3.305  0.00  0.00    +0.175 C 
BRANCH  18  19
ATOM     19  C   UNL     1      -2.189   7.260  -2.916  0.00  0.00    +0.228 C 
ATOM     20  O   UNL     1      -1.996   6.421  -3.770  0.00  0.00    -0.275 OA
ATOM     21  N   UNL     1      -1.993   6.956  -1.617  0.00  0.00    -0.278 N 
ATOM     22  H   UNL     1      -2.147   7.626  -0.933  0.00  0.00    +0.155 HD
BRANCH  21  23
ATOM     23  C   UNL     1      -1.571   5.683  -1.258  0.00  0.00    +0.090 A 
ATOM     24  C   UNL     1      -1.317   5.185   0.011  0.00  0.00    +0.084 A 
ATOM     25  C   UNL     1      -0.882   3.804   0.117  0.00  0.00    -0.018 A 
ATOM     26  C   UNL     1      -0.769   3.145  -1.058  0.00  0.00    -0.004 A 
ATOM     27  S   UNL     1      -1.233   4.331  -2.288  0.00  0.00    -0.077 S 
ATOM     28  C   UNL     1      -0.344   1.723  -1.259  0.00  0.00    +0.043 C 
ATOM     29  C   UNL     1       0.309   1.226   0.039  0.00  0.00    +0.005 C 
ATOM     30  C   UNL     1      -0.590   1.599   1.221  0.00  0.00    +0.005 C 
ATOM     31  C   UNL     1      -0.566   3.113   1.437  0.00  0.00    +0.037 C 
BRANCH  24  32
ATOM     32  C   UNL     1      -1.480   6.003   1.175  0.00  0.00    +0.102 C 
ATOM     33  N   UNL     1      -1.609   6.652   2.099  0.00  0.00    -0.191 NA
ENDBRANCH  24  32
ENDBRANCH  21  23
ENDBRANCH  18  19
ENDBRANCH   1  18
TORSDOF 7
