REMARK  Name = ZINC39596373
REMARK  11 active torsions:
REMARK  status: ('A' for Active; 'I' for Inactive)
REMARK    1  A    between atoms: C_1  and  C_2
REMARK    2  A    between atoms: C_2  and  C_4
REMARK    3  A    between atoms: C_2  and  O_31
REMARK    4  A    between atoms: C_4  and  N_5
REMARK    5  A    between atoms: C_6  and  C_8
REMARK    6  A    between atoms: C_19  and  C_21
REMARK    7  A    between atoms: C_23  and  O_29
REMARK    8  A    between atoms: C_26  and  O_27
REMARK    9  A    between atoms: O_27  and  C_28
REMARK   10  A    between atoms: O_29  and  C_30
REMARK   11  A    between atoms: O_31  and  C_32
REMARK                            x       y       z     vdW  Elec       q    Type
REMARK                         _______ _______ _______ _____ _____    ______ ____
ROOT
ATOM      1  C   UNL     1       0.066  -7.235  -2.772  0.00  0.00    +0.100 C 
ATOM      2  C   UNL     1      -1.025  -6.549  -3.624  0.00  0.00    +0.121 C 
ATOM      3  N   UNL     1      -0.301  -5.504  -4.386  0.00  0.00    -0.296 N 
ATOM      4  C   UNL     1       0.982  -6.145  -4.764  0.00  0.00    +0.115 C 
ATOM      5  C   UNL     1       1.381  -6.971  -3.525  0.00  0.00    -0.004 C 
ATOM      6  C   UNL     1       2.019  -8.290  -3.953  0.00  0.00    -0.010 C 
ATOM      7  C   UNL     1       3.353  -8.004  -4.648  0.00  0.00    -0.082 C 
ATOM      8  N   UNL     1       4.241  -7.283  -3.729  0.00  0.00    +0.379 N 
ATOM      9  C   UNL     1       3.663  -5.975  -3.396  0.00  0.00    -0.082 C 
ATOM     10  C   UNL     1       2.342  -6.175  -2.647  0.00  0.00    -0.010 C 
ATOM     11  C   UNL     1      -0.716  -4.254  -4.673  0.00  0.00    +0.250 C 
ATOM     12  O   UNL     1      -0.039  -3.537  -5.384  0.00  0.00    -0.270 OA
ATOM     13  H   UNL     1       4.359  -7.822  -2.884  0.00  0.00    -0.086 HD
ATOM     14  H   UNL     1       5.140  -7.149  -4.167  0.00  0.00    -0.086 HD
ENDROOT
BRANCH  11  15
ATOM     15  C   UNL     1      -1.992  -3.756  -4.124  0.00  0.00    +0.082 A 
ATOM     16  C   UNL     1      -2.082  -3.392  -2.778  0.00  0.00    +0.062 A 
ATOM     17  C   UNL     1      -3.280  -2.926  -2.271  0.00  0.00    +0.121 A 
ATOM     18  C   UNL     1      -4.394  -2.819  -3.095  0.00  0.00    +0.049 A 
ATOM     19  C   UNL     1      -4.313  -3.176  -4.426  0.00  0.00    +0.050 A 
ATOM     20  C   UNL     1      -3.116  -3.640  -4.951  0.00  0.00    +0.132 A 
BRANCH  20  21
ATOM     21  O   UNL     1      -3.037  -3.986  -6.261  0.00  0.00    -0.494 OA
ATOM     22  C   UNL     1      -4.223  -3.842  -7.044  0.00  0.00    +0.277 C 
ENDBRANCH  20  21
BRANCH  17  23
ATOM     23  O   UNL     1      -3.370  -2.571  -0.961  0.00  0.00    -0.495 OA
ATOM     24  C   UNL     1      -4.663  -2.203  -0.475  0.00  0.00    +0.277 C 
ENDBRANCH  17  23
ENDBRANCH  11  15
BRANCH   1  26
ATOM     25  N   UNL     1       0.605  -7.337  -0.359  0.00  0.00    -0.312 N 
ATOM     26  C   UNL     1       0.118  -6.625  -1.395  0.00  0.00    +0.218 C 
ATOM     27  O   UNL     1      -0.277  -5.492  -1.219  0.00  0.00    -0.275 OA
ATOM     28  H   UNL     1       0.858  -8.265  -0.486  0.00  0.00    +0.149 HD
BRANCH  25  29
ATOM     29  C   UNL     1       0.751  -6.710   0.957  0.00  0.00    +0.148 C 
BRANCH  29  31
ATOM     30  C   UNL     1       1.703  -6.992   3.250  0.00  0.00    +0.053 C 
ATOM     31  C   UNL     1       1.431  -7.690   1.915  0.00  0.00    +0.187 C 
BRANCH  31  32
ATOM     32  O   UNL     1       0.578  -8.816   2.131  0.00  0.00    -0.488 OA
BRANCH  32  33
ATOM     33  C   UNL     1       1.175  -9.981   2.496  0.00  0.00    +0.121 A 
ATOM     34  C   UNL     1       2.534 -10.009   2.770  0.00  0.00    +0.048 A 
ATOM     35  C   UNL     1       3.139 -11.194   3.141  0.00  0.00    +0.042 A 
ATOM     36  C   UNL     1       2.389 -12.354   3.240  0.00  0.00    +0.124 A 
ATOM     37  C   UNL     1       1.032 -12.328   2.967  0.00  0.00    +0.042 A 
ATOM     38  C   UNL     1       0.423 -11.142   2.602  0.00  0.00    +0.048 A 
ATOM     39  F   UNL     1       2.982 -13.512   3.603  0.00  0.00    -0.205 F 
ENDBRANCH  32  33
ENDBRANCH  31  32
ENDBRANCH  29  31
ENDBRANCH  25  29
ENDBRANCH   1  26
TORSDOF 8
