REMARK  Name = ZINC06244777
REMARK  10 active torsions:
REMARK  status: ('A' for Active; 'I' for Inactive)
REMARK    1  A    between atoms: C_1  and  C_2
REMARK    2  A    between atoms: C_5  and  C_39
REMARK    3  A    between atoms: C_9  and  C_14
REMARK    4  A    between atoms: C_14  and  C_16
REMARK    5  A    between atoms: C_14  and  N_69
REMARK    6  A    between atoms: N_20  and  C_21
REMARK    7  A    between atoms: C_26  and  C_27
REMARK    8  A    between atoms: C_26  and  N_69
REMARK    9  A    between atoms: C_33  and  C_34
REMARK   10  A    between atoms: C_33  and  N_69
REMARK                            x       y       z     vdW  Elec       q    Type
REMARK                         _______ _______ _______ _____ _____    ______ ____
ROOT
ATOM      1  C   UNL     1       1.929   3.182  -0.342  0.00  0.00    +0.040 C 
ENDROOT
BRANCH   1  10
ATOM      2  C   UNL     1      -2.763   2.386  -2.456  0.00  0.00    +0.044 C 
ATOM      3  C   UNL     1      -2.243   1.046  -2.004  0.00  0.00    -0.041 A 
ATOM      4  C   UNL     1      -2.994  -0.080  -2.190  0.00  0.00    +0.004 A 
ATOM      5  C   UNL     1      -2.523  -1.319  -1.778  0.00  0.00    +0.005 A 
ATOM      6  C   UNL     1      -1.290  -1.438  -1.173  0.00  0.00    -0.026 A 
ATOM      7  C   UNL     1      -0.506  -0.306  -0.977  0.00  0.00    +0.052 A 
ATOM      8  C   UNL     1      -0.989   0.950  -1.392  0.00  0.00    +0.002 A 
ATOM      9  C   UNL     1      -0.158   2.136  -1.176  0.00  0.00    +0.018 A 
ATOM     10  C   UNL     1       1.049   1.981  -0.578  0.00  0.00    +0.011 A 
ATOM     11  C   UNL     1       1.484   0.700  -0.176  0.00  0.00    +0.251 A 
ATOM     12  O   UNL     1       2.573   0.584   0.360  0.00  0.00    -0.268 OA
ATOM     13  N   UNL     1       0.728  -0.395  -0.369  0.00  0.00    -0.322 N 
ATOM     14  H   UNL     1       1.058  -1.260  -0.081  0.00  0.00    +0.169 HD
ATOM     15  C   UNL     1      -0.792  -2.789  -0.730  0.00  0.00    +0.046 C 
ENDBRANCH   1  10
BRANCH   1  16
ATOM     16  C   UNL     1       2.105   3.392   1.140  0.00  0.00    +0.143 A 
ATOM     17  N   UNL     1       2.860   2.685   1.946  0.00  0.00    -0.115 NA
ATOM     18  N   UNL     1       2.743   3.175   3.132  0.00  0.00    -0.023 NA
ATOM     19  N   UNL     1       1.933   4.176   3.103  0.00  0.00    -0.044 NA
ATOM     20  N   UNL     1       1.523   4.344   1.892  0.00  0.00    -0.227 N 
BRANCH  20  21
ATOM     21  C   UNL     1       0.594   5.376   1.423  0.00  0.00    +0.111 C 
ATOM     22  C   UNL     1       1.151   6.776   1.751  0.00  0.00    +0.027 C 
ATOM     23  C   UNL     1      -0.103   7.603   2.132  0.00  0.00    +0.002 C 
ATOM     24  C   UNL     1      -0.962   6.581   2.916  0.00  0.00    +0.002 C 
ATOM     25  C   UNL     1      -0.749   5.251   2.163  0.00  0.00    +0.027 C 
ENDBRANCH  20  21
ENDBRANCH   1  16
BRANCH   1  26
ATOM     26  N   UNL     1       3.254   2.937  -0.949  0.00  0.00    +0.397 N 
ATOM     27  H   UNL     1       3.748   2.226  -0.397  0.00  0.00    -0.079 HD
BRANCH  26  28
ATOM     28  C   UNL     1       3.093   2.445  -2.333  0.00  0.00    -0.039 C 
BRANCH  28  29
ATOM     29  C   UNL     1       4.404   1.861  -2.795  0.00  0.00    -0.046 A 
ATOM     30  C   UNL     1       5.331   2.653  -3.455  0.00  0.00    +0.005 A 
ATOM     31  C   UNL     1       6.525   2.075  -3.858  0.00  0.00    +0.020 A 
ATOM     32  C   UNL     1       6.745   0.735  -3.598  0.00  0.00    +0.111 A 
ATOM     33  N   UNL     1       5.839   0.011  -2.971  0.00  0.00    -0.263 NA
ATOM     34  C   UNL     1       4.694   0.529  -2.570  0.00  0.00    +0.112 A 
ENDBRANCH  28  29
ENDBRANCH  26  28
BRANCH  26  35
ATOM     35  C   UNL     1       4.049   4.184  -0.945  0.00  0.00    -0.001 C 
BRANCH  35  36
ATOM     36  C   UNL     1       4.630   4.381   0.431  0.00  0.00    +0.089 A 
ATOM     37  C   UNL     1       5.746   3.799   0.905  0.00  0.00    +0.042 A 
ATOM     38  C   UNL     1       5.920   4.263   2.229  0.00  0.00    +0.041 A 
ATOM     39  C   UNL     1       4.899   5.101   2.486  0.00  0.00    +0.195 A 
ATOM     40  O   UNL     1       4.124   5.173   1.391  0.00  0.00    -0.470 OA
ENDBRANCH  35  36
ENDBRANCH  26  35
ENDBRANCH   1  26
TORSDOF 8
