REMARK  Name = ZINC07032671
REMARK  7 active torsions:
REMARK  status: ('A' for Active; 'I' for Inactive)
REMARK    1  A    between atoms: C_1  and  C_2
REMARK    2  A    between atoms: C_6  and  N_9
REMARK    3  A    between atoms: C_7  and  C_8
REMARK    4  A    between atoms: C_13  and  S_15
REMARK    5  A    between atoms: S_15  and  C_16
REMARK    6  A    between atoms: C_16  and  C_17
REMARK    7  A    between atoms: C_17  and  C_18
REMARK                            x       y       z     vdW  Elec       q    Type
REMARK                         _______ _______ _______ _____ _____    ______ ____
ROOT
ATOM      1  N   UNL     1       3.583   2.122  -0.021  0.00  0.00    -0.292 N 
ATOM      2  C   UNL     1       3.567   3.509  -0.119  0.00  0.00    +0.187 A 
ATOM      3  N   UNL     1       2.538   4.334  -0.129  0.00  0.00    -0.125 NA
ATOM      4  N   UNL     1       2.749   5.690  -0.230  0.00  0.00    -0.133 NA
ATOM      5  C   UNL     1       3.979   6.157  -0.328  0.00  0.00    +0.160 A 
ATOM      6  S   UNL     1       4.934   4.648  -0.272  0.00  0.00    -0.024 S 
ATOM      7  H   UNL     1       4.418   1.639  -0.117  0.00  0.00    +0.154 HD
ENDROOT
BRANCH   1  13
ATOM      8  C   UNL     1       1.177  -2.153   0.286  0.00  0.00    +0.044 C 
ATOM      9  C   UNL     1       1.199  -0.648   0.369  0.00  0.00    -0.046 A 
ATOM     10  C   UNL     1       0.042   0.044   0.678  0.00  0.00    +0.004 A 
ATOM     11  C   UNL     1       0.059   1.424   0.756  0.00  0.00    +0.002 A 
ATOM     12  C   UNL     1       1.231   2.117   0.525  0.00  0.00    +0.023 A 
ATOM     13  C   UNL     1       2.395   1.425   0.214  0.00  0.00    +0.036 A 
ATOM     14  C   UNL     1       2.375   0.038   0.137  0.00  0.00    -0.026 A 
ATOM     15  C   UNL     1       3.635  -0.718  -0.200  0.00  0.00    +0.046 C 
ENDBRANCH   1  13
BRANCH   5  16
ATOM     16  S   UNL     1       4.532   7.824  -0.476  0.00  0.00    -0.096 S 
BRANCH  16  17
ATOM     17  C   UNL     1       3.002   8.797  -0.463  0.00  0.00    +0.085 C 
BRANCH  17  18
ATOM     18  C   UNL     1       3.341  10.284  -0.587  0.00  0.00    +0.106 C 
BRANCH  18  19
ATOM     19  C   UNL     1       2.070  11.092  -0.577  0.00  0.00    +0.211 C 
ATOM     20  O   UNL     1       0.997  10.534  -0.480  0.00  0.00    -0.276 OA
ATOM     21  N   UNL     1       2.124  12.435  -0.675  0.00  0.00    -0.329 N 
ATOM     22  H   UNL     1       2.982  12.881  -0.752  0.00  0.00    +0.145 HD
ATOM     23  H   UNL     1       1.306  12.956  -0.668  0.00  0.00    +0.145 HD
ENDBRANCH  18  19
ENDBRANCH  17  18
ENDBRANCH  16  17
ENDBRANCH   5  16
TORSDOF 5
