REMARK  Name = ZINC39685704
REMARK  14 active torsions:
REMARK  status: ('A' for Active; 'I' for Inactive)
REMARK    1  A    between atoms: C_1  and  C_2
REMARK    2  A    between atoms: C_2  and  C_3
REMARK    3  A    between atoms: C_3  and  C_4
REMARK    4  A    between atoms: C_4  and  C_5
REMARK    5  A    between atoms: C_9  and  C_18
REMARK    6  A    between atoms: N_20  and  C_21
REMARK    7  A    between atoms: C_21  and  C_23
REMARK    8  A    between atoms: C_21  and  C_26
REMARK    9  A    between atoms: C_23  and  C_24
REMARK   10  A    between atoms: C_23  and  C_25
REMARK   11  A    between atoms: N_28  and  C_29
REMARK   12  A    between atoms: C_29  and  C_30
REMARK   13  A    between atoms: C_29  and  C_31
REMARK   14  A    between atoms: C_29  and  C_32
REMARK                            x       y       z     vdW  Elec       q    Type
REMARK                         _______ _______ _______ _____ _____    ______ ____
ROOT
ATOM      1  C   UNL     1       1.543  -2.559   2.610  0.00  0.00    +0.216 C 
ATOM      2  O   UNL     1       2.058  -1.793   3.396  0.00  0.00    -0.276 OA
ATOM      3  N   UNL     1       1.698  -3.889   2.765  0.00  0.00    -0.300 N 
ATOM      4  C   UNL     1       1.157  -4.973   1.912  0.00  0.00    +0.121 C 
ATOM      5  C   UNL     1       2.293  -6.018   1.840  0.00  0.00    +0.100 C 
ATOM      6  C   UNL     1       3.136  -5.768   3.102  0.00  0.00    -0.004 C 
ATOM      7  C   UNL     1       2.454  -4.598   3.825  0.00  0.00    +0.115 C 
ATOM      8  C   UNL     1       4.561  -5.384   2.717  0.00  0.00    -0.010 C 
ATOM      9  C   UNL     1       5.395  -5.196   3.987  0.00  0.00    -0.082 C 
ATOM     10  N   UNL     1       5.396  -6.442   4.763  0.00  0.00    +0.379 N 
ATOM     11  C   UNL     1       4.032  -6.756   5.208  0.00  0.00    -0.082 C 
ATOM     12  C   UNL     1       3.141  -7.009   3.989  0.00  0.00    -0.010 C 
ATOM     13  H   UNL     1       5.741  -7.195   4.187  0.00  0.00    -0.086 HD
ATOM     14  H   UNL     1       5.995  -6.336   5.568  0.00  0.00    -0.086 HD
ENDROOT
BRANCH   5  15
ATOM     15  C   UNL     1       1.724  -7.413   1.854  0.00  0.00    +0.219 C 
ATOM     16  O   UNL     1       0.687  -7.639   2.442  0.00  0.00    -0.275 OA
ATOM     17  N   UNL     1       2.367  -8.410   1.214  0.00  0.00    -0.303 N 
ATOM     18  H   UNL     1       3.196  -8.229   0.744  0.00  0.00    +0.149 HD
BRANCH  17  19
ATOM     19  C   UNL     1       1.813  -9.766   1.228  0.00  0.00    +0.161 C 
BRANCH  19  20
ATOM     20  C   UNL     1       2.924 -10.764   1.019  0.00  0.00    +0.234 C 
ATOM     21  O   UNL     1       4.065 -10.379   0.873  0.00  0.00    -0.274 OA
ATOM     22  N   UNL     1       2.649 -12.083   0.994  0.00  0.00    -0.309 N 
ATOM     23  H   UNL     1       1.736 -12.390   1.111  0.00  0.00    +0.149 HD
BRANCH  22  24
ATOM     24  C   UNL     1       3.728 -13.052   0.791  0.00  0.00    +0.026 C 
ATOM     25  C   UNL     1       4.759 -12.910   1.913  0.00  0.00    +0.031 C 
ATOM     26  C   UNL     1       3.150 -14.469   0.806  0.00  0.00    +0.031 C 
ATOM     27  C   UNL     1       4.402 -12.790  -0.557  0.00  0.00    +0.031 C 
ENDBRANCH  22  24
ENDBRANCH  19  20
BRANCH  19  28
ATOM     28  C   UNL     1       0.783  -9.908   0.106  0.00  0.00    +0.012 C 
ATOM     29  C   UNL     1      -0.345  -8.896   0.319  0.00  0.00    +0.009 C 
ATOM     30  C   UNL     1       1.457  -9.646  -1.242  0.00  0.00    +0.009 C 
ENDBRANCH  19  28
ENDBRANCH  17  19
ENDBRANCH   5  15
BRANCH   1  31
ATOM     31  C   UNL     1       0.731  -2.025   1.458  0.00  0.00    +0.096 C 
BRANCH  31  32
ATOM     32  C   UNL     1       0.713  -0.496   1.512  0.00  0.00    +0.009 C 
BRANCH  32  34
ATOM     33  C   UNL     1      -0.129   1.575   0.398  0.00  0.00    +0.004 C 
ATOM     34  C   UNL     1      -0.112   0.046   0.344  0.00  0.00    -0.003 C 
ENDBRANCH  32  34
ENDBRANCH  31  32
ENDBRANCH   1  31
TORSDOF 8
