REMARK  Name = ZINC64921773
REMARK  6 active torsions:
REMARK  status: ('A' for Active; 'I' for Inactive)
REMARK    1  A    between atoms: C_1  and  C_2
REMARK    2  A    between atoms: C_2  and  C_3
REMARK    3  A    between atoms: C_10  and  S_15
REMARK    4  A    between atoms: S_15  and  N_18
REMARK    5  A    between atoms: C_21  and  C_24
REMARK    6  A    between atoms: N_26  and  C_27
REMARK                            x       y       z     vdW  Elec       q    Type
REMARK                         _______ _______ _______ _____ _____    ______ ____
ROOT
ATOM      1  S   UNL     1      -4.905  -3.218  -3.595  0.00  0.00    +0.061 S 
ATOM      2  O   UNL     1      -5.552  -2.550  -4.669  0.00  0.00    -0.153 OA
ATOM      3  O   UNL     1      -4.507  -4.580  -3.673  0.00  0.00    -0.153 OA
ENDROOT
BRANCH   1  10
ATOM      4  C   UNL     1       0.718  -0.497  -1.257  0.00  0.00    +0.259 C 
ATOM      5  C   UNL     1       0.849  -1.999  -1.204  0.00  0.00    +0.258 C 
ATOM      6  O   UNL     1       1.849  -2.507  -0.742  0.00  0.00    -0.271 OA
ATOM      7  N   UNL     1      -0.152  -2.774  -1.672  0.00  0.00    -0.279 N 
ATOM      8  C   UNL     1      -1.241  -2.171  -2.316  0.00  0.00    +0.078 A 
ATOM      9  C   UNL     1      -2.382  -2.902  -2.604  0.00  0.00    +0.055 A 
ATOM     10  C   UNL     1      -3.453  -2.289  -3.227  0.00  0.00    +0.107 A 
ATOM     11  C   UNL     1      -3.388  -0.949  -3.563  0.00  0.00    +0.032 A 
ATOM     12  C   UNL     1      -2.250  -0.215  -3.283  0.00  0.00    +0.049 A 
ATOM     13  C   UNL     1      -1.172  -0.824  -2.664  0.00  0.00    +0.143 A 
ATOM     14  O   UNL     1      -0.036  -0.121  -2.411  0.00  0.00    -0.478 OA
ATOM     15  H   UNL     1      -0.117  -3.738  -1.565  0.00  0.00    +0.155 HD
BRANCH   4  17
ATOM     16  C   UNL     1      -0.019   1.526   0.010  0.00  0.00    +0.008 C 
ATOM     17  C   UNL     1       0.002  -0.004   0.002  0.00  0.00    +0.051 C 
ENDBRANCH   4  17
ENDBRANCH   1  10
BRANCH   1  18
ATOM     18  N   UNL     1      -5.911  -3.093  -2.285  0.00  0.00    -0.177 NA
ATOM     19  C   UNL     1      -5.830  -4.064  -1.185  0.00  0.00    +0.110 C 
ATOM     20  C   UNL     1      -5.654  -3.302   0.132  0.00  0.00    +0.030 C 
ATOM     21  C   UNL     1      -6.781  -2.276   0.279  0.00  0.00    +0.077 C 
ATOM     22  C   UNL     1      -6.712  -1.272  -0.873  0.00  0.00    +0.030 C 
ATOM     23  C   UNL     1      -6.896  -2.007  -2.199  0.00  0.00    +0.110 C 
BRANCH  21  24
ATOM     24  C   UNL     1      -6.630  -1.549   1.590  0.00  0.00    +0.216 C 
ATOM     25  O   UNL     1      -5.712  -1.823   2.333  0.00  0.00    -0.276 OA
ATOM     26  N   UNL     1      -7.515  -0.593   1.936  0.00  0.00    -0.312 N 
ATOM     27  H   UNL     1      -8.249  -0.374   1.341  0.00  0.00    +0.149 HD
BRANCH  26  28
ATOM     28  C   UNL     1      -7.368   0.115   3.210  0.00  0.00    +0.073 C 
ATOM     29  C   UNL     1      -8.032  -0.698   4.324  0.00  0.00    +0.022 C 
ATOM     30  C   UNL     1      -7.878   0.041   5.655  0.00  0.00    +0.002 C 
ATOM     31  C   UNL     1      -8.548   1.414   5.556  0.00  0.00    +0.000 C 
ATOM     32  C   UNL     1      -7.884   2.226   4.442  0.00  0.00    +0.002 C 
ATOM     33  C   UNL     1      -8.038   1.487   3.112  0.00  0.00    +0.022 C 
ENDBRANCH  26  28
ENDBRANCH  21  24
ENDBRANCH   1  18
TORSDOF 5
