REMARK  Name = ZINC12369314
REMARK  10 active torsions:
REMARK  status: ('A' for Active; 'I' for Inactive)
REMARK    1  A    between atoms: C_1  and  O_2
REMARK    2  A    between atoms: O_2  and  C_3
REMARK    3  A    between atoms: C_3  and  C_4
REMARK    4  A    between atoms: C_4  and  C_5
REMARK    5  A    between atoms: C_5  and  N_6
REMARK    6  A    between atoms: N_6  and  C_7
REMARK    7  A    between atoms: C_7  and  N_9
REMARK    8  A    between atoms: N_9  and  C_10
REMARK    9  A    between atoms: N_18  and  C_21
REMARK   10  A    between atoms: C_24  and  C_26
REMARK                            x       y       z     vdW  Elec       q    Type
REMARK                         _______ _______ _______ _____ _____    ______ ____
ROOT
ATOM      1  C   UNL     1      -6.792   4.367   9.923  0.00  0.00    +0.049 A 
ATOM      2  C   UNL     1      -6.378   3.035   9.911  0.00  0.00    +0.028 A 
ATOM      3  C   UNL     1      -5.657   2.579   8.823  0.00  0.00    +0.043 A 
ATOM      4  C   UNL     1      -5.363   3.460   7.787  0.00  0.00    +0.099 A 
ATOM      5  C   UNL     1      -6.467   5.185   8.853  0.00  0.00    +0.107 A 
ATOM      6  N   UNL     1      -4.633   3.013   6.689  0.00  0.00    -0.314 N 
ATOM      7  C   UNL     1      -4.437   4.092   5.712  0.00  0.00    +0.125 C 
ATOM      8  C   UNL     1      -3.703   3.541   4.487  0.00  0.00    +0.125 C 
ATOM      9  N   UNL     1      -2.414   2.974   4.907  0.00  0.00    -0.314 N 
ATOM     10  C   UNL     1      -2.609   1.895   5.885  0.00  0.00    +0.125 C 
ATOM     11  C   UNL     1      -3.344   2.446   7.109  0.00  0.00    +0.125 C 
ATOM     12  N   UNL     1      -5.755   4.767   7.772  0.00  0.00    -0.348 N 
ATOM     13  H   UNL     1      -5.527   5.395   6.992  0.00  0.00    +0.167 HD
ENDROOT
BRANCH   9  14
ATOM     14  C   UNL     1      -1.685   2.527   3.810  0.00  0.00    +0.099 A 
ATOM     15  C   UNL     1      -0.432   1.955   4.002  0.00  0.00    +0.042 A 
ATOM     16  C   UNL     1       0.282   1.515   2.902  0.00  0.00    +0.017 A 
ATOM     17  C   UNL     1      -0.284   1.661   1.643  0.00  0.00    +0.071 A 
ATOM     18  C   UNL     1      -1.530   2.243   1.525  0.00  0.00    +0.096 A 
ATOM     19  N   UNL     1      -2.263   2.681   2.584  0.00  0.00    -0.349 N 
ATOM     20  H   UNL     1      -3.192   3.102   2.468  0.00  0.00    +0.167 HD
BRANCH  17  21
ATOM     21  C   UNL     1       0.457   1.196   0.416  0.00  0.00    +0.419 C 
ATOM     22  F   UNL     1       0.128  -0.137   0.149  0.00  0.00    -0.166 F 
ATOM     23  F   UNL     1       1.835   1.301   0.636  0.00  0.00    -0.166 F 
ATOM     24  F   UNL     1       0.098   1.993  -0.676  0.00  0.00    -0.166 F 
ENDBRANCH  17  21
ENDBRANCH   9  14
BRANCH   1  25
ATOM     25  N   UNL     1      -7.529   4.871  11.004  0.00  0.00    -0.296 N 
ATOM     26  H   UNL     1      -7.301   5.732  11.386  0.00  0.00    +0.154 HD
BRANCH  25  27
ATOM     27  C   UNL     1      -8.555   4.159  11.511  0.00  0.00    +0.135 C 
ATOM     28  S   UNL     1      -8.889   2.591  10.908  0.00  0.00    -0.019 S 
BRANCH  27  29
ATOM     29  N   UNL     1      -9.317   4.680  12.492  0.00  0.00    -0.326 N 
ATOM     30  H   UNL     1      -9.127   5.568  12.834  0.00  0.00    +0.148 HD
BRANCH  29  31
ATOM     31  C   UNL     1     -10.431   3.906  13.044  0.00  0.00    +0.105 C 
BRANCH  31  32
ATOM     32  C   UNL     1     -11.128   4.721  14.136  0.00  0.00    +0.047 C 
BRANCH  32  33
ATOM     33  C   UNL     1     -12.292   3.912  14.712  0.00  0.00    +0.161 C 
BRANCH  33  35
ATOM     34  C   UNL     1     -14.050   4.005  16.338  0.00  0.00    +0.193 C 
ATOM     35  O   UNL     1     -12.942   4.673  15.731  0.00  0.00    -0.383 OA
ENDBRANCH  33  35
ENDBRANCH  32  33
ENDBRANCH  31  32
ENDBRANCH  29  31
ENDBRANCH  27  29
ENDBRANCH  25  27
ENDBRANCH   1  25
TORSDOF 9
