REMARK  Name = ZINC33033966
REMARK  10 active torsions:
REMARK  status: ('A' for Active; 'I' for Inactive)
REMARK    1  A    between atoms: C_1  and  C_2
REMARK    2  A    between atoms: C_2  and  C_3
REMARK    3  A    between atoms: C_3  and  C_5
REMARK    4  A    between atoms: C_3  and  N_6
REMARK    5  A    between atoms: C_7  and  C_9
REMARK    6  A    between atoms: C_12  and  N_31
REMARK    7  A    between atoms: C_13  and  N_15
REMARK    8  A    between atoms: N_15  and  S_16
REMARK    9  A    between atoms: S_16  and  C_19
REMARK   10  A    between atoms: C_22  and  C_25
REMARK                            x       y       z     vdW  Elec       q    Type
REMARK                         _______ _______ _______ _____ _____    ______ ____
ROOT
ATOM      1  C   UNL     1       0.684   1.090   4.810  0.00  0.00    +0.039 A 
ATOM      2  C   UNL     1       2.056   0.998   5.058  0.00  0.00    +0.015 A 
ATOM      3  C   UNL     1       2.508   0.597   6.296  0.00  0.00    +0.026 A 
ATOM      4  C   UNL     1       1.601   0.272   7.299  0.00  0.00    +0.052 A 
ATOM      5  C   UNL     1       0.228   0.357   7.056  0.00  0.00    +0.070 A 
ATOM      6  C   UNL     1      -0.230   0.765   5.817  0.00  0.00    +0.039 A 
ENDROOT
BRANCH   4   7
ATOM      7  N   UNL     1       2.063  -0.138   8.548  0.00  0.00    -0.332 N 
ATOM      8  C   UNL     1       3.509  -0.396   8.516  0.00  0.00    +0.086 C 
ATOM      9  C   UNL     1       3.962  -0.919   9.882  0.00  0.00    -0.063 C 
ATOM     10  N   UNL     1       3.629   0.069  10.917  0.00  0.00    +0.381 N 
ATOM     11  C   UNL     1       2.182   0.327  10.948  0.00  0.00    -0.063 C 
ATOM     12  C   UNL     1       1.730   0.850   9.583  0.00  0.00    +0.086 C 
ATOM     13  H   UNL     1       3.942  -0.310  11.900  0.00  0.00    -0.086 HD
ATOM     14  H   UNL     1       4.152   1.013  10.704  0.00  0.00    -0.086 HD
ENDBRANCH   4   7
BRANCH   1  16
ATOM     15  N   UNL     1       1.082   1.840   2.517  0.00  0.00    -0.309 N 
ATOM     16  C   UNL     1       0.200   1.526   3.486  0.00  0.00    +0.244 C 
ATOM     17  O   UNL     1      -0.994   1.601   3.270  0.00  0.00    -0.270 OA
ATOM     18  H   UNL     1       2.162   1.771   2.712  0.00  0.00    +0.149 HD
BRANCH  15  19
ATOM     19  C   UNL     1       0.601   2.272   1.202  0.00  0.00    +0.070 C 
ATOM     20  C   UNL     1       0.321   3.776   1.231  0.00  0.00    +0.028 C 
BRANCH  19  22
ATOM     21  C   UNL     1       1.857   0.458   0.029  0.00  0.00    +0.005 C 
ATOM     22  C   UNL     1       1.667   1.972   0.146  0.00  0.00    +0.018 C 
ENDBRANCH  19  22
ENDBRANCH  15  19
ENDBRANCH   1  16
BRANCH   5  23
ATOM     23  N   UNL     1      -0.684   0.030   8.067  0.00  0.00    -0.214 N 
ATOM     24  H   UNL     1      -0.951   0.777   8.829  0.00  0.00    +0.174 HD
BRANCH  23  25
ATOM     25  S   UNL     1      -1.360  -1.480   8.116  0.00  0.00    +0.072 S 
ATOM     26  O   UNL     1      -2.208  -1.510   9.256  0.00  0.00    -0.150 OA
ATOM     27  O   UNL     1      -1.836  -1.755   6.805  0.00  0.00    -0.150 OA
BRANCH  25  28
ATOM     28  C   UNL     1      -0.057  -2.624   8.428  0.00  0.00    +0.109 A 
ATOM     29  C   UNL     1       0.629  -3.196   7.373  0.00  0.00    +0.029 A 
ATOM     30  C   UNL     1       1.655  -4.089   7.618  0.00  0.00    +0.006 A 
ATOM     31  C   UNL     1       1.987  -4.420   8.918  0.00  0.00    -0.044 A 
ATOM     32  C   UNL     1       1.297  -3.853   9.973  0.00  0.00    +0.006 A 
ATOM     33  C   UNL     1       0.275  -2.955   9.728  0.00  0.00    +0.029 A 
BRANCH  31  34
ATOM     34  C   UNL     1       3.101  -5.399   9.185  0.00  0.00    +0.019 C 
ATOM     35  C   UNL     1       4.406  -4.860   8.596  0.00  0.00    +0.008 C 
ATOM     36  C   UNL     1       5.537  -5.854   8.867  0.00  0.00    +0.001 C 
ATOM     37  C   UNL     1       5.202  -7.198   8.218  0.00  0.00    +0.000 C 
ATOM     38  C   UNL     1       3.897  -7.737   8.807  0.00  0.00    +0.001 C 
ATOM     39  C   UNL     1       2.766  -6.743   8.536  0.00  0.00    +0.008 C 
ENDBRANCH  31  34
ENDBRANCH  25  28
ENDBRANCH  23  25
ENDBRANCH   5  23
TORSDOF 8
