REMARK  Name = ZINC25057712
REMARK  7 active torsions:
REMARK  status: ('A' for Active; 'I' for Inactive)
REMARK    1  A    between atoms: C_1  and  C_2
REMARK    2  A    between atoms: C_7  and  C_8
REMARK    3  A    between atoms: C_8  and  C_10
REMARK    4  A    between atoms: C_8  and  N_11
REMARK    5  A    between atoms: N_11  and  C_12
REMARK    6  A    between atoms: C_12  and  C_13
REMARK    7  A    between atoms: C_19  and  C_24
REMARK                            x       y       z     vdW  Elec       q    Type
REMARK                         _______ _______ _______ _____ _____    ______ ____
ROOT
ATOM      1  C   UNL     1      -3.898  -0.847   3.088  0.00  0.00    +0.094 A 
ATOM      2  N   UNL     1      -2.696  -0.250   3.290  0.00  0.00    -0.312 N 
ATOM      3  H   UNL     1      -2.139  -0.436   4.221  0.00  0.00    +0.170 HD
ATOM      4  C   UNL     1      -2.160   0.574   2.370  0.00  0.00    +0.260 A 
ATOM      5  O   UNL     1      -1.079   1.103   2.567  0.00  0.00    -0.267 OA
ATOM      6  C   UNL     1      -2.879   0.820   1.157  0.00  0.00    +0.080 A 
ATOM      7  C   UNL     1      -2.514   1.661   0.023  0.00  0.00    +0.005 A 
ATOM      8  C   UNL     1      -3.367   1.744  -1.027  0.00  0.00    +0.056 A 
ATOM      9  S   UNL     1      -4.714   0.679  -0.550  0.00  0.00    -0.076 S 
ATOM     10  C   UNL     1      -4.112   0.159   1.036  0.00  0.00    +0.116 A 
ATOM     11  N   UNL     1      -4.577  -0.642   1.991  0.00  0.00    -0.229 NA
ENDROOT
BRANCH   7  12
ATOM     12  C   UNL     1      -1.238   2.414   0.021  0.00  0.00    +0.002 A 
ATOM     13  C   UNL     1      -1.248   3.808   0.035  0.00  0.00    +0.010 A 
ATOM     14  C   UNL     1      -0.057   4.505   0.027  0.00  0.00    +0.001 A 
ATOM     15  C   UNL     1       1.146   3.823   0.011  0.00  0.00    +0.001 A 
ATOM     16  C   UNL     1       1.164   2.440   0.004  0.00  0.00    +0.020 A 
ATOM     17  C   UNL     1      -0.021   1.732   0.012  0.00  0.00    +0.049 A 
ATOM     18 CL   UNL     1       0.002  -0.004   0.002  0.00  0.00    -0.083 Cl
ENDBRANCH   7  12
BRANCH   1  19
ATOM     19  C   UNL     1      -4.458  -1.761   4.146  0.00  0.00    -0.006 C 
BRANCH  19  20
ATOM     20  N   UNL     1      -5.758  -2.284   3.704  0.00  0.00    +0.388 N 
ATOM     21  H   UNL     1      -5.615  -2.834   2.762  0.00  0.00    -0.084 HD
ATOM     22  H   UNL     1      -6.439  -1.437   3.533  0.00  0.00    -0.084 HD
BRANCH  20  23
ATOM     23  C   UNL     1      -6.336  -3.182   4.713  0.00  0.00    -0.043 C 
ATOM     24  C   UNL     1      -7.096  -2.357   5.754  0.00  0.00    -0.009 C 
BRANCH  23  31
ATOM     25  C   UNL     1      -7.049  -5.653   6.028  0.00  0.00    +0.044 C 
ATOM     26  C   UNL     1      -7.625  -5.327   4.674  0.00  0.00    -0.049 A 
ATOM     27  C   UNL     1      -8.498  -6.208   4.064  0.00  0.00    +0.003 A 
ATOM     28  C   UNL     1      -9.022  -5.910   2.820  0.00  0.00    +0.000 A 
ATOM     29  C   UNL     1      -8.677  -4.730   2.188  0.00  0.00    +0.000 A 
ATOM     30  C   UNL     1      -7.808  -3.847   2.801  0.00  0.00    +0.002 A 
ATOM     31  C   UNL     1      -7.284  -4.144   4.045  0.00  0.00    -0.059 A 
ENDBRANCH  23  31
ENDBRANCH  20  23
ENDBRANCH  19  20
ENDBRANCH   1  19
TORSDOF 5
