REMARK  Name = ZINC38520241
REMARK  3 active torsions:
REMARK  status: ('A' for Active; 'I' for Inactive)
REMARK    1  A    between atoms: C_1  and  N_2
REMARK    2  A    between atoms: C_8  and  C_10
REMARK    3  A    between atoms: C_24  and  C_30
REMARK                            x       y       z     vdW  Elec       q    Type
REMARK                         _______ _______ _______ _____ _____    ______ ____
ROOT
ATOM      1  C   UNL     1      -0.018   1.461   0.010  0.00  0.00    +0.174 C 
ATOM      2  N   UNL     1       0.002  -0.004   0.002  0.00  0.00    -0.251 N 
ATOM      3  C   UNL     1       0.008  -0.791  -1.090  0.00  0.00    +0.129 A 
ATOM      4  C   UNL     1       0.041  -2.092  -0.665  0.00  0.00    +0.042 A 
ATOM      5  C   UNL     1       0.042  -2.089   0.727  0.00  0.00    +0.153 A 
ATOM      6  N   UNL     1       0.025  -0.837   1.132  0.00  0.00    -0.154 NA
ATOM      7  N   UNL     1       0.064  -3.222   1.552  0.00  0.00    -0.268 N 
ATOM      8  C   UNL     1       0.062  -3.079   2.892  0.00  0.00    +0.230 C 
ATOM      9  O   UNL     1       0.042  -1.970   3.384  0.00  0.00    -0.274 OA
ATOM     10  C   UNL     1       0.078  -3.254  -1.625  0.00  0.00    +0.071 C 
ATOM     11  C   UNL     1      -0.624  -2.831  -2.920  0.00  0.00    +0.109 C 
ATOM     12  C   UNL     1      -0.204  -1.451  -3.340  0.00  0.00    +0.219 C 
ATOM     13  O   UNL     1      -0.044  -1.219  -4.520  0.00  0.00    -0.275 OA
ATOM     14  N   UNL     1       0.001  -0.461  -2.445  0.00  0.00    -0.270 N 
ATOM     15  H   UNL     1       0.080  -4.108   1.159  0.00  0.00    +0.156 HD
ATOM     16  H   UNL     1       0.139   0.454  -2.737  0.00  0.00    +0.156 HD
ENDROOT
BRANCH   8  17
ATOM     17  C   UNL     1       0.085  -4.296   3.780  0.00  0.00    +0.142 C 
ATOM     18  C   UNL     1      -1.116  -5.152   3.482  0.00  0.00    +0.011 A 
ATOM     19  C   UNL     1      -1.115  -5.955   2.356  0.00  0.00    +0.008 A 
ATOM     20  C   UNL     1      -2.208  -6.748   2.066  0.00  0.00    +0.001 A 
ATOM     21  C   UNL     1      -3.310  -6.741   2.901  0.00  0.00    +0.004 A 
ATOM     22  C   UNL     1      -3.317  -5.941   4.027  0.00  0.00    +0.046 A 
ATOM     23  C   UNL     1      -2.218  -5.143   4.321  0.00  0.00    +0.133 A 
ATOM     24  O   UNL     1      -2.243  -4.365   5.431  0.00  0.00    -0.455 OA
ATOM     25  C   UNL     1      -1.084  -3.918   5.972  0.00  0.00    +0.133 A 
ATOM     26  C   UNL     1       0.079  -3.862   5.220  0.00  0.00    +0.011 A 
ATOM     27  C   UNL     1       1.250  -3.402   5.796  0.00  0.00    +0.008 A 
ATOM     28  C   UNL     1       1.263  -2.998   7.117  0.00  0.00    +0.001 A 
ATOM     29  C   UNL     1       0.105  -3.054   7.870  0.00  0.00    +0.004 A 
ATOM     30  C   UNL     1      -1.067  -3.512   7.301  0.00  0.00    +0.046 A 
ENDBRANCH   8  17
BRANCH  10  31
ATOM     31  C   UNL     1       1.509  -3.624  -1.920  0.00  0.00    -0.002 A 
ATOM     32  C   UNL     1       2.148  -4.801  -1.709  0.00  0.00    +0.012 A 
ATOM     33  C   UNL     1       3.479  -4.914  -2.062  0.00  0.00    +0.008 A 
ATOM     34  C   UNL     1       4.107  -3.845  -2.610  0.00  0.00    +0.045 A 
ATOM     35  S   UNL     1       2.801  -2.628  -2.646  0.00  0.00    -0.101 S 
ENDBRANCH  10  31
TORSDOF 2
