REMARK  Name = ZINC02085596
REMARK  9 active torsions:
REMARK  status: ('A' for Active; 'I' for Inactive)
REMARK    1  A    between atoms: C_1  and  C_2
REMARK    2  A    between atoms: C_5  and  C_8
REMARK    3  A    between atoms: C_10  and  C_18
REMARK    4  A    between atoms: N_20  and  C_21
REMARK    5  A    between atoms: C_22  and  C_35
REMARK    6  A    between atoms: C_27  and  C_31
REMARK    7  A    between atoms: C_31  and  C_32
REMARK    8  A    between atoms: C_31  and  C_33
REMARK    9  A    between atoms: C_31  and  C_34
REMARK                            x       y       z     vdW  Elec       q    Type
REMARK                         _______ _______ _______ _____ _____    ______ ____
ROOT
ATOM      1  C   UNL     1      -1.322  -2.201   0.002  0.00  0.00    +0.249 C 
ATOM      2  O   UNL     1      -0.295  -2.842  -0.103  0.00  0.00    -0.270 OA
ATOM      3  N   UNL     1      -2.505  -2.836   0.112  0.00  0.00    -0.275 N 
ATOM      4  H   UNL     1      -3.325  -2.324   0.196  0.00  0.00    +0.156 HD
ENDROOT
BRANCH   1   7
ATOM      5  C   UNL     1      -2.339   1.438   0.019  0.00  0.00    +0.072 A 
ATOM      6  C   UNL     1      -2.433   0.038   0.011  0.00  0.00    +0.042 A 
ATOM      7  C   UNL     1      -1.272  -0.723   0.010  0.00  0.00    +0.048 A 
ATOM      8  C   UNL     1       0.002  -0.004   0.017  0.00  0.00    +0.013 A 
ATOM      9  C   UNL     1       1.225  -0.684   0.017  0.00  0.00    +0.011 A 
ATOM     10  C   UNL     1       2.390   0.026   0.023  0.00  0.00    +0.001 A 
ATOM     11  C   UNL     1       2.377   1.419   0.030  0.00  0.00    +0.002 A 
ATOM     12  C   UNL     1       1.205   2.111   0.030  0.00  0.00    +0.028 A 
ATOM     13  C   UNL     1      -0.017   1.413   0.024  0.00  0.00    +0.072 A 
ATOM     14  N   UNL     1      -1.181   2.064   0.030  0.00  0.00    -0.247 NA
BRANCH   5  19
ATOM     15  C   UNL     1      -7.184   4.549   0.025  0.00  0.00    +0.044 C 
ATOM     16  C   UNL     1      -5.916   3.735   0.024  0.00  0.00    -0.050 A 
ATOM     17  C   UNL     1      -4.688   4.372   0.029  0.00  0.00    +0.004 A 
ATOM     18  C   UNL     1      -3.524   3.632   0.028  0.00  0.00    +0.010 A 
ATOM     19  C   UNL     1      -3.586   2.239   0.020  0.00  0.00    +0.000 A 
ATOM     20  C   UNL     1      -4.827   1.603   0.009  0.00  0.00    +0.010 A 
ATOM     21  C   UNL     1      -5.984   2.353   0.017  0.00  0.00    +0.004 A 
ENDBRANCH   5  19
ENDBRANCH   1   7
BRANCH   3  22
ATOM     22  C   UNL     1      -2.551  -4.220   0.105  0.00  0.00    +0.085 A 
ATOM     23  C   UNL     1      -3.662  -5.047   0.205  0.00  0.00    +0.068 A 
ATOM     24  C   UNL     1      -3.437  -6.482   0.171  0.00  0.00    -0.023 A 
ATOM     25  C   UNL     1      -2.146  -6.858   0.043  0.00  0.00    -0.004 A 
ATOM     26  S   UNL     1      -1.238  -5.341  -0.041  0.00  0.00    -0.077 S 
ATOM     27  C   UNL     1      -1.615  -8.257  -0.020  0.00  0.00    +0.046 C 
ATOM     28  C   UNL     1      -2.716  -9.214   0.460  0.00  0.00    -0.000 C 
ATOM     29  C   UNL     1      -4.024  -8.856  -0.251  0.00  0.00    +0.009 C 
ATOM     30  C   UNL     1      -4.550  -7.517   0.270  0.00  0.00    +0.037 C 
BRANCH  23  31
ATOM     31  C   UNL     1      -5.013  -4.492   0.341  0.00  0.00    +0.244 C 
ATOM     32  O   UNL     1      -5.675  -4.253  -0.652  0.00  0.00    -0.270 OA
ATOM     33  N   UNL     1      -5.521  -4.248   1.565  0.00  0.00    -0.325 N 
ATOM     34  H   UNL     1      -4.993  -4.438   2.356  0.00  0.00    +0.145 HD
ATOM     35  H   UNL     1      -6.414  -3.881   1.655  0.00  0.00    +0.145 HD
ENDBRANCH  23  31
BRANCH  28  36
ATOM     36  C   UNL     1      -2.326 -10.655   0.122  0.00  0.00    -0.035 C 
ATOM     37  C   UNL     1      -1.010 -11.004   0.819  0.00  0.00    +0.011 C 
ATOM     38  C   UNL     1      -3.425 -11.606   0.601  0.00  0.00    +0.011 C 
ATOM     39  C   UNL     1      -2.154 -10.795  -1.392  0.00  0.00    +0.011 C 
ENDBRANCH  28  36
ENDBRANCH   3  22
TORSDOF 5
