REMARK  Name = ZINC22433339
REMARK  8 active torsions:
REMARK  status: ('A' for Active; 'I' for Inactive)
REMARK    1  A    between atoms: C_1  and  C_2
REMARK    2  A    between atoms: C_3  and  C_21
REMARK    3  A    between atoms: C_7  and  N_8
REMARK    4  A    between atoms: C_9  and  C_11
REMARK    5  A    between atoms: C_11  and  C_12
REMARK    6  A    between atoms: C_11  and  C_13
REMARK    7  A    between atoms: C_11  and  O_14
REMARK    8  A    between atoms: O_14  and  C_15
REMARK                            x       y       z     vdW  Elec       q    Type
REMARK                         _______ _______ _______ _____ _____    ______ ____
ROOT
ATOM      1  C   UNL     1       5.592   2.251   0.909  0.00  0.00    +0.046 C 
ATOM      2  C   UNL     1       4.400   3.130   0.631  0.00  0.00    -0.019 A 
ATOM      3  C   UNL     1       3.185   2.561   0.248  0.00  0.00    +0.022 A 
ATOM      4  C   UNL     1       2.087   3.382  -0.014  0.00  0.00    +0.012 A 
ATOM      5  C   UNL     1       2.203   4.751   0.116  0.00  0.00    +0.003 A 
ATOM      6  C   UNL     1       3.407   5.315   0.494  0.00  0.00    +0.023 A 
ATOM      7  C   UNL     1       4.507   4.506   0.753  0.00  0.00    +0.037 A 
ENDROOT
BRANCH   3   8
ATOM      8  C   UNL     1       3.063   1.093   0.116  0.00  0.00    +0.140 A 
ATOM      9  N   UNL     1       1.892   0.417  -0.098  0.00  0.00    -0.338 N 
ATOM     10  H   UNL     1       0.945   0.970  -0.183  0.00  0.00    +0.167 HD
ATOM     11  C   UNL     1       2.203  -0.927  -0.163  0.00  0.00    +0.066 A 
ATOM     12  C   UNL     1       1.455  -2.081  -0.357  0.00  0.00    +0.028 A 
ATOM     13  C   UNL     1       2.083  -3.308  -0.369  0.00  0.00    +0.002 A 
ATOM     14  C   UNL     1       3.457  -3.398  -0.189  0.00  0.00    +0.002 A 
ATOM     15  C   UNL     1       4.209  -2.274   0.003  0.00  0.00    +0.030 A 
ATOM     16  C   UNL     1       3.594  -1.018   0.019  0.00  0.00    +0.089 A 
ATOM     17  N   UNL     1       4.059   0.244   0.183  0.00  0.00    -0.228 NA
ENDBRANCH   3   8
BRANCH   7  18
ATOM     18  N   UNL     1       5.724   5.082   1.136  0.00  0.00    -0.282 N 
ATOM     19  C   UNL     1       5.733   6.211   1.872  0.00  0.00    +0.261 C 
ATOM     20  O   UNL     1       4.689   6.769   2.139  0.00  0.00    -0.271 OA
ATOM     21  H   UNL     1       6.673   4.613   0.837  0.00  0.00    +0.155 HD
BRANCH  19  22
ATOM     22  C   UNL     1       7.039   6.781   2.363  0.00  0.00    +0.180 C 
ATOM     23  C   UNL     1       7.740   5.754   3.254  0.00  0.00    +0.065 C 
ATOM     24  C   UNL     1       7.932   7.112   1.166  0.00  0.00    +0.065 C 
BRANCH  22  25
ATOM     25  O   UNL     1       6.788   7.970   3.114  0.00  0.00    -0.477 OA
BRANCH  25  26
ATOM     26  C   UNL     1       6.036   7.842   4.239  0.00  0.00    +0.122 A 
ATOM     27  C   UNL     1       5.434   6.629   4.538  0.00  0.00    +0.046 A 
ATOM     28  C   UNL     1       4.675   6.500   5.685  0.00  0.00    +0.004 A 
ATOM     29  C   UNL     1       4.506   7.582   6.529  0.00  0.00    +0.000 A 
ATOM     30  C   UNL     1       5.100   8.794   6.230  0.00  0.00    +0.004 A 
ATOM     31  C   UNL     1       5.865   8.927   5.087  0.00  0.00    +0.046 A 
ENDBRANCH  25  26
ENDBRANCH  22  25
ENDBRANCH  19  22
ENDBRANCH   7  18
TORSDOF 5
