REMARK  Name = ZINC12431694
REMARK  12 active torsions:
REMARK  status: ('A' for Active; 'I' for Inactive)
REMARK    1  A    between atoms: C_1  and  C_2
REMARK    2  A    between atoms: C_4  and  C_28
REMARK    3  A    between atoms: N_5  and  C_7
REMARK    4  A    between atoms: C_7  and  C_8
REMARK    5  A    between atoms: C_8  and  N_9
REMARK    6  A    between atoms: N_9  and  C_10
REMARK    7  A    between atoms: C_11  and  C_13
REMARK    8  A    between atoms: C_13  and  C_14
REMARK    9  A    between atoms: C_14  and  C_15
REMARK   10  A    between atoms: C_18  and  C_20
REMARK   11  A    between atoms: C_20  and  C_21
REMARK   12  A    between atoms: C_21  and  C_22
REMARK                            x       y       z     vdW  Elec       q    Type
REMARK                         _______ _______ _______ _____ _____    ______ ____
ROOT
ATOM      1  C   UNL     1       1.550  -5.953   4.863  0.00  0.00    +0.105 C 
ENDROOT
BRANCH   1   4
ATOM      2  N   UNL     1       1.525  -4.873   2.637  0.00  0.00    -0.303 N 
ATOM      3  C   UNL     1       1.541  -6.211   2.041  0.00  0.00    +0.132 C 
ATOM      4  C   UNL     1       1.529  -4.733   3.978  0.00  0.00    +0.216 C 
ATOM      5  O   UNL     1       1.516  -3.626   4.472  0.00  0.00    -0.276 OA
BRANCH   2   6
ATOM      6  C   UNL     1       1.504  -3.688   1.777  0.00  0.00    +0.130 C 
BRANCH   6   7
ATOM      7  C   UNL     1       0.055  -3.295   1.485  0.00  0.00    +0.162 C 
BRANCH   7  12
ATOM      8  C   UNL     1      -0.018   1.503   0.010  0.00  0.00    +0.067 C 
ATOM      9  C   UNL     1       0.002  -0.004   0.002  0.00  0.00    +0.060 A 
ATOM     10  C   UNL     1       0.008  -0.818  -1.135  0.00  0.00    +0.047 A 
ATOM     11  C   UNL     1       0.028  -2.107  -0.725  0.00  0.00    +0.036 A 
ATOM     12  N   UNL     1       0.034  -2.109   0.625  0.00  0.00    -0.267 N 
ATOM     13  N   UNL     1       0.023  -0.777   1.058  0.00  0.00    -0.176 NA
ATOM     14  C   UNL     1       0.040  -3.323  -1.615  0.00  0.00    +0.065 C 
ENDBRANCH   7  12
ENDBRANCH   6   7
ENDBRANCH   2   6
ENDBRANCH   1   4
BRANCH   1  15
ATOM     15  C   UNL     1       1.551  -5.519   6.330  0.00  0.00    +0.107 C 
BRANCH  15  16
ATOM     16  C   UNL     1       1.572  -6.739   7.215  0.00  0.00    +0.218 A 
ATOM     17  N   UNL     1       2.633  -7.345   7.667  0.00  0.00    -0.112 NA
ATOM     18  N   UNL     1       2.276  -8.347   8.390  0.00  0.00    -0.112 NA
ATOM     19  C   UNL     1       0.976  -8.415   8.424  0.00  0.00    +0.217 A 
ATOM     20  O   UNL     1       0.500  -7.397   7.687  0.00  0.00    -0.425 OA
BRANCH  19  21
ATOM     21  C   UNL     1       0.155  -9.442   9.161  0.00  0.00    +0.098 C 
BRANCH  21  22
ATOM     22  C   UNL     1      -0.137  -8.942  10.577  0.00  0.00    +0.013 C 
BRANCH  22  23
ATOM     23  C   UNL     1      -0.970  -9.985  11.324  0.00  0.00    -0.011 C 
ATOM     24  C   UNL     1      -2.338 -10.121  10.653  0.00  0.00    +0.003 C 
ATOM     25  C   UNL     1      -3.171 -11.164  11.401  0.00  0.00    +0.000 C 
ATOM     26  C   UNL     1      -3.358 -10.722  12.854  0.00  0.00    +0.000 C 
ATOM     27  C   UNL     1      -1.990 -10.586  13.525  0.00  0.00    +0.000 C 
ATOM     28  C   UNL     1      -1.156  -9.543  12.777  0.00  0.00    +0.003 C 
ENDBRANCH  22  23
ENDBRANCH  21  22
ENDBRANCH  19  21
ENDBRANCH  15  16
ENDBRANCH   1  15
TORSDOF 9
