REMARK  Name = ZINC20548675
REMARK  9 active torsions:
REMARK  status: ('A' for Active; 'I' for Inactive)
REMARK    1  A    between atoms: C_1  and  C_2
REMARK    2  A    between atoms: C_2  and  C_3
REMARK    3  A    between atoms: C_2  and  C_4
REMARK    4  A    between atoms: C_4  and  C_5
REMARK    5  A    between atoms: N_13  and  C_16
REMARK    6  A    between atoms: C_16  and  C_17
REMARK    7  A    between atoms: C_17  and  C_18
REMARK    8  A    between atoms: C_18  and  O_19
REMARK    9  A    between atoms: O_19  and  C_20
REMARK                            x       y       z     vdW  Elec       q    Type
REMARK                         _______ _______ _______ _____ _____    ______ ____
ROOT
ATOM      1  C   UNL     1      -2.050  -0.348  -1.381  0.00  0.00    -0.057 C 
ATOM      2  C   UNL     1      -3.471  -0.951  -1.424  0.00  0.00    +0.073 C 
ATOM      3  C   UNL     1      -4.319   0.087  -2.211  0.00  0.00    +0.088 C 
ATOM      4  C   UNL     1      -4.692  -0.654  -3.475  0.00  0.00    +0.225 C 
ATOM      5  O   UNL     1      -5.358  -0.203  -4.381  0.00  0.00    -0.275 OA
ATOM      6  N   UNL     1      -4.173  -1.887  -3.437  0.00  0.00    -0.242 N 
ATOM      7  C   UNL     1      -3.466  -2.170  -2.318  0.00  0.00    +0.224 C 
ATOM      8  O   UNL     1      -2.915  -3.220  -2.067  0.00  0.00    -0.275 OA
ATOM      9  C   UNL     1      -3.342   1.225  -2.529  0.00  0.00    +0.050 C 
ATOM     10  N   UNL     1      -2.249   1.115  -1.551  0.00  0.00    +0.394 N 
ATOM     11  C   UNL     1      -4.019   2.565  -2.474  0.00  0.00    -0.026 A 
ATOM     12  C   UNL     1      -4.695   3.246  -1.486  0.00  0.00    +0.024 A 
ATOM     13  C   UNL     1      -5.220   4.500  -1.745  0.00  0.00    +0.041 A 
ATOM     14  C   UNL     1      -5.063   5.067  -2.998  0.00  0.00    +0.022 A 
ATOM     15  C   UNL     1      -4.387   4.388  -3.990  0.00  0.00    +0.025 A 
ATOM     16  C   UNL     1      -3.856   3.125  -3.738  0.00  0.00    +0.036 A 
ATOM     17  N   UNL     1      -3.143   2.253  -4.564  0.00  0.00    -0.286 N 
ATOM     18  C   UNL     1      -2.805   1.114  -3.930  0.00  0.00    +0.211 C 
ATOM     19  O   UNL     1      -2.188   0.180  -4.397  0.00  0.00    -0.277 OA
ATOM     20 CL   UNL     1      -6.074   5.360  -0.501  0.00  0.00    -0.084 Cl
ATOM     21  H   UNL     1      -2.527   1.538  -0.678  0.00  0.00    -0.083 HD
ATOM     22  H   UNL     1      -2.917   2.446  -5.488  0.00  0.00    +0.155 HD
ATOM     23  H   UNL     1      -1.408   1.548  -1.903  0.00  0.00    -0.083 HD
ENDROOT
BRANCH   1  24
ATOM     24  C   UNL     1      -1.388  -0.642  -0.033  0.00  0.00    -0.012 C 
BRANCH  24  26
ATOM     25  C   UNL     1       0.632  -0.219   1.375  0.00  0.00    +0.007 C 
ATOM     26  C   UNL     1       0.024  -0.052  -0.019  0.00  0.00    -0.019 C 
ATOM     27  C   UNL     1       0.892  -0.784  -1.045  0.00  0.00    +0.007 C 
ENDBRANCH  24  26
ENDBRANCH   1  24
BRANCH   6  28
ATOM     28  C   UNL     1      -4.358  -2.858  -4.518  0.00  0.00    +0.118 C 
BRANCH  28  29
ATOM     29  C   UNL     1      -3.225  -2.711  -5.535  0.00  0.00    +0.047 C 
BRANCH  29  30
ATOM     30  C   UNL     1      -3.419  -3.726  -6.664  0.00  0.00    +0.161 C 
BRANCH  30  31
ATOM     31  O   UNL     1      -2.361  -3.588  -7.615  0.00  0.00    -0.383 OA
ATOM     32  C   UNL     1      -2.447  -4.495  -8.716  0.00  0.00    +0.193 C 
ENDBRANCH  30  31
ENDBRANCH  29  30
ENDBRANCH  28  29
ENDBRANCH   6  28
TORSDOF 6
