REMARK  Name = ZINC65565298
REMARK  3 active torsions:
REMARK  status: ('A' for Active; 'I' for Inactive)
REMARK    1  A    between atoms: C_4  and  N_7
REMARK    2  A    between atoms: C_9  and  C_12
REMARK    3  A    between atoms: C_14  and  C_17
REMARK                            x       y       z     vdW  Elec       q    Type
REMARK                         _______ _______ _______ _____ _____    ______ ____
ROOT
ATOM      1  C   UNL     1       5.752  -3.633  -0.506  0.00  0.00    +0.112 A 
ATOM      2  N   UNL     1       7.036  -3.942  -0.475  0.00  0.00    -0.234 NA
ATOM      3  C   UNL     1       7.379  -5.186  -0.162  0.00  0.00    +0.133 A 
ATOM      4  C   UNL     1       6.396  -6.097   0.116  0.00  0.00    +0.080 A 
ATOM      5  S   UNL     1       4.993  -5.185  -0.061  0.00  0.00    -0.075 S 
ENDROOT
BRANCH   3   6
ATOM      6  C   UNL     1       8.797  -5.580  -0.115  0.00  0.00    +0.265 C 
ATOM      7  O   UNL     1       9.099  -6.752   0.009  0.00  0.00    -0.268 OA
ATOM      8  N   UNL     1       9.761  -4.643  -0.209  0.00  0.00    -0.296 N 
ATOM      9  C   UNL     1       9.419  -3.214  -0.187  0.00  0.00    +0.108 C 
ATOM     10  C   UNL     1      10.245  -2.527   0.905  0.00  0.00    +0.019 C 
ATOM     11  C   UNL     1      11.730  -2.814   0.674  0.00  0.00    +0.003 C 
ATOM     12  C   UNL     1      11.978  -4.322   0.758  0.00  0.00    +0.019 C 
ATOM     13  C   UNL     1      11.173  -5.030  -0.330  0.00  0.00    +0.108 C 
ENDBRANCH   3   6
BRANCH   1  16
ATOM     14  N   UNL     1       3.606  -0.783  -1.164  0.00  0.00    -0.239 N 
ATOM     15  C   UNL     1       3.770  -2.080  -0.828  0.00  0.00    +0.125 A 
ATOM     16  C   UNL     1       5.112  -2.337  -0.820  0.00  0.00    +0.045 A 
ATOM     17  C   UNL     1       5.775  -1.141  -1.166  0.00  0.00    +0.145 A 
ATOM     18  N   UNL     1       4.871  -0.221  -1.375  0.00  0.00    -0.174 NA
BRANCH  14  22
ATOM     19  C   UNL     1      -0.040   1.205  -1.529  0.00  0.00    +0.000 A 
ATOM     20  C   UNL     1       1.143   1.883  -1.766  0.00  0.00    +0.002 A 
ATOM     21  C   UNL     1       2.352   1.227  -1.646  0.00  0.00    +0.028 A 
ATOM     22  C   UNL     1       2.380  -0.114  -1.286  0.00  0.00    +0.065 A 
ATOM     23  C   UNL     1       1.192  -0.792  -1.049  0.00  0.00    +0.028 A 
ATOM     24  C   UNL     1      -0.015  -0.130  -1.171  0.00  0.00    +0.002 A 
ENDBRANCH  14  22
ENDBRANCH   1  16
TORSDOF 3
