REMARK  Name = ZINC20583215
REMARK  15 active torsions:
REMARK  status: ('A' for Active; 'I' for Inactive)
REMARK    1  A    between atoms: C_1  and  C_2
REMARK    2  A    between atoms: C_2  and  C_3
REMARK    3  A    between atoms: C_3  and  C_4
REMARK    4  A    between atoms: C_4  and  O_5
REMARK    5  A    between atoms: O_5  and  C_6
REMARK    6  A    between atoms: C_6  and  C_8
REMARK    7  A    between atoms: C_9  and  N_33
REMARK    8  A    between atoms: N_10  and  C_30
REMARK    9  A    between atoms: C_18  and  C_24
REMARK   10  A    between atoms: C_19  and  C_23
REMARK   11  A    between atoms: C_24  and  O_26
REMARK   12  A    between atoms: O_26  and  C_27
REMARK   13  A    between atoms: C_27  and  C_28
REMARK   14  A    between atoms: C_27  and  C_29
REMARK   15  A    between atoms: C_30  and  C_31
REMARK                            x       y       z     vdW  Elec       q    Type
REMARK                         _______ _______ _______ _____ _____    ______ ____
ROOT
ATOM      1  C   UNL     1       2.356  -0.649   1.258  0.00  0.00    +0.098 C 
ATOM      2  C   UNL     1       3.456   0.117   0.962  0.00  0.00    +0.100 C 
ATOM      3  N   UNL     1       3.708   0.511  -0.325  0.00  0.00    -0.284 N 
ATOM      4  C   UNL     1       3.090  -0.142  -1.395  0.00  0.00    +0.040 A 
ATOM      5  C   UNL     1       3.609  -0.009  -2.677  0.00  0.00    +0.024 A 
ATOM      6  C   UNL     1       3.008  -0.659  -3.736  0.00  0.00    +0.002 A 
ATOM      7  C   UNL     1       1.888  -1.442  -3.520  0.00  0.00    +0.000 A 
ATOM      8  C   UNL     1       1.369  -1.574  -2.247  0.00  0.00    +0.007 A 
ATOM      9  C   UNL     1       1.964  -0.925  -1.179  0.00  0.00    +0.000 A 
ATOM     10  C   UNL     1       1.389  -1.076   0.198  0.00  0.00    +0.164 C 
ATOM     11  C   UNL     1       0.100  -0.290   0.314  0.00  0.00    +0.100 C 
ATOM     12  C   UNL     1      -0.858  -1.199   0.562  0.00  0.00    +0.117 C 
ATOM     13  O   UNL     1      -0.380  -2.448   0.629  0.00  0.00    -0.429 OA
ATOM     14  C   UNL     1       0.949  -2.505   0.432  0.00  0.00    +0.332 C 
ATOM     15  O   UNL     1       1.645  -3.492   0.435  0.00  0.00    -0.249 OA
ATOM     16  C   UNL     1      -2.313  -0.851   0.745  0.00  0.00    +0.087 C 
ENDROOT
BRANCH   2  17
ATOM     17  N   UNL     1       4.311   0.491   1.966  0.00  0.00    -0.346 N 
ATOM     18  H   UNL     1       5.194   1.106   1.736  0.00  0.00    +0.143 HD
ATOM     19  H   UNL     1       4.114   0.177   3.002  0.00  0.00    +0.143 HD
ENDBRANCH   2  17
BRANCH   1  20
ATOM     20  C   UNL     1       2.134  -1.042   2.583  0.00  0.00    +0.340 C 
ATOM     21  O   UNL     1       1.272  -0.491   3.245  0.00  0.00    -0.245 OA
BRANCH  20  22
ATOM     22  O   UNL     1       2.875  -2.031   3.128  0.00  0.00    -0.461 OA
BRANCH  22  23
ATOM     23  C   UNL     1       2.594  -2.380   4.486  0.00  0.00    +0.232 C 
BRANCH  23  24
ATOM     24  C   UNL     1       3.526  -3.511   4.925  0.00  0.00    +0.041 C 
BRANCH  24  26
ATOM     25  C   UNL     1       4.157  -5.015   6.818  0.00  0.00    +0.004 C 
ATOM     26  C   UNL     1       3.225  -3.884   6.378  0.00  0.00    -0.000 C 
ENDBRANCH  24  26
ENDBRANCH  23  24
ENDBRANCH  22  23
ENDBRANCH  20  22
ENDBRANCH   1  20
BRANCH  11  27
ATOM     27  C   UNL     1      -0.063   1.112   0.183  0.00  0.00    +0.340 C 
ATOM     28  O   UNL     1       0.913   1.830   0.078  0.00  0.00    -0.245 OA
BRANCH  27  29
ATOM     29  O   UNL     1      -1.300   1.649   0.179  0.00  0.00    -0.459 OA
BRANCH  29  30
ATOM     30  C   UNL     1      -1.396   3.055  -0.061  0.00  0.00    +0.171 C 
ATOM     31  C   UNL     1      -1.613   3.303  -1.555  0.00  0.00    +0.052 C 
ATOM     32  C   UNL     1      -2.576   3.628   0.727  0.00  0.00    +0.052 C 
ENDBRANCH  29  30
ENDBRANCH  27  29
ENDBRANCH  11  27
BRANCH   3  33
ATOM     33  C   UNL     1       4.629   1.621  -0.581  0.00  0.00    +0.139 C 
BRANCH  33  34
ATOM     34  C   UNL     1       3.878   2.926  -0.497  0.00  0.00    -0.015 C 
ATOM     35  C   UNL     1       4.280   3.861   0.328  0.00  0.00    +0.005 C 
ENDBRANCH  33  34
ENDBRANCH   3  33
TORSDOF 11
