REMARK  Name = ZINC67040293
REMARK  5 active torsions:
REMARK  status: ('A' for Active; 'I' for Inactive)
REMARK    1  A    between atoms: C_6  and  C_7
REMARK    2  A    between atoms: N_9  and  N_10
REMARK    3  A    between atoms: N_13  and  C_14
REMARK    4  A    between atoms: C_14  and  C_15
REMARK    5  A    between atoms: C_15  and  C_18
REMARK                            x       y       z     vdW  Elec       q    Type
REMARK                         _______ _______ _______ _____ _____    ______ ____
ROOT
ATOM      1  N   UNL     1      -2.420  -2.811   0.006  0.00  0.00    -0.218 N 
ATOM      2  C   UNL     1      -2.411  -4.155  -0.096  0.00  0.00    +0.316 C 
ATOM      3  O   UNL     1      -3.460  -4.765  -0.172  0.00  0.00    -0.251 OA
ATOM      4  N   UNL     1      -1.240  -4.822  -0.114  0.00  0.00    -0.297 N 
ATOM      5  H   UNL     1      -3.261  -2.337   0.094  0.00  0.00    +0.174 HD
ATOM      6  H   UNL     1      -0.407  -4.343   0.022  0.00  0.00    +0.150 HD
ENDROOT
BRANCH   1   9
ATOM      7  C   UNL     1      -1.226  -0.751  -0.017  0.00  0.00    +0.260 C 
ATOM      8  O   UNL     1      -2.284  -0.153   0.003  0.00  0.00    -0.269 OA
ATOM      9  N   UNL     1      -1.213  -2.099  -0.017  0.00  0.00    -0.229 N 
ATOM     10  H   UNL     1      -0.369  -2.576  -0.032  0.00  0.00    +0.173 HD
BRANCH   7  16
ATOM     11  C   UNL     1       0.036   1.396  -0.040  0.00  0.00    +0.016 A 
ATOM     12  C   UNL     1       1.226   2.091  -0.062  0.00  0.00    +0.039 A 
ATOM     13  C   UNL     1       2.432   1.407  -0.084  0.00  0.00    +0.123 A 
ATOM     14  C   UNL     1       2.447   0.020  -0.084  0.00  0.00    +0.039 A 
ATOM     15  C   UNL     1       1.264  -0.685  -0.062  0.00  0.00    +0.016 A 
ATOM     16  C   UNL     1       0.046  -0.001  -0.040  0.00  0.00    +0.038 A 
ATOM     17  F   UNL     1       3.595   2.093  -0.105  0.00  0.00    -0.205 F 
ENDBRANCH   7  16
ENDBRANCH   1   9
BRANCH   4  18
ATOM     18  C   UNL     1      -1.225  -6.269  -0.338  0.00  0.00    +0.117 C 
BRANCH  18  19
ATOM     19  C   UNL     1       0.223  -6.755  -0.435  0.00  0.00    +0.011 C 
ATOM     20  C   UNL     1       0.600  -8.011   0.353  0.00  0.00    +0.014 C 
ATOM     21  C   UNL     1       1.092  -6.640   0.819  0.00  0.00    +0.014 C 
BRANCH  19  22
ATOM     22  C   UNL     1       0.893  -6.542  -1.768  0.00  0.00    -0.040 A 
ATOM     23  C   UNL     1       2.260  -6.352  -1.831  0.00  0.00    +0.005 A 
ATOM     24  C   UNL     1       2.875  -6.156  -3.053  0.00  0.00    +0.020 A 
ATOM     25  C   UNL     1       2.122  -6.151  -4.213  0.00  0.00    +0.041 A 
ATOM     26  C   UNL     1       0.753  -6.342  -4.149  0.00  0.00    +0.020 A 
ATOM     27  C   UNL     1       0.140  -6.543  -2.927  0.00  0.00    +0.005 A 
ATOM     28 CL   UNL     1       2.894  -5.905  -5.749  0.00  0.00    -0.084 Cl
ENDBRANCH  19  22
ENDBRANCH  18  19
ENDBRANCH   4  18
TORSDOF 5
