REMARK  Name = ZINC40036802
REMARK  6 active torsions:
REMARK  status: ('A' for Active; 'I' for Inactive)
REMARK    1  A    between atoms: C_1  and  O_2
REMARK    2  A    between atoms: O_2  and  C_3
REMARK    3  A    between atoms: C_6  and  N_9
REMARK    4  A    between atoms: N_16  and  N_17
REMARK    5  A    between atoms: C_18  and  C_19
REMARK    6  A    between atoms: C_22  and  O_25
REMARK                            x       y       z     vdW  Elec       q    Type
REMARK                         _______ _______ _______ _____ _____    ______ ____
ROOT
ATOM      1  N   UNL     1       2.471  -2.457  -4.296  0.00  0.00    -0.248 N 
ATOM      2  C   UNL     1       2.603  -3.801  -4.320  0.00  0.00    +0.264 A 
ATOM      3  O   UNL     1       2.219  -4.482  -3.382  0.00  0.00    -0.267 OA
ATOM      4  C   UNL     1       3.191  -4.396  -5.443  0.00  0.00    +0.050 A 
ATOM      5  C   UNL     1       3.611  -3.588  -6.487  0.00  0.00    +0.084 A 
ATOM      6  N   UNL     1       3.483  -2.259  -6.395  0.00  0.00    -0.214 NA
ATOM      7  C   UNL     1       2.924  -1.705  -5.339  0.00  0.00    +0.223 A 
ATOM      8  N   UNL     1       2.799  -0.341  -5.286  0.00  0.00    -0.206 N 
ATOM      9  C   UNL     1       4.170  -4.216  -7.705  0.00  0.00    +0.004 A 
ATOM     10  C   UNL     1       4.877  -3.459  -8.636  0.00  0.00    +0.010 A 
ATOM     11  C   UNL     1       5.406  -4.071  -9.755  0.00  0.00    +0.001 A 
ATOM     12  C   UNL     1       5.237  -5.431  -9.947  0.00  0.00    +0.000 A 
ATOM     13  C   UNL     1       4.529  -6.185  -9.028  0.00  0.00    +0.004 A 
ATOM     14  C   UNL     1       3.985  -5.582  -7.912  0.00  0.00    -0.037 A 
ATOM     15  C   UNL     1       3.169  -6.389  -6.937  0.00  0.00    +0.047 C 
ATOM     16  C   UNL     1       3.379  -5.888  -5.510  0.00  0.00    +0.007 C 
ATOM     17  C   UNL     1       4.797  -6.241  -5.052  0.00  0.00    +0.012 C 
ATOM     18  C   UNL     1       4.989  -7.757  -5.112  0.00  0.00    +0.001 C 
ATOM     19  C   UNL     1       3.975  -8.438  -4.190  0.00  0.00    +0.000 C 
ATOM     20  C   UNL     1       2.558  -8.083  -4.642  0.00  0.00    +0.001 C 
ATOM     21  C   UNL     1       2.367  -6.566  -4.581  0.00  0.00    +0.012 C 
ATOM     22  H   UNL     1       2.450   0.084  -4.486  0.00  0.00    +0.177 HD
ENDROOT
BRANCH   1  26
ATOM     23  C   UNL     1       0.658  -0.605  -1.029  0.00  0.00    +0.120 A 
ATOM     24  C   UNL     1      -0.109  -1.000  -2.115  0.00  0.00    +0.047 A 
ATOM     25  C   UNL     1       0.491  -1.613  -3.197  0.00  0.00    +0.030 A 
ATOM     26  C   UNL     1       1.862  -1.834  -3.198  0.00  0.00    +0.053 A 
ATOM     27  C   UNL     1       2.628  -1.438  -2.110  0.00  0.00    +0.030 A 
ATOM     28  C   UNL     1       2.028  -0.820  -1.031  0.00  0.00    +0.047 A 
BRANCH  23  30
ATOM     29  C   UNL     1      -1.348   0.189  -0.029  0.00  0.00    +0.277 C 
ATOM     30  O   UNL     1       0.067  -0.001   0.036  0.00  0.00    -0.495 OA
ENDBRANCH  23  30
ENDBRANCH   1  26
BRANCH   8  31
ATOM     31  N   UNL     1       3.176   0.441  -6.386  0.00  0.00    -0.188 NA
ATOM     32  C   UNL     1       3.058   1.733  -6.335  0.00  0.00    +0.138 C 
BRANCH  32  33
ATOM     33  C   UNL     1       3.454   2.555  -7.493  0.00  0.00    -0.005 A 
ATOM     34  C   UNL     1       3.951   1.946  -8.648  0.00  0.00    +0.013 A 
ATOM     35  C   UNL     1       4.320   2.719  -9.728  0.00  0.00    +0.046 A 
ATOM     36  C   UNL     1       4.198   4.101  -9.669  0.00  0.00    +0.117 A 
ATOM     37  C   UNL     1       3.705   4.711  -8.523  0.00  0.00    +0.046 A 
ATOM     38  C   UNL     1       3.328   3.946  -7.440  0.00  0.00    +0.013 A 
BRANCH  36  39
ATOM     39  O   UNL     1       4.564   4.859 -10.736  0.00  0.00    -0.507 OA
ATOM     40  H   UNL     1       3.849   5.020 -11.367  0.00  0.00    +0.292 HD
ENDBRANCH  36  39
ENDBRANCH  32  33
ENDBRANCH   8  31
TORSDOF 5
