REMARK  Name = ZINC39592508
REMARK  3 active torsions:
REMARK  status: ('A' for Active; 'I' for Inactive)
REMARK    1  A    between atoms: C_5  and  C_7
REMARK    2  A    between atoms: C_11  and  C_16
REMARK    3  A    between atoms: C_19  and  C_22
REMARK                            x       y       z     vdW  Elec       q    Type
REMARK                         _______ _______ _______ _____ _____    ______ ____
ROOT
ATOM      1  C   UNL     1       1.229  -2.186  -0.022  0.00  0.00    +0.184 C 
ATOM      2  N   UNL     1      -0.142  -2.751  -0.138  0.00  0.00    -0.263 N 
ATOM      3  N   UNL     1      -0.357  -3.893   0.576  0.00  0.00    -0.222 N 
ATOM      4  C   UNL     1      -1.249  -4.950   0.557  0.00  0.00    +0.181 A 
ATOM      5  N   UNL     1      -0.963  -5.735   1.553  0.00  0.00    -0.129 NA
ATOM      6  N   UNL     1       0.051  -5.276   2.200  0.00  0.00    -0.121 NA
ATOM      7  C   UNL     1       0.461  -4.181   1.638  0.00  0.00    +0.211 A 
ATOM      8  S   UNL     1       1.666  -2.869   1.636  0.00  0.00    -0.056 S 
ATOM      9  H   UNL     1      -0.840  -2.054   0.076  0.00  0.00    +0.168 HD
ENDROOT
BRANCH   1  14
ATOM     10  C   UNL     1       0.053   1.381  -0.403  0.00  0.00    +0.000 A 
ATOM     11  C   UNL     1       1.171   2.086   0.002  0.00  0.00    +0.001 A 
ATOM     12  C   UNL     1       2.308   1.409   0.400  0.00  0.00    +0.020 A 
ATOM     13  C   UNL     1       2.328   0.025   0.392  0.00  0.00    +0.047 A 
ATOM     14  C   UNL     1       1.208  -0.679  -0.013  0.00  0.00    +0.003 A 
ATOM     15  C   UNL     1       0.071  -0.001  -0.411  0.00  0.00    +0.008 A 
ATOM     16 CL   UNL     1       3.756  -0.826   0.891  0.00  0.00    -0.083 Cl
ENDBRANCH   1  14
BRANCH   4  17
ATOM     17  C   UNL     1      -2.359  -5.155  -0.442  0.00  0.00    +0.222 C 
ATOM     18  C   UNL     1      -3.711  -4.886   0.196  0.00  0.00    +0.039 C 
ATOM     19  C   UNL     1      -4.353  -6.066   0.102  0.00  0.00    +0.091 C 
ATOM     20  N   UNL     1      -3.561  -6.989  -0.505  0.00  0.00    -0.153 NA
ATOM     21  N   UNL     1      -2.447  -6.570  -0.838  0.00  0.00    -0.171 NA
BRANCH  19  22
ATOM     22  C   UNL     1      -5.730  -6.322   0.591  0.00  0.00    +0.002 A 
ATOM     23  C   UNL     1      -6.458  -5.299   1.195  0.00  0.00    +0.013 A 
ATOM     24  C   UNL     1      -7.739  -5.542   1.648  0.00  0.00    +0.039 A 
ATOM     25  C   UNL     1      -8.300  -6.800   1.503  0.00  0.00    +0.123 A 
ATOM     26  C   UNL     1      -7.580  -7.820   0.903  0.00  0.00    +0.039 A 
ATOM     27  C   UNL     1      -6.301  -7.585   0.442  0.00  0.00    +0.013 A 
ATOM     28  F   UNL     1      -9.555  -7.033   1.948  0.00  0.00    -0.205 F 
ENDBRANCH  19  22
ENDBRANCH   4  17
TORSDOF 3
