REMARK  Name = ZINC06511212
REMARK  15 active torsions:
REMARK  status: ('A' for Active; 'I' for Inactive)
REMARK    1  A    between atoms: C_1  and  C_2
REMARK    2  A    between atoms: C_2  and  N_81
REMARK    3  A    between atoms: C_3  and  C_4
REMARK    4  A    between atoms: C_3  and  N_81
REMARK    5  A    between atoms: C_5  and  C_6
REMARK    6  A    between atoms: C_5  and  N_81
REMARK    7  A    between atoms: C_6  and  C_7
REMARK    8  A    between atoms: C_7  and  N_8
REMARK    9  A    between atoms: N_8  and  C_9
REMARK   10  A    between atoms: C_9  and  C_11
REMARK   11  A    between atoms: C_9  and  C_18
REMARK   12  A    between atoms: C_14  and  O_17
REMARK   13  A    between atoms: N_20  and  C_21
REMARK   14  A    between atoms: C_27  and  C_29
REMARK   15  A    between atoms: C_32  and  C_35
REMARK                            x       y       z     vdW  Elec       q    Type
REMARK                         _______ _______ _______ _____ _____    ______ ____
ROOT
ATOM      1  N   UNL     1       4.869   6.207  -0.212  0.00  0.00    -0.281 N 
ATOM      2  C   UNL     1       5.695   5.200  -0.559  0.00  0.00    +0.264 C 
ATOM      3  O   UNL     1       6.873   5.424  -0.768  0.00  0.00    -0.268 OA
ENDROOT
BRANCH   2   4
ATOM      4  C   UNL     1       5.175   3.835  -0.685  0.00  0.00    +0.102 A 
ATOM      5  C   UNL     1       5.929   2.692  -0.858  0.00  0.00    +0.033 A 
ATOM      6  C   UNL     1       5.047   1.616  -0.929  0.00  0.00    +0.028 A 
ATOM      7  C   UNL     1       3.768   2.115  -0.800  0.00  0.00    +0.047 A 
ATOM      8  N   UNL     1       3.848   3.469  -0.657  0.00  0.00    -0.351 N 
ATOM      9  H   UNL     1       3.096   4.073  -0.551  0.00  0.00    +0.166 HD
BRANCH   7  10
ATOM     10  C   UNL     1       2.523   1.319  -0.819  0.00  0.00    -0.002 A 
ATOM     11  C   UNL     1       1.291   1.940  -0.607  0.00  0.00    +0.010 A 
ATOM     12  C   UNL     1       0.132   1.191  -0.626  0.00  0.00    +0.001 A 
ATOM     13  C   UNL     1       0.190  -0.172  -0.854  0.00  0.00    +0.000 A 
ATOM     14  C   UNL     1       1.408  -0.794  -1.065  0.00  0.00    +0.001 A 
ATOM     15  C   UNL     1       2.574  -0.057  -1.048  0.00  0.00    +0.010 A 
ENDBRANCH   7  10
ENDBRANCH   2   4
BRANCH   1  16
ATOM     16  C   UNL     1       3.486   5.919   0.173  0.00  0.00    +0.107 C 
BRANCH  16  17
ATOM     17  C   UNL     1       3.478   5.003   1.399  0.00  0.00    +0.000 C 
BRANCH  17  18
ATOM     18  C   UNL     1       2.036   4.621   1.740  0.00  0.00    -0.077 C 
BRANCH  18  19
ATOM     19  N   UNL     1       2.038   3.808   2.975  0.00  0.00    +0.379 N 
ATOM     20  H   UNL     1       2.708   3.037   2.865  0.00  0.00    -0.082 HD
BRANCH  19  22
ATOM     21  C   UNL     1       1.431   5.755   4.371  0.00  0.00    -0.017 C 
ATOM     22  C   UNL     1       2.448   4.638   4.126  0.00  0.00    -0.082 C 
ENDBRANCH  19  22
BRANCH  19  23
ATOM     23  C   UNL     1       0.692   3.245   3.211  0.00  0.00    -0.082 C 
ATOM     24  C   UNL     1       0.748   2.322   4.431  0.00  0.00    -0.017 C 
ENDBRANCH  19  23
ENDBRANCH  18  19
ENDBRANCH  17  18
ENDBRANCH  16  17
ENDBRANCH   1  16
BRANCH   1  25
ATOM     25  C   UNL     1       5.355   7.589  -0.221  0.00  0.00    +0.192 C 
BRANCH  25  26
ATOM     26  C   UNL     1       4.688   8.349  -1.338  0.00  0.00    -0.018 A 
ATOM     27  C   UNL     1       3.324   8.233  -1.534  0.00  0.00    +0.009 A 
ATOM     28  C   UNL     1       2.709   8.933  -2.554  0.00  0.00    +0.046 A 
ATOM     29  C   UNL     1       3.463   9.744  -3.390  0.00  0.00    +0.117 A 
ATOM     30  C   UNL     1       4.832   9.854  -3.195  0.00  0.00    +0.046 A 
ATOM     31  C   UNL     1       5.441   9.157  -2.170  0.00  0.00    +0.009 A 
BRANCH  29  32
ATOM     32  O   UNL     1       2.861  10.428  -4.398  0.00  0.00    -0.507 OA
ATOM     33  H   UNL     1       2.819   9.943  -5.233  0.00  0.00    +0.292 HD
ENDBRANCH  29  32
ENDBRANCH  25  26
BRANCH  25  34
ATOM     34  C   UNL     1       5.029   8.244   1.096  0.00  0.00    +0.238 C 
ATOM     35  O   UNL     1       4.363   7.653   1.919  0.00  0.00    -0.273 OA
ATOM     36  N   UNL     1       5.479   9.487   1.360  0.00  0.00    -0.311 N 
ATOM     37  H   UNL     1       6.012   9.960   0.702  0.00  0.00    +0.149 HD
BRANCH  36  38
ATOM     38  C   UNL     1       5.163  10.124   2.641  0.00  0.00    +0.073 C 
ATOM     39  C   UNL     1       3.792  10.797   2.551  0.00  0.00    +0.022 C 
ATOM     40  C   UNL     1       3.462  11.462   3.889  0.00  0.00    +0.002 C 
ATOM     41  C   UNL     1       4.526  12.513   4.213  0.00  0.00    +0.000 C 
ATOM     42  C   UNL     1       5.897  11.839   4.303  0.00  0.00    +0.002 C 
ATOM     43  C   UNL     1       6.227  11.174   2.965  0.00  0.00    +0.022 C 
ENDBRANCH  36  38
ENDBRANCH  25  34
ENDBRANCH   1  25
TORSDOF 13
