REMARK  Name = ZINC19641885
REMARK  9 active torsions:
REMARK  status: ('A' for Active; 'I' for Inactive)
REMARK    1  A    between atoms: C_1  and  C_2
REMARK    2  A    between atoms: C_2  and  C_3
REMARK    3  A    between atoms: C_2  and  C_4
REMARK    4  A    between atoms: C_2  and  C_5
REMARK    5  A    between atoms: C_12  and  N_20
REMARK    6  A    between atoms: C_13  and  C_14
REMARK    7  A    between atoms: N_16  and  C_17
REMARK    8  A    between atoms: C_21  and  C_23
REMARK    9  A    between atoms: C_29  and  C_31
REMARK                            x       y       z     vdW  Elec       q    Type
REMARK                         _______ _______ _______ _____ _____    ______ ____
ROOT
ATOM      1  C   UNL     1       4.419  -0.264  -3.570  0.00  0.00    -0.000 C 
ATOM      2  C   UNL     1       4.063   1.224  -3.616  0.00  0.00    +0.009 C 
ATOM      3  C   UNL     1       2.952   1.525  -2.608  0.00  0.00    +0.037 C 
ATOM      4  C   UNL     1       3.367   0.984  -1.245  0.00  0.00    -0.023 A 
ATOM      5  C   UNL     1       4.347   0.061  -1.132  0.00  0.00    -0.004 A 
ATOM      6  S   UNL     1       4.469  -0.259   0.605  0.00  0.00    -0.077 S 
ATOM      7  C   UNL     1       3.241   0.823   1.176  0.00  0.00    +0.084 A 
ATOM      8  C   UNL     1       2.766   1.405   0.009  0.00  0.00    +0.069 A 
ATOM      9  C   UNL     1       5.142  -0.553  -2.243  0.00  0.00    +0.046 C 
ENDROOT
BRANCH   1  11
ATOM     10  C   UNL     1       6.624   0.226  -4.638  0.00  0.00    +0.011 C 
ATOM     11  C   UNL     1       5.344  -0.607  -4.739  0.00  0.00    -0.035 C 
ATOM     12  C   UNL     1       5.698  -2.094  -4.691  0.00  0.00    +0.011 C 
ATOM     13  C   UNL     1       4.635  -0.294  -6.059  0.00  0.00    +0.011 C 
ENDBRANCH   1  11
BRANCH   8  14
ATOM     14  C   UNL     1       1.694   2.405   0.041  0.00  0.00    +0.247 C 
ATOM     15  O   UNL     1       1.967   3.587   0.144  0.00  0.00    -0.270 OA
ATOM     16  N   UNL     1       0.407   2.015  -0.045  0.00  0.00    -0.308 N 
ATOM     17  H   UNL     1       0.160   0.947  -0.134  0.00  0.00    +0.149 HD
BRANCH  16  18
ATOM     18  C   UNL     1      -0.664   3.014  -0.020  0.00  0.00    +0.073 C 
ATOM     19  C   UNL     1      -1.893   2.712   0.841  0.00  0.00    +0.024 C 
ATOM     20  C   UNL     1      -1.991   2.644  -0.685  0.00  0.00    +0.024 C 
ENDBRANCH  16  18
ENDBRANCH   8  14
BRANCH   7  21
ATOM     21  N   UNL     1       2.833   1.051   2.481  0.00  0.00    -0.279 N 
ATOM     22  C   UNL     1       3.417   0.384   3.496  0.00  0.00    +0.222 C 
ATOM     23  O   UNL     1       4.300  -0.415   3.268  0.00  0.00    -0.275 OA
ATOM     24  H   UNL     1       2.032   1.776   2.688  0.00  0.00    +0.155 HD
BRANCH  22  25
ATOM     25  C   UNL     1       2.973   0.631   4.915  0.00  0.00    +0.093 C 
ATOM     26  C   UNL     1       4.189   0.621   5.844  0.00  0.00    +0.040 C 
ATOM     27  C   UNL     1       4.734  -0.772   5.966  0.00  0.00    -0.030 C 
ATOM     28  C   UNL     1       4.077  -1.839   5.640  0.00  0.00    -0.030 C 
ATOM     29  C   UNL     1       2.683  -1.831   5.085  0.00  0.00    +0.042 C 
ATOM     30  C   UNL     1       2.015  -0.482   5.357  0.00  0.00    +0.118 C 
BRANCH  30  31
ATOM     31  C   UNL     1       0.731  -0.386   4.574  0.00  0.00    +0.360 C 
ATOM     32  O   UNL     1       0.592   0.483   3.746  0.00  0.00    -0.246 OA
ATOM     33  O   UNL     1      -0.259  -1.266   4.797  0.00  0.00    -0.246 OA
ENDBRANCH  30  31
ENDBRANCH  22  25
ENDBRANCH   7  21
TORSDOF 6
