REMARK  Name = ZINC19593909
REMARK  9 active torsions:
REMARK  status: ('A' for Active; 'I' for Inactive)
REMARK    1  A    between atoms: C_1  and  O_2
REMARK    2  A    between atoms: O_2  and  C_3
REMARK    3  A    between atoms: C_3  and  C_4
REMARK    4  A    between atoms: C_4  and  N_5
REMARK    5  A    between atoms: C_6  and  C_10
REMARK    6  A    between atoms: C_10  and  C_12
REMARK    7  A    between atoms: C_10  and  N_27
REMARK    8  A    between atoms: N_30  and  C_33
REMARK    9  A    between atoms: C_33  and  C_34
REMARK                            x       y       z     vdW  Elec       q    Type
REMARK                         _______ _______ _______ _____ _____    ______ ____
ROOT
ATOM      1  C   UNL     1       3.512   0.638  -0.029  0.00  0.00    +0.162 C 
ENDROOT
BRANCH   1   2
ATOM      2  C   UNL     1       4.030   0.199  -1.374  0.00  0.00    +0.042 A 
ATOM      3  C   UNL     1       3.157  -0.101  -2.369  0.00  0.00    +0.021 A 
ATOM      4  C   UNL     1       3.691  -0.523  -3.663  0.00  0.00    +0.003 A 
ATOM      5  C   UNL     1       2.838  -0.844  -4.727  0.00  0.00    +0.059 A 
ATOM      6  C   UNL     1       3.371  -1.238  -5.935  0.00  0.00    +0.167 A 
ATOM      7  C   UNL     1       4.759  -1.320  -6.101  0.00  0.00    +0.168 A 
ATOM      8  C   UNL     1       5.609  -1.006  -5.056  0.00  0.00    +0.075 A 
ATOM      9  C   UNL     1       5.087  -0.606  -3.832  0.00  0.00    +0.053 A 
ATOM     10  N   UNL     1       5.920  -0.288  -2.778  0.00  0.00    -0.322 N 
ATOM     11  H   UNL     1       7.011  -0.355  -2.900  0.00  0.00    +0.169 HD
ATOM     12  C   UNL     1       5.419   0.106  -1.595  0.00  0.00    +0.254 A 
ATOM     13  O   UNL     1       6.185   0.385  -0.688  0.00  0.00    -0.268 OA
ATOM     14  O   UNL     1       5.019  -1.730  -7.376  0.00  0.00    -0.453 OA
ATOM     15  C   UNL     1       3.802  -1.501  -8.110  0.00  0.00    +0.466 C 
ATOM     16  O   UNL     1       2.772  -1.597  -7.109  0.00  0.00    -0.453 OA
ENDBRANCH   1   2
BRANCH   1  17
ATOM     17  N   UNL     1       3.977  -0.297   1.005  0.00  0.00    -0.292 NA
ATOM     18  C   UNL     1       3.582  -1.676   0.683  0.00  0.00    +0.067 C 
ATOM     19  C   UNL     1       4.152  -2.626   1.739  0.00  0.00    -0.063 C 
ATOM     20  N   UNL     1       3.655  -2.235   3.066  0.00  0.00    +0.386 N 
ATOM     21  C   UNL     1       4.050  -0.856   3.387  0.00  0.00    -0.063 C 
ATOM     22  C   UNL     1       3.480   0.094   2.331  0.00  0.00    +0.067 C 
ATOM     23  H   UNL     1       2.556  -2.277   3.043  0.00  0.00    -0.081 HD
BRANCH  20  24
ATOM     24  C   UNL     1       4.120  -3.170   4.099  0.00  0.00    -0.003 C 
BRANCH  24  25
ATOM     25  C   UNL     1       3.918  -4.585   3.623  0.00  0.00    +0.089 A 
ATOM     26  C   UNL     1       4.810  -5.317   2.932  0.00  0.00    +0.042 A 
ATOM     27  C   UNL     1       4.211  -6.576   2.696  0.00  0.00    +0.041 A 
ATOM     28  C   UNL     1       2.989  -6.538   3.257  0.00  0.00    +0.195 A 
ATOM     29  O   UNL     1       2.820  -5.331   3.822  0.00  0.00    -0.470 OA
ENDBRANCH  24  25
ENDBRANCH  20  24
ENDBRANCH   1  17
BRANCH   1  31
ATOM     30  N   UNL     1       1.213   1.739  -0.116  0.00  0.00    -0.225 N 
ATOM     31  C   UNL     1       2.005   0.653  -0.051  0.00  0.00    +0.173 A 
ATOM     32  N   UNL     1       1.211  -0.390  -0.012  0.00  0.00    -0.111 NA
ATOM     33  N   UNL     1      -0.005   0.034  -0.051  0.00  0.00    -0.023 NA
ATOM     34  N   UNL     1      -0.008   1.320  -0.114  0.00  0.00    -0.044 NA
BRANCH  30  35
ATOM     35  C   UNL     1       1.653   3.135  -0.178  0.00  0.00    +0.175 C 
BRANCH  35  36
ATOM     36  C   UNL     1       1.786   3.692   1.241  0.00  0.00    +0.183 C 
BRANCH  36  38
ATOM     37  C   UNL     1       2.371   5.671   2.460  0.00  0.00    +0.194 C 
ATOM     38  O   UNL     1       2.216   5.053   1.181  0.00  0.00    -0.381 OA
ENDBRANCH  36  38
ENDBRANCH  35  36
ENDBRANCH  30  35
ENDBRANCH   1  31
TORSDOF 8
