REMARK  Name = ZINC63141649
REMARK  10 active torsions:
REMARK  status: ('A' for Active; 'I' for Inactive)
REMARK    1  A    between atoms: C_1  and  O_2
REMARK    2  A    between atoms: O_2  and  C_3
REMARK    3  A    between atoms: C_8  and  C_9
REMARK    4  A    between atoms: N_28  and  C_31
REMARK    5  A    between atoms: C_31  and  C_32
REMARK    6  A    between atoms: C_32  and  C_33
REMARK    7  A    between atoms: C_36  and  O_41
REMARK    8  A    between atoms: C_37  and  O_39
REMARK    9  A    between atoms: O_39  and  C_40
REMARK   10  A    between atoms: O_41  and  C_42
REMARK                            x       y       z     vdW  Elec       q    Type
REMARK                         _______ _______ _______ _____ _____    ______ ____
ROOT
ATOM      1  C   UNL     1       0.051  -2.828  -0.033  0.00  0.00    +0.137 C 
ATOM      2  C   UNL     1      -1.462  -2.939  -0.246  0.00  0.00    +0.131 C 
ATOM      3  C   UNL     1      -1.964  -4.004   0.720  0.00  0.00    -0.034 C 
ATOM      4  C   UNL     1      -2.915  -3.432   1.448  0.00  0.00    -0.001 A 
ATOM      5  C   UNL     1      -3.811  -3.968   2.485  0.00  0.00    +0.010 A 
ATOM      6  C   UNL     1      -4.677  -3.083   3.046  0.00  0.00    +0.001 A 
ATOM      7  C   UNL     1      -4.740  -1.734   2.683  0.00  0.00    +0.002 A 
ATOM      8  C   UNL     1      -3.958  -1.157   1.736  0.00  0.00    +0.026 A 
ATOM      9  C   UNL     1      -3.011  -1.988   1.071  0.00  0.00    +0.043 A 
ATOM     10  N   UNL     1      -2.156  -1.700   0.108  0.00  0.00    -0.375 N 
ATOM     11  C   UNL     1      -1.353  -5.382   0.792  0.00  0.00    +0.065 C 
ATOM     12  C   UNL     1       0.169  -5.184   0.904  0.00  0.00    +0.167 C 
ATOM     13  N   UNL     1       0.614  -4.197  -0.075  0.00  0.00    -0.279 N 
ATOM     14  C   UNL     1       1.516  -4.474  -1.023  0.00  0.00    +0.234 C 
ATOM     15  O   UNL     1       1.804  -3.591  -1.803  0.00  0.00    -0.274 OA
ATOM     16  C   UNL     1       2.193  -5.794  -1.190  0.00  0.00    +0.203 C 
ATOM     17  N   UNL     1       1.768  -6.760  -0.191  0.00  0.00    -0.291 N 
ATOM     18  C   UNL     1       0.861  -6.498   0.749  0.00  0.00    +0.237 C 
ATOM     19  O   UNL     1       0.582  -7.382   1.531  0.00  0.00    -0.274 OA
ATOM     20  H   UNL     1      -2.005  -0.830  -0.295  0.00  0.00    +0.160 HD
ENDROOT
BRANCH   1  26
ATOM     21  C   UNL     1       1.874  -1.352  -0.919  0.00  0.00    +0.125 A 
ATOM     22  C   UNL     1       2.436  -0.587  -1.930  0.00  0.00    +0.046 A 
ATOM     23  C   UNL     1       1.783  -0.458  -3.141  0.00  0.00    +0.004 A 
ATOM     24  C   UNL     1       0.571  -1.092  -3.345  0.00  0.00    +0.001 A 
ATOM     25  C   UNL     1       0.009  -1.855  -2.338  0.00  0.00    +0.009 A 
ATOM     26  C   UNL     1       0.661  -1.991  -1.128  0.00  0.00    +0.017 A 
BRANCH  21  28
ATOM     27  C   UNL     1       3.760  -0.795   0.418  0.00  0.00    +0.277 C 
ATOM     28  O   UNL     1       2.515  -1.481   0.273  0.00  0.00    -0.495 OA
ENDBRANCH  21  28
ENDBRANCH   1  26
BRANCH  17  29
ATOM     29  C   UNL     1       2.367  -8.097  -0.221  0.00  0.00    +0.113 C 
BRANCH  29  30
ATOM     30  C   UNL     1       3.624  -8.111   0.651  0.00  0.00    +0.054 C 
BRANCH  30  31
ATOM     31  C   UNL     1       4.241  -9.486   0.620  0.00  0.00    -0.042 A 
ATOM     32  C   UNL     1       3.858 -10.435   1.550  0.00  0.00    +0.007 A 
ATOM     33  C   UNL     1       4.420 -11.697   1.526  0.00  0.00    +0.049 A 
ATOM     34  C   UNL     1       5.370 -12.015   0.568  0.00  0.00    +0.161 A 
ATOM     35  C   UNL     1       5.755 -11.060  -0.368  0.00  0.00    +0.162 A 
ATOM     36  C   UNL     1       5.184  -9.798  -0.342  0.00  0.00    +0.053 A 
BRANCH  35  37
ATOM     37  O   UNL     1       6.686 -11.367  -1.311  0.00  0.00    -0.491 OA
ATOM     38  C   UNL     1       7.032 -10.337  -2.240  0.00  0.00    +0.277 C 
ENDBRANCH  35  37
BRANCH  34  39
ATOM     39  O   UNL     1       5.924 -13.256   0.543  0.00  0.00    -0.491 OA
ATOM     40  C   UNL     1       5.481 -14.184   1.535  0.00  0.00    +0.277 C 
ENDBRANCH  34  39
ENDBRANCH  30  31
ENDBRANCH  29  30
ENDBRANCH  17  29
TORSDOF 7
