REMARK  Name = ZINC06589215
REMARK  7 active torsions:
REMARK  status: ('A' for Active; 'I' for Inactive)
REMARK    1  A    between atoms: C_1  and  C_2
REMARK    2  A    between atoms: C_2  and  C_3
REMARK    3  A    between atoms: C_2  and  C_4
REMARK    4  A    between atoms: C_4  and  C_5
REMARK    5  A    between atoms: C_8  and  C_19
REMARK    6  A    between atoms: C_14  and  N_18
REMARK    7  A    between atoms: C_15  and  C_16
REMARK                            x       y       z     vdW  Elec       q    Type
REMARK                         _______ _______ _______ _____ _____    ______ ____
ROOT
ATOM      1  C   UNL     1      -1.404  -2.307  -1.019  0.00  0.00    +0.072 C 
ATOM      2  C   UNL     1      -2.897  -2.118  -1.095  0.00  0.00    +0.049 A 
ATOM      3  C   UNL     1      -3.623  -1.290  -1.883  0.00  0.00    +0.073 A 
ATOM      4  N   UNL     1      -4.940  -1.488  -1.574  0.00  0.00    -0.273 N 
ATOM      5  H   UNL     1      -5.696  -1.034  -1.978  0.00  0.00    +0.189 HD
ATOM      6  N   UNL     1      -5.004  -2.467  -0.570  0.00  0.00    -0.135 NA
ATOM      7  C   UNL     1      -3.791  -2.844  -0.283  0.00  0.00    +0.245 A 
ATOM      8  O   UNL     1      -3.358  -3.765   0.620  0.00  0.00    -0.422 OA
ATOM      9  C   UNL     1      -2.074  -4.165   0.532  0.00  0.00    +0.200 C 
ATOM     10  C   UNL     1      -1.127  -3.545  -0.203  0.00  0.00    +0.094 C 
ENDROOT
BRANCH   3  11
ATOM     11  C   UNL     1      -3.091  -0.345  -2.890  0.00  0.00    +0.000 A 
ATOM     12  C   UNL     1      -2.397   0.795  -2.483  0.00  0.00    +0.010 A 
ATOM     13  C   UNL     1      -1.903   1.671  -3.427  0.00  0.00    +0.001 A 
ATOM     14  C   UNL     1      -2.094   1.422  -4.774  0.00  0.00    +0.000 A 
ATOM     15  C   UNL     1      -2.781   0.293  -5.184  0.00  0.00    +0.001 A 
ATOM     16  C   UNL     1      -3.275  -0.594  -4.250  0.00  0.00    +0.010 A 
ENDBRANCH   3  11
BRANCH   9  17
ATOM     17  N   UNL     1      -1.703  -5.282   1.239  0.00  0.00    -0.328 N 
ATOM     18  H   UNL     1      -2.357  -5.754   1.778  0.00  0.00    +0.145 HD
ATOM     19  H   UNL     1      -0.787  -5.599   1.200  0.00  0.00    +0.145 HD
ENDBRANCH   9  17
BRANCH  10  20
ATOM     20  C   UNL     1       0.200  -4.084  -0.209  0.00  0.00    +0.100 C 
ATOM     21  N   UNL     1       1.252  -4.512  -0.213  0.00  0.00    -0.191 NA
ENDBRANCH  10  20
BRANCH   1  22
ATOM     22  C   UNL     1      -0.762  -1.091  -0.348  0.00  0.00    +0.017 C 
BRANCH  22  24
ATOM     23  C   UNL     1      -0.249  -0.152   1.910  0.00  0.00    +0.007 C 
ATOM     24  C   UNL     1      -1.233  -1.004   1.105  0.00  0.00    -0.016 C 
ATOM     25  C   UNL     1      -2.621  -0.363   1.155  0.00  0.00    +0.007 C 
ENDBRANCH  22  24
ENDBRANCH   1  22
TORSDOF 5
