REMARK  Name = ZINC39675184
REMARK  12 active torsions:
REMARK  status: ('A' for Active; 'I' for Inactive)
REMARK    1  A    between atoms: C_1  and  C_2
REMARK    2  A    between atoms: C_2  and  C_4
REMARK    3  A    between atoms: C_2  and  N_14
REMARK    4  A    between atoms: C_4  and  C_5
REMARK    5  A    between atoms: C_5  and  C_6
REMARK    6  A    between atoms: C_9  and  O_12
REMARK    7  A    between atoms: O_12  and  C_13
REMARK    8  A    between atoms: C_15  and  C_17
REMARK    9  A    between atoms: C_28  and  C_30
REMARK   10  A    between atoms: C_35  and  O_36
REMARK   11  A    between atoms: O_36  and  C_37
REMARK   12  A    between atoms: C_37  and  C_39
REMARK                            x       y       z     vdW  Elec       q    Type
REMARK                         _______ _______ _______ _____ _____    ______ ____
ROOT
ATOM      1  C   UNL     1       2.861  -0.807  -2.024  0.00  0.00    +0.100 C 
ATOM      2  C   UNL     1       2.433  -0.062  -3.308  0.00  0.00    +0.121 C 
ATOM      3  N   UNL     1       3.546   0.876  -3.586  0.00  0.00    -0.296 N 
ATOM      4  C   UNL     1       4.769   0.103  -3.261  0.00  0.00    +0.115 C 
ATOM      5  C   UNL     1       4.395  -0.700  -1.999  0.00  0.00    -0.004 C 
ATOM      6  C   UNL     1       5.024  -2.089  -2.052  0.00  0.00    -0.010 C 
ATOM      7  C   UNL     1       6.547  -1.959  -1.966  0.00  0.00    -0.082 C 
ATOM      8  N   UNL     1       6.913  -1.282  -0.717  0.00  0.00    +0.379 N 
ATOM      9  C   UNL     1       6.383   0.086  -0.715  0.00  0.00    -0.082 C 
ATOM     10  C   UNL     1       4.852   0.043  -0.747  0.00  0.00    -0.010 C 
ATOM     11  C   UNL     1       3.465   2.144  -4.034  0.00  0.00    +0.250 C 
ATOM     12  O   UNL     1       4.478   2.759  -4.305  0.00  0.00    -0.270 OA
ATOM     13  H   UNL     1       6.529  -1.791   0.065  0.00  0.00    -0.086 HD
ATOM     14  H   UNL     1       7.918  -1.252  -0.634  0.00  0.00    -0.086 HD
ENDROOT
BRANCH  11  15
ATOM     15  C   UNL     1       2.146   2.787  -4.196  0.00  0.00    +0.079 A 
ATOM     16  C   UNL     1       1.044   2.035  -4.608  0.00  0.00    +0.017 A 
ATOM     17  C   UNL     1      -0.185   2.641  -4.757  0.00  0.00    +0.001 A 
ATOM     18  C   UNL     1      -0.333   3.994  -4.498  0.00  0.00    +0.004 A 
ATOM     19  C   UNL     1       0.749   4.749  -4.090  0.00  0.00    +0.047 A 
ATOM     20  C   UNL     1       1.991   4.154  -3.930  0.00  0.00    +0.144 A 
BRANCH  20  21
ATOM     21  O   UNL     1       3.054   4.894  -3.524  0.00  0.00    -0.425 OA
BRANCH  21  22
ATOM     22  C   UNL     1       3.331   4.931  -2.210  0.00  0.00    +0.309 C 
ATOM     23  O   UNL     1       2.699   4.248  -1.440  0.00  0.00    -0.251 OA
ATOM     24  C   UNL     1       4.429   5.826  -1.696  0.00  0.00    +0.136 C 
ENDBRANCH  21  22
ENDBRANCH  20  21
ENDBRANCH  11  15
BRANCH   1  26
ATOM     25  N   UNL     1       1.984  -0.873   0.288  0.00  0.00    -0.312 N 
ATOM     26  C   UNL     1       2.269  -0.143  -0.809  0.00  0.00    +0.218 C 
ATOM     27  O   UNL     1       2.047   1.050  -0.817  0.00  0.00    -0.275 OA
ATOM     28  H   UNL     1       2.162  -1.827   0.294  0.00  0.00    +0.149 HD
BRANCH  25  30
ATOM     29  C   UNL     1      -0.111  -0.140   1.313  0.00  0.00    +0.028 C 
ATOM     30  C   UNL     1       1.408  -0.227   1.469  0.00  0.00    +0.070 C 
BRANCH  30  31
ATOM     31  C   UNL     1       1.747  -1.047   2.716  0.00  0.00    +0.026 C 
BRANCH  31  32
ATOM     32  C   UNL     1       3.260  -1.030   2.942  0.00  0.00    +0.037 C 
BRANCH  32  33
ATOM     33  C   UNL     1       3.593  -1.838   4.170  0.00  0.00    -0.047 A 
ATOM     34  C   UNL     1       3.628  -1.227   5.410  0.00  0.00    +0.007 A 
ATOM     35  C   UNL     1       3.933  -1.966   6.536  0.00  0.00    +0.046 A 
ATOM     36  C   UNL     1       4.205  -3.321   6.423  0.00  0.00    +0.120 A 
ATOM     37  C   UNL     1       4.170  -3.932   5.178  0.00  0.00    +0.046 A 
ATOM     38  C   UNL     1       3.858  -3.190   4.055  0.00  0.00    +0.007 A 
BRANCH  36  39
ATOM     39  O   UNL     1       4.507  -4.050   7.530  0.00  0.00    -0.495 OA
ATOM     40  C   UNL     1       4.776  -5.440   7.338  0.00  0.00    +0.277 C 
ENDBRANCH  36  39
ENDBRANCH  32  33
ENDBRANCH  31  32
ENDBRANCH  30  31
ENDBRANCH  25  30
ENDBRANCH   1  26
TORSDOF 9
