REMARK  Name = ZINC39919990
REMARK  7 active torsions:
REMARK  status: ('A' for Active; 'I' for Inactive)
REMARK    1  A    between atoms: C_1  and  C_2
REMARK    2  A    between atoms: C_2  and  C_3
REMARK    3  A    between atoms: C_3  and  C_4
REMARK    4  A    between atoms: N_15  and  N_16
REMARK    5  A    between atoms: C_17  and  C_19
REMARK    6  A    between atoms: C_19  and  O_20
REMARK    7  A    between atoms: O_20  and  C_21
REMARK                            x       y       z     vdW  Elec       q    Type
REMARK                         _______ _______ _______ _____ _____    ______ ____
ROOT
ATOM      1  N   UNL     1      -3.408  -2.824   1.252  0.00  0.00    -0.227 N 
ATOM      2  C   UNL     1      -4.344  -1.977   1.723  0.00  0.00    +0.267 C 
ATOM      3  O   UNL     1      -4.649  -0.992   1.084  0.00  0.00    -0.271 OA
ATOM      4  H   UNL     1      -3.164  -3.611   1.763  0.00  0.00    +0.173 HD
ENDROOT
BRANCH   1  15
ATOM      5  C   UNL     1      -1.413  -2.063   0.004  0.00  0.00    +0.180 C 
ATOM      6  N   UNL     1      -0.718  -2.534  -1.200  0.00  0.00    -0.324 N 
ATOM      7  C   UNL     1      -1.387  -2.475  -2.418  0.00  0.00    +0.041 A 
ATOM      8  C   UNL     1      -0.715  -2.304  -3.616  0.00  0.00    +0.024 A 
ATOM      9  C   UNL     1      -1.428  -2.250  -4.798  0.00  0.00    +0.002 A 
ATOM     10  C   UNL     1      -2.810  -2.366  -4.793  0.00  0.00    +0.001 A 
ATOM     11  C   UNL     1      -3.494  -2.538  -3.608  0.00  0.00    +0.015 A 
ATOM     12  C   UNL     1      -2.788  -2.596  -2.409  0.00  0.00    +0.059 A 
ATOM     13  C   UNL     1      -3.468  -2.788  -1.116  0.00  0.00    +0.266 C 
ATOM     14  O   UNL     1      -4.631  -3.143  -1.079  0.00  0.00    -0.268 OA
ATOM     15  N   UNL     1      -2.786  -2.567   0.023  0.00  0.00    -0.196 N 
ATOM     16  H   UNL     1       0.188  -2.877  -1.148  0.00  0.00    +0.148 HD
BRANCH   5  17
ATOM     17  C   UNL     1      -1.433  -0.534   0.013  0.00  0.00    +0.043 C 
BRANCH  17  19
ATOM     18  C   UNL     1      -0.019   1.526   0.010  0.00  0.00    +0.004 C 
ATOM     19  C   UNL     1       0.002  -0.004   0.002  0.00  0.00    +0.000 C 
ENDBRANCH  17  19
ENDBRANCH   5  17
ENDBRANCH   1  15
BRANCH   2  20
ATOM     20  C   UNL     1      -5.013  -2.253   3.045  0.00  0.00    +0.326 C 
BRANCH  20  21
ATOM     21  O   UNL     1      -5.960  -1.220   3.325  0.00  0.00    -0.482 OA
BRANCH  21  22
ATOM     22  C   UNL     1      -6.655  -1.319   4.488  0.00  0.00    +0.129 A 
ATOM     23  C   UNL     1      -6.432  -2.368   5.335  0.00  0.00    +0.046 A 
ATOM     24  C   UNL     1      -7.136  -2.484   6.530  0.00  0.00    +0.004 A 
ATOM     25  C   UNL     1      -8.066  -1.556   6.891  0.00  0.00    +0.009 A 
ATOM     26  C   UNL     1      -8.324  -0.463   6.047  0.00  0.00    -0.014 A 
ATOM     27  C   UNL     1      -7.606  -0.338   4.832  0.00  0.00    +0.024 A 
ATOM     28  C   UNL     1      -7.861   0.758   3.991  0.00  0.00    +0.012 A 
ATOM     29  C   UNL     1      -8.788   1.686   4.355  0.00  0.00    +0.001 A 
ATOM     30  C   UNL     1      -9.490   1.567   5.553  0.00  0.00    +0.001 A 
ATOM     31  C   UNL     1      -9.277   0.513   6.388  0.00  0.00    +0.008 A 
ENDBRANCH  21  22
ENDBRANCH  20  21
ENDBRANCH   2  20
TORSDOF 6
