REMARK  Name = ZINC39227614
REMARK  5 active torsions:
REMARK  status: ('A' for Active; 'I' for Inactive)
REMARK    1  A    between atoms: C_1  and  C_2
REMARK    2  A    between atoms: C_5  and  N_8
REMARK    3  A    between atoms: C_9  and  C_11
REMARK    4  A    between atoms: C_15  and  C_17
REMARK    5  A    between atoms: N_29  and  C_32
REMARK                            x       y       z     vdW  Elec       q    Type
REMARK                         _______ _______ _______ _____ _____    ______ ____
ROOT
ATOM      1  C   UNL     1      -1.927  -2.303   4.822  0.00  0.00    +0.037 A 
ATOM      2  C   UNL     1      -2.714  -1.149   4.774  0.00  0.00    +0.013 A 
ATOM      3  C   UNL     1      -3.360  -0.704   5.909  0.00  0.00    +0.001 A 
ATOM      4  C   UNL     1      -3.233  -1.395   7.099  0.00  0.00    +0.008 A 
ATOM      5  C   UNL     1      -2.451  -2.547   7.160  0.00  0.00    -0.017 A 
ATOM      6  C   UNL     1      -1.801  -3.006   6.019  0.00  0.00    +0.021 A 
ENDROOT
BRANCH   5   7
ATOM      7  C   UNL     1      -2.316  -3.287   8.439  0.00  0.00    -0.017 A 
ATOM      8  C   UNL     1      -1.530  -4.436   8.504  0.00  0.00    +0.012 A 
ATOM      9  C   UNL     1      -1.412  -5.119   9.694  0.00  0.00    +0.046 A 
ATOM     10  C   UNL     1      -2.071  -4.667  10.834  0.00  0.00    +0.124 A 
ATOM     11  C   UNL     1      -2.850  -3.523  10.774  0.00  0.00    -0.005 A 
ATOM     12  C   UNL     1      -2.970  -2.832   9.581  0.00  0.00    +0.015 A 
ATOM     13  C   UNL     1      -3.570  -2.997  11.989  0.00  0.00    +0.043 C 
ATOM     14  C   UNL     1      -3.674  -4.101  13.045  0.00  0.00    +0.052 C 
ATOM     15  C   UNL     1      -2.292  -4.742  13.210  0.00  0.00    +0.108 C 
ATOM     16  O   UNL     1      -1.932  -5.376  11.985  0.00  0.00    -0.486 OA
ATOM     17  C   UNL     1      -2.342  -5.778  14.335  0.00  0.00    +0.029 C 
ATOM     18  C   UNL     1      -0.941  -6.356  14.551  0.00  0.00    -0.075 C 
ATOM     19  N   UNL     1      -0.014  -5.276  14.913  0.00  0.00    +0.378 N 
ATOM     20  C   UNL     1       0.094  -4.320  13.804  0.00  0.00    -0.075 C 
ATOM     21  C   UNL     1      -1.266  -3.663  13.559  0.00  0.00    +0.029 C 
ATOM     22  C   UNL     1       1.310  -5.845  15.199  0.00  0.00    -0.096 C 
ATOM     23  H   UNL     1      -0.358  -4.801  15.734  0.00  0.00    -0.082 HD
ENDBRANCH   5   7
BRANCH   1  25
ATOM     24  N   UNL     1      -1.358  -2.098   2.449  0.00  0.00    -0.308 N 
ATOM     25  C   UNL     1      -1.235  -2.779   3.606  0.00  0.00    +0.244 C 
ATOM     26  O   UNL     1      -0.555  -3.786   3.648  0.00  0.00    -0.270 OA
ATOM     27  H   UNL     1      -1.901  -1.294   2.415  0.00  0.00    +0.149 HD
BRANCH  24  32
ATOM     28  C   UNL     1      -0.019   1.526   0.010  0.00  0.00    +0.007 C 
ATOM     29  C   UNL     1       0.002  -0.004   0.002  0.00  0.00    -0.014 C 
ATOM     30  C   UNL     1      -1.433  -0.534   0.013  0.00  0.00    +0.005 C 
ATOM     31  C   UNL     1      -1.413  -2.063   0.004  0.00  0.00    +0.022 C 
ATOM     32  C   UNL     1      -0.673  -2.570   1.244  0.00  0.00    +0.073 C 
ATOM     33  C   UNL     1       0.763  -2.041   1.233  0.00  0.00    +0.022 C 
ATOM     34  C   UNL     1       0.742  -0.511   1.242  0.00  0.00    +0.005 C 
ENDBRANCH  24  32
ENDBRANCH   1  25
TORSDOF 3
