REMARK  Name = ZINC63426750
REMARK  15 active torsions:
REMARK  status: ('A' for Active; 'I' for Inactive)
REMARK    1  A    between atoms: C_1  and  C_2
REMARK    2  A    between atoms: C_5  and  C_40
REMARK    3  A    between atoms: C_6  and  N_8
REMARK    4  A    between atoms: C_9  and  C_11
REMARK    5  A    between atoms: C_11  and  S_12
REMARK    6  A    between atoms: S_12  and  C_13
REMARK    7  A    between atoms: C_17  and  C_20
REMARK    8  A    between atoms: C_20  and  C_22
REMARK    9  A    between atoms: C_20  and  N_32
REMARK   10  A    between atoms: C_22  and  C_23
REMARK   11  A    between atoms: C_33  and  O_35
REMARK   12  A    between atoms: O_35  and  C_36
REMARK   13  A    between atoms: C_36  and  C_37
REMARK   14  A    between atoms: C_36  and  C_38
REMARK   15  A    between atoms: C_36  and  C_39
REMARK                            x       y       z     vdW  Elec       q    Type
REMARK                         _______ _______ _______ _____ _____    ______ ____
ROOT
ATOM      1  C   UNL     1       1.636  -4.899   9.678  0.00  0.00    +0.133 C 
ENDROOT
BRANCH   1   5
ATOM      2  C   UNL     1       0.545  -2.800   7.698  0.00  0.00    +0.319 C 
ATOM      3  N   UNL     1      -0.599  -3.717   7.777  0.00  0.00    -0.146 NA
ATOM      4  N   UNL     1      -0.210  -4.859   8.052  0.00  0.00    -0.155 NA
ATOM      5  C   UNL     1       1.251  -4.873   8.198  0.00  0.00    +0.280 C 
ATOM      6  O   UNL     1       1.706  -3.649   7.583  0.00  0.00    -0.316 OA
BRANCH   2   7
ATOM      7  S   UNL     1       0.398  -1.733   6.238  0.00  0.00    -0.095 S 
BRANCH   7   8
ATOM      8  C   UNL     1       0.287  -2.899   4.853  0.00  0.00    +0.169 C 
BRANCH   8  10
ATOM      9  N   UNL     1       0.060  -2.796   2.392  0.00  0.00    -0.285 N 
ATOM     10  C   UNL     1       0.159  -2.134   3.561  0.00  0.00    +0.227 C 
ATOM     11  O   UNL     1       0.144  -0.921   3.574  0.00  0.00    -0.275 OA
ATOM     12  H   UNL     1      -0.009  -3.764   2.387  0.00  0.00    +0.155 HD
BRANCH   9  18
ATOM     13  C   UNL     1       1.281   1.225  -0.159  0.00  0.00    +0.044 C 
ATOM     14  C   UNL     1       0.642  -0.137  -0.080  0.00  0.00    -0.049 A 
ATOM     15  C   UNL     1       0.053  -0.690  -1.203  0.00  0.00    +0.004 A 
ATOM     16  C   UNL     1      -0.534  -1.940  -1.135  0.00  0.00    +0.005 A 
ATOM     17  C   UNL     1      -0.533  -2.641   0.055  0.00  0.00    -0.029 A 
ATOM     18  C   UNL     1       0.058  -2.089   1.184  0.00  0.00    +0.037 A 
ATOM     19  C   UNL     1       0.651  -0.835   1.111  0.00  0.00    +0.027 A 
ATOM     20  C   UNL     1      -1.173  -4.003   0.129  0.00  0.00    +0.045 C 
ENDBRANCH   9  18
ENDBRANCH   8  10
ENDBRANCH   7   8
ENDBRANCH   2   7
ENDBRANCH   1   5
BRANCH   1  21
ATOM     21  N   UNL     1       0.973  -3.794  10.375  0.00  0.00    -0.274 N 
ATOM     22  C   UNL     1       1.702  -2.910  11.084  0.00  0.00    +0.401 C 
ATOM     23  O   UNL     1       2.916  -2.975  11.072  0.00  0.00    -0.226 OA
ATOM     24  H   UNL     1       0.009  -3.699  10.325  0.00  0.00    +0.152 HD
BRANCH  22  25
ATOM     25  O   UNL     1       1.086  -1.955  11.806  0.00  0.00    -0.445 OA
BRANCH  25  26
ATOM     26  C   UNL     1       1.921  -1.052  12.534  0.00  0.00    +0.107 C 
ATOM     27  C   UNL     1       2.836  -0.306  11.560  0.00  0.00    +0.055 C 
ATOM     28  C   UNL     1       1.049  -0.046  13.287  0.00  0.00    +0.055 C 
ATOM     29  C   UNL     1       2.773  -1.838  13.533  0.00  0.00    +0.055 C 
ENDBRANCH  25  26
ENDBRANCH  22  25
ENDBRANCH   1  21
BRANCH   1  30
ATOM     30  C   UNL     1       1.198  -6.228  10.296  0.00  0.00    +0.060 C 
BRANCH  30  31
ATOM     31  C   UNL     1       1.685  -6.305  11.720  0.00  0.00    -0.040 C 
ATOM     32  C   UNL     1       0.992  -5.978  12.835  0.00  0.00    -0.001 A 
ATOM     33  C   UNL     1      -0.369  -5.471  13.048  0.00  0.00    +0.010 A 
ATOM     34  C   UNL     1      -0.790  -5.231  14.310  0.00  0.00    +0.001 A 
ATOM     35  C   UNL     1       0.039  -5.453  15.418  0.00  0.00    +0.002 A 
ATOM     36  C   UNL     1       1.302  -5.917  15.303  0.00  0.00    +0.026 A 
ATOM     37  C   UNL     1       1.848  -6.204  14.022  0.00  0.00    +0.043 A 
ATOM     38  N   UNL     1       3.023  -6.654  13.655  0.00  0.00    -0.380 N 
ATOM     39  C   UNL     1       3.044  -6.769  12.193  0.00  0.00    +0.144 C 
ATOM     40  H   UNL     1       3.756  -6.877  14.251  0.00  0.00    +0.160 HD
ENDBRANCH  30  31
ENDBRANCH   1  30
TORSDOF 10
