REMARK  Name = ZINC39198229
REMARK  10 active torsions:
REMARK  status: ('A' for Active; 'I' for Inactive)
REMARK    1  A    between atoms: C_1  and  N_2
REMARK    2  A    between atoms: N_2  and  C_3
REMARK    3  A    between atoms: N_2  and  C_31
REMARK    4  A    between atoms: C_3  and  C_4
REMARK    5  A    between atoms: C_4  and  C_5
REMARK    6  A    between atoms: C_5  and  N_6
REMARK    7  A    between atoms: C_7  and  C_9
REMARK    8  A    between atoms: N_12  and  C_15
REMARK    9  A    between atoms: C_15  and  C_16
REMARK   10  A    between atoms: C_17  and  C_25
REMARK                            x       y       z     vdW  Elec       q    Type
REMARK                         _______ _______ _______ _____ _____    ______ ____
ROOT
ATOM      1  C   UNL     1      -3.186  -4.371   5.145  0.00  0.00    +0.071 C 
ATOM      2  C   UNL     1      -4.128  -4.919   4.069  0.00  0.00    -0.006 C 
ATOM      3  C   UNL     1      -5.577  -4.750   4.532  0.00  0.00    -0.078 C 
ATOM      4  N   UNL     1      -5.782  -5.486   5.786  0.00  0.00    +0.383 N 
ATOM      5  C   UNL     1      -4.934  -4.919   6.841  0.00  0.00    -0.078 C 
ATOM      6  C   UNL     1      -3.461  -5.094   6.466  0.00  0.00    -0.006 C 
ATOM      7  H   UNL     1      -5.542  -6.457   5.648  0.00  0.00    -0.081 HD
ENDROOT
BRANCH   1   9
ATOM      8  N   UNL     1      -1.288  -4.060   3.589  0.00  0.00    -0.315 N 
ATOM      9  C   UNL     1      -1.756  -4.604   4.730  0.00  0.00    +0.216 C 
ATOM     10  O   UNL     1      -1.027  -5.283   5.422  0.00  0.00    -0.276 OA
ATOM     11  H   UNL     1      -1.871  -3.517   3.036  0.00  0.00    +0.149 HD
BRANCH   8  12
ATOM     12  C   UNL     1       0.102  -4.287   3.186  0.00  0.00    +0.105 C 
BRANCH  12  13
ATOM     13  C   UNL     1       0.374  -3.564   1.865  0.00  0.00    +0.037 C 
BRANCH  13  14
ATOM     14  C   UNL     1       1.826  -3.801   1.444  0.00  0.00    +0.106 C 
BRANCH  14  16
ATOM     15  C   UNL     1       2.572  -1.726   0.188  0.00  0.00    +0.129 C 
ATOM     16  N   UNL     1       2.087  -3.108   0.180  0.00  0.00    -0.333 N 
BRANCH  16  17
ATOM     17  C   UNL     1       1.872  -3.766  -1.034  0.00  0.00    +0.029 A 
ATOM     18  C   UNL     1       1.406  -5.074  -1.044  0.00  0.00    +0.023 A 
ATOM     19  C   UNL     1       1.195  -5.721  -2.246  0.00  0.00    +0.002 A 
ATOM     20  C   UNL     1       1.447  -5.068  -3.438  0.00  0.00    +0.000 A 
ATOM     21  C   UNL     1       1.911  -3.765  -3.432  0.00  0.00    +0.002 A 
ATOM     22  C   UNL     1       2.119  -3.110  -2.234  0.00  0.00    +0.023 A 
ENDBRANCH  16  17
ENDBRANCH  14  16
ENDBRANCH  13  14
ENDBRANCH  12  13
ENDBRANCH   8  12
ENDBRANCH   1   9
BRANCH   4  23
ATOM     23  C   UNL     1      -7.192  -5.386   6.186  0.00  0.00    -0.022 C 
BRANCH  23  24
ATOM     24  C   UNL     1      -7.431  -6.241   7.404  0.00  0.00    +0.035 A 
ATOM     25  C   UNL     1      -7.676  -7.580   7.417  0.00  0.00    +0.091 A 
ATOM     26  N   UNL     1      -7.834  -7.968   8.693  0.00  0.00    -0.228 NA
ATOM     27  C   UNL     1      -7.695  -6.915   9.485  0.00  0.00    +0.138 A 
ATOM     28  N   UNL     1      -7.436  -5.819   8.704  0.00  0.00    -0.305 N 
ATOM     29  C   UNL     1      -7.243  -4.593   9.274  0.00  0.00    +0.093 A 
ATOM     30  C   UNL     1      -7.301  -4.442  10.614  0.00  0.00    +0.018 A 
ATOM     31  C   UNL     1      -7.561  -5.546  11.441  0.00  0.00    +0.005 A 
ATOM     32  C   UNL     1      -7.764  -6.772  10.886  0.00  0.00    +0.047 A 
BRANCH  25  33
ATOM     33  C   UNL     1      -7.757  -8.461   6.225  0.00  0.00    +0.002 A 
ATOM     34  C   UNL     1      -7.146  -9.713   6.238  0.00  0.00    +0.010 A 
ATOM     35  C   UNL     1      -7.224 -10.528   5.127  0.00  0.00    +0.001 A 
ATOM     36  C   UNL     1      -7.907 -10.104   4.002  0.00  0.00    +0.000 A 
ATOM     37  C   UNL     1      -8.516  -8.861   3.983  0.00  0.00    +0.001 A 
ATOM     38  C   UNL     1      -8.449  -8.041   5.091  0.00  0.00    +0.010 A 
ENDBRANCH  25  33
ENDBRANCH  23  24
ENDBRANCH   4  23
TORSDOF 9
