REMARK  Name = ZINC61869234
REMARK  7 active torsions:
REMARK  status: ('A' for Active; 'I' for Inactive)
REMARK    1  A    between atoms: C_1  and  C_2
REMARK    2  A    between atoms: C_5  and  C_27
REMARK    3  A    between atoms: C_6  and  C_8
REMARK    4  A    between atoms: C_8  and  C_9
REMARK    5  A    between atoms: C_8  and  N_10
REMARK    6  A    between atoms: C_11  and  C_13
REMARK    7  A    between atoms: N_15  and  C_16
REMARK                            x       y       z     vdW  Elec       q    Type
REMARK                         _______ _______ _______ _____ _____    ______ ____
ROOT
ATOM      1  C   UNL     1      -1.687  -1.758   5.704  0.00  0.00    +0.303 C 
ATOM      2  O   UNL     1      -1.669  -0.548   5.609  0.00  0.00    -0.265 OA
ATOM      3  N   UNL     1      -2.243  -2.341   6.785  0.00  0.00    -0.278 N 
ATOM      4  H   UNL     1      -2.318  -3.307   6.831  0.00  0.00    +0.155 HD
ENDROOT
BRANCH   3   5
ATOM      5  C   UNL     1      -2.711  -1.553   7.841  0.00  0.00    +0.036 A 
ATOM      6  C   UNL     1      -3.292  -0.318   7.579  0.00  0.00    +0.024 A 
ATOM      7  C   UNL     1      -3.757   0.459   8.622  0.00  0.00    +0.018 A 
ATOM      8  C   UNL     1      -3.641   0.008   9.927  0.00  0.00    +0.030 A 
ATOM      9  C   UNL     1      -3.056  -1.230  10.202  0.00  0.00    +0.049 A 
ATOM     10  C   UNL     1      -2.598  -2.009   9.147  0.00  0.00    +0.047 A 
ATOM     11  N   UNL     1      -2.921  -1.697  11.507  0.00  0.00    -0.284 N 
ATOM     12  C   UNL     1      -3.632  -1.306  12.561  0.00  0.00    +0.227 C 
ATOM     13  O   UNL     1      -3.398  -1.822  13.633  0.00  0.00    -0.275 OA
ATOM     14  C   UNL     1      -4.711  -0.260  12.495  0.00  0.00    +0.170 C 
ATOM     15  S   UNL     1      -4.237   0.993  11.265  0.00  0.00    -0.114 S 
ATOM     16  H   UNL     1      -2.244  -2.374  11.662  0.00  0.00    +0.155 HD
ENDBRANCH   3   5
BRANCH   1  18
ATOM     17  N   UNL     1      -0.539  -2.018   3.543  0.00  0.00    -0.301 N 
ATOM     18  C   UNL     1      -1.095  -2.601   4.624  0.00  0.00    +0.300 C 
ATOM     19  O   UNL     1      -1.113  -3.811   4.719  0.00  0.00    -0.265 OA
ATOM     20  H   UNL     1      -0.524  -1.052   3.467  0.00  0.00    +0.150 HD
BRANCH  17  21
ATOM     21  C   UNL     1       0.042  -2.845   2.482  0.00  0.00    +0.101 C 
ATOM     22  C   UNL     1       1.484  -3.204   2.848  0.00  0.00    +0.033 C 
BRANCH  21  28
ATOM     23  C   UNL     1      -0.004   1.511   0.019  0.00  0.00    +0.044 C 
ATOM     24  C   UNL     1       0.006   0.004   0.006  0.00  0.00    -0.050 A 
ATOM     25  C   UNL     1       0.002  -0.677  -1.198  0.00  0.00    +0.003 A 
ATOM     26  C   UNL     1       0.011  -2.059  -1.210  0.00  0.00    +0.004 A 
ATOM     27  C   UNL     1       0.025  -2.761  -0.019  0.00  0.00    -0.046 A 
ATOM     28  C   UNL     1       0.029  -2.080   1.184  0.00  0.00    -0.024 A 
ATOM     29  C   UNL     1       0.024  -0.698   1.196  0.00  0.00    +0.009 A 
ATOM     30  C   UNL     1       0.034  -4.268  -0.032  0.00  0.00    +0.044 C 
ENDBRANCH  21  28
ENDBRANCH  17  21
ENDBRANCH   1  18
TORSDOF 4
