REMARK  Name = ZINC12998807
REMARK  9 active torsions:
REMARK  status: ('A' for Active; 'I' for Inactive)
REMARK    1  A    between atoms: C_1  and  C_2
REMARK    2  A    between atoms: C_5  and  N_8
REMARK    3  A    between atoms: C_9  and  C_34
REMARK    4  A    between atoms: N_13  and  C_16
REMARK    5  A    between atoms: C_16  and  C_17
REMARK    6  A    between atoms: N_19  and  C_20
REMARK    7  A    between atoms: C_20  and  C_21
REMARK    8  A    between atoms: C_21  and  C_23
REMARK    9  A    between atoms: C_21  and  N_62
REMARK                            x       y       z     vdW  Elec       q    Type
REMARK                         _______ _______ _______ _____ _____    ______ ____
ROOT
ATOM      1  C   UNL     1      -4.770   0.057  -2.454  0.00  0.00    +0.231 C 
ATOM      2  O   UNL     1      -4.100  -0.028  -3.462  0.00  0.00    -0.274 OA
ATOM      3  N   UNL     1      -4.257   0.634  -1.350  0.00  0.00    -0.315 N 
ATOM      4  H   UNL     1      -4.793   0.702  -0.544  0.00  0.00    +0.149 HD
ENDROOT
BRANCH   1   5
ATOM      5  C   UNL     1      -6.177  -0.484  -2.438  0.00  0.00    +0.213 C 
BRANCH   5  10
ATOM      6  N   UNL     1      -6.659  -2.606  -5.344  0.00  0.00    -0.243 N 
ATOM      7  C   UNL     1      -7.193  -1.352  -5.903  0.00  0.00    +0.166 C 
ATOM      8  C   UNL     1      -7.050  -0.364  -4.762  0.00  0.00    +0.244 C 
ATOM      9  O   UNL     1      -7.367   0.806  -4.763  0.00  0.00    -0.273 OA
ATOM     10  N   UNL     1      -6.496  -1.057  -3.748  0.00  0.00    -0.215 N 
ATOM     11  C   UNL     1      -6.278  -2.333  -4.083  0.00  0.00    +0.316 C 
ATOM     12  O   UNL     1      -5.790  -3.155  -3.332  0.00  0.00    -0.252 OA
ATOM     13  C   UNL     1      -6.367  -0.907  -7.112  0.00  0.00    +0.038 C 
BRANCH   6  18
ATOM     14  C   UNL     1      -6.284  -7.609  -7.993  0.00  0.00    +0.044 C 
ATOM     15  C   UNL     1      -6.383  -6.280  -7.289  0.00  0.00    -0.050 A 
ATOM     16  C   UNL     1      -5.946  -6.156  -5.983  0.00  0.00    +0.005 A 
ATOM     17  C   UNL     1      -6.037  -4.940  -5.335  0.00  0.00    +0.024 A 
ATOM     18  C   UNL     1      -6.566  -3.840  -5.997  0.00  0.00    +0.039 A 
ATOM     19  C   UNL     1      -7.009  -3.969  -7.307  0.00  0.00    +0.024 A 
ATOM     20  C   UNL     1      -6.911  -5.187  -7.951  0.00  0.00    +0.005 A 
ENDBRANCH   6  18
ENDBRANCH   5  10
ENDBRANCH   1   5
BRANCH   3  21
ATOM     21  C   UNL     1      -2.890   1.160  -1.366  0.00  0.00    +0.093 C 
BRANCH  21  22
ATOM     22  C   UNL     1      -2.515   1.650   0.034  0.00  0.00    -0.019 C 
BRANCH  22  23
ATOM     23  C   UNL     1      -3.378   2.829   0.401  0.00  0.00    -0.041 A 
ATOM     24  C   UNL     1      -4.473   2.653   1.227  0.00  0.00    +0.003 A 
ATOM     25  C   UNL     1      -5.268   3.734   1.560  0.00  0.00    +0.000 A 
ATOM     26  C   UNL     1      -4.966   4.992   1.072  0.00  0.00    +0.001 A 
ATOM     27  C   UNL     1      -3.869   5.169   0.251  0.00  0.00    +0.020 A 
ATOM     28  C   UNL     1      -3.073   4.088  -0.083  0.00  0.00    +0.043 A 
ATOM     29 CL   UNL     1      -1.695   4.310  -1.115  0.00  0.00    -0.083 Cl
ENDBRANCH  22  23
BRANCH  22  34
ATOM     30  C   UNL     1      -1.989  -0.659   0.602  0.00  0.00    -0.078 C 
ATOM     31  C   UNL     1      -1.883  -1.458   1.925  0.00  0.00    -0.020 C 
ATOM     32  C   UNL     1      -1.656  -0.352   2.981  0.00  0.00    -0.020 C 
ATOM     33  C   UNL     1      -2.197   0.937   2.335  0.00  0.00    -0.078 C 
ATOM     34  N   UNL     1      -2.717   0.549   1.023  0.00  0.00    +0.385 N 
ATOM     35  H   UNL     1      -3.720   0.341   1.096  0.00  0.00    -0.081 HD
ENDBRANCH  22  34
ENDBRANCH  21  22
ENDBRANCH   3  21
TORSDOF 7
