REMARK  Name = ZINC09504389
REMARK  11 active torsions:
REMARK  status: ('A' for Active; 'I' for Inactive)
REMARK    1  A    between atoms: C_1  and  C_2
REMARK    2  A    between atoms: C_5  and  C_9
REMARK    3  A    between atoms: C_6  and  C_8
REMARK    4  A    between atoms: C_9  and  C_10
REMARK    5  A    between atoms: N_12  and  C_13
REMARK    6  A    between atoms: C_13  and  C_14
REMARK    7  A    between atoms: C_14  and  N_57
REMARK    8  A    between atoms: C_15  and  N_57
REMARK    9  A    between atoms: C_16  and  N_57
REMARK   10  A    between atoms: C_21  and  C_27
REMARK   11  A    between atoms: C_23  and  C_26
REMARK                            x       y       z     vdW  Elec       q    Type
REMARK                         _______ _______ _______ _____ _____    ______ ____
ROOT
ATOM      1  C   UNL     1       2.785   7.612   0.015  0.00  0.00    +0.225 C 
ATOM      2  O   UNL     1       3.689   6.804   0.002  0.00  0.00    -0.275 OA
ATOM      3  N   UNL     1       1.505   7.191   0.025  0.00  0.00    -0.252 N 
ATOM      4  C   UNL     1       1.222   5.835   0.021  0.00  0.00    +0.168 A 
ATOM      5  N   UNL     1       0.053   5.238   0.029  0.00  0.00    -0.224 NA
ATOM      6  C   UNL     1      -0.076   3.893   0.023  0.00  0.00    +0.081 A 
ATOM      7  C   UNL     1      -1.266   3.130   0.030  0.00  0.00    +0.032 A 
ATOM      8  C   UNL     1      -1.220   1.760   0.017  0.00  0.00    -0.048 A 
ATOM      9  C   UNL     1      -0.013   1.076   0.008  0.00  0.00    +0.008 A 
ATOM     10  C   UNL     1       1.171   1.790   0.001  0.00  0.00    -0.034 A 
ATOM     11  C   UNL     1       1.134   3.163   0.008  0.00  0.00    +0.044 A 
ATOM     12  S   UNL     1       2.356   4.453   0.003  0.00  0.00    -0.052 S 
ATOM     13  C   UNL     1       2.493   1.067  -0.015  0.00  0.00    +0.045 C 
ATOM     14  C   UNL     1      -2.509   0.980   0.020  0.00  0.00    +0.044 C 
ENDROOT
BRANCH   1  15
ATOM     15  C   UNL     1       3.093   9.087   0.019  0.00  0.00    +0.131 C 
BRANCH  15  20
ATOM     16  C   UNL     1       8.820   9.858  -0.032  0.00  0.00    +0.044 C 
ATOM     17  C   UNL     1       7.327   9.657  -0.019  0.00  0.00    -0.050 A 
ATOM     18  C   UNL     1       6.639   9.663   1.181  0.00  0.00    +0.003 A 
ATOM     19  C   UNL     1       5.269   9.479   1.193  0.00  0.00    +0.004 A 
ATOM     20  C   UNL     1       4.587   9.289   0.006  0.00  0.00    -0.036 A 
ATOM     21  C   UNL     1       5.275   9.278  -1.193  0.00  0.00    -0.047 A 
ATOM     22  C   UNL     1       6.644   9.468  -1.206  0.00  0.00    +0.007 A 
ATOM     23  C   UNL     1       4.532   9.065  -2.486  0.00  0.00    +0.044 C 
ENDBRANCH  15  20
ENDBRANCH   1  15
BRANCH   3  24
ATOM     24  C   UNL     1       0.413   8.167   0.040  0.00  0.00    +0.097 C 
BRANCH  24  25
ATOM     25  C   UNL     1       0.047   8.500   1.488  0.00  0.00    -0.060 C 
BRANCH  25  28
ATOM     26  C   UNL     1      -1.587   9.645   2.860  0.00  0.00    -0.097 C 
ATOM     27  C   UNL     1      -0.611  10.767   0.949  0.00  0.00    -0.097 C 
ATOM     28  N   UNL     1      -1.070   9.469   1.487  0.00  0.00    +0.377 N 
ATOM     29  H   UNL     1      -1.824   9.108   0.890  0.00  0.00    -0.083 HD
ENDBRANCH  25  28
ENDBRANCH  24  25
ENDBRANCH   3  24
TORSDOF 5
