REMARK  Name = ZINC10022537
REMARK  12 active torsions:
REMARK  status: ('A' for Active; 'I' for Inactive)
REMARK    1  A    between atoms: C_1  and  C_2
REMARK    2  A    between atoms: N_11  and  C_12
REMARK    3  A    between atoms: C_12  and  C_13
REMARK    4  A    between atoms: C_13  and  C_14
REMARK    5  A    between atoms: C_14  and  N_56
REMARK    6  A    between atoms: C_15  and  N_56
REMARK    7  A    between atoms: C_16  and  N_56
REMARK    8  A    between atoms: C_17  and  C_19
REMARK    9  A    between atoms: C_19  and  S_20
REMARK   10  A    between atoms: S_20  and  C_21
REMARK   11  A    between atoms: C_24  and  O_27
REMARK   12  A    between atoms: O_27  and  C_28
REMARK                            x       y       z     vdW  Elec       q    Type
REMARK                         _______ _______ _______ _____ _____    ______ ____
ROOT
ATOM      1  C   UNL     1      -1.934   4.728   5.284  0.00  0.00    +0.046 C 
ATOM      2  C   UNL     1      -0.830   5.282   4.420  0.00  0.00    -0.024 A 
ATOM      3  C   UNL     1      -0.265   6.490   4.735  0.00  0.00    +0.005 A 
ATOM      4  C   UNL     1       0.753   7.036   3.967  0.00  0.00    +0.001 A 
ATOM      5  C   UNL     1       1.209   6.347   2.858  0.00  0.00    +0.017 A 
ATOM      6  C   UNL     1       0.649   5.137   2.535  0.00  0.00    +0.041 A 
ATOM      7  C   UNL     1      -0.390   4.550   3.294  0.00  0.00    +0.083 A 
ATOM      8  N   UNL     1      -0.836   3.355   2.849  0.00  0.00    -0.224 NA
ATOM      9  C   UNL     1      -0.343   2.771   1.782  0.00  0.00    +0.168 A 
ATOM     10  S   UNL     1       0.908   3.933   1.254  0.00  0.00    -0.052 S 
ATOM     11  N   UNL     1      -0.698   1.558   1.213  0.00  0.00    -0.250 N 
ATOM     12  C   UNL     1      -1.675   0.814   1.769  0.00  0.00    +0.231 C 
ATOM     13  O   UNL     1      -2.242   1.205   2.767  0.00  0.00    -0.274 OA
ENDROOT
BRANCH  11  14
ATOM     14  C   UNL     1      -0.013   1.086   0.008  0.00  0.00    +0.114 C 
BRANCH  14  15
ATOM     15  C   UNL     1      -0.753   1.593  -1.232  0.00  0.00    +0.001 C 
BRANCH  15  16
ATOM     16  C   UNL     1      -0.037   1.099  -2.490  0.00  0.00    -0.078 C 
BRANCH  16  19
ATOM     17  C   UNL     1      -0.664   3.049  -3.782  0.00  0.00    -0.097 C 
ATOM     18  C   UNL     1      -0.235   0.944  -4.898  0.00  0.00    -0.097 C 
ATOM     19  N   UNL     1      -0.775   1.579  -3.678  0.00  0.00    +0.376 N 
ATOM     20  H   UNL     1      -1.765   1.325  -3.580  0.00  0.00    -0.083 HD
ENDBRANCH  16  19
ENDBRANCH  15  16
ENDBRANCH  14  15
ENDBRANCH  11  14
BRANCH  12  21
ATOM     21  C   UNL     1      -2.061  -0.505   1.150  0.00  0.00    +0.170 C 
BRANCH  21  22
ATOM     22  S   UNL     1      -3.393  -1.262   2.121  0.00  0.00    -0.116 S 
BRANCH  22  23
ATOM     23  C   UNL     1      -3.727  -2.774   1.282  0.00  0.00    +0.009 A 
ATOM     24  C   UNL     1      -3.009  -3.109   0.140  0.00  0.00    +0.018 A 
ATOM     25  C   UNL     1      -3.268  -4.297  -0.514  0.00  0.00    +0.047 A 
ATOM     26  C   UNL     1      -4.253  -5.151  -0.039  0.00  0.00    +0.120 A 
ATOM     27  C   UNL     1      -4.974  -4.815   1.098  0.00  0.00    +0.047 A 
ATOM     28  C   UNL     1      -4.713  -3.630   1.757  0.00  0.00    +0.018 A 
BRANCH  26  29
ATOM     29  O   UNL     1      -4.510  -6.318  -0.687  0.00  0.00    -0.495 OA
ATOM     30  C   UNL     1      -3.730  -6.600  -1.850  0.00  0.00    +0.277 C 
ENDBRANCH  26  29
ENDBRANCH  22  23
ENDBRANCH  21  22
ENDBRANCH  12  21
TORSDOF 8
