REMARK  Name = ZINC35843685
REMARK  11 active torsions:
REMARK  status: ('A' for Active; 'I' for Inactive)
REMARK    1  A    between atoms: C_1  and  C_2
REMARK    2  A    between atoms: C_7  and  C_8
REMARK    3  A    between atoms: C_8  and  N_9
REMARK    4  A    between atoms: N_9  and  C_10
REMARK    5  A    between atoms: N_9  and  C_35
REMARK    6  A    between atoms: C_10  and  C_11
REMARK    7  A    between atoms: N_13  and  C_14
REMARK    8  A    between atoms: N_13  and  C_26
REMARK    9  A    between atoms: C_14  and  C_15
REMARK   10  A    between atoms: C_15  and  C_16
REMARK   11  A    between atoms: C_26  and  C_27
REMARK                            x       y       z     vdW  Elec       q    Type
REMARK                         _______ _______ _______ _____ _____    ______ ____
ROOT
ATOM      1  C   UNL     1      -3.015   2.222   4.282  0.00  0.00    +0.199 C 
ATOM      2  O   UNL     1      -4.060   2.075   3.685  0.00  0.00    -0.278 OA
ATOM      3  N   UNL     1      -2.966   3.013   5.372  0.00  0.00    -0.298 N 
ENDROOT
BRANCH   1   4
ATOM      4  C   UNL     1      -1.770   1.519   3.805  0.00  0.00    +0.020 C 
BRANCH   4   5
ATOM      5  N   UNL     1      -2.055   0.818   2.546  0.00  0.00    +0.390 N 
ATOM      6  H   UNL     1      -2.851   0.212   2.671  0.00  0.00    -0.080 HD
BRANCH   5   7
ATOM      7  C   UNL     1      -0.887   0.018   2.155  0.00  0.00    -0.068 C 
ATOM      8  C   UNL     1      -1.136  -1.421   1.699  0.00  0.00    -0.017 C 
ATOM      9  C   UNL     1      -0.496  -1.151   3.062  0.00  0.00    -0.017 C 
ENDBRANCH   5   7
BRANCH   5  10
ATOM     10  C   UNL     1      -2.349   1.801   1.494  0.00  0.00    -0.042 C 
BRANCH  10  17
ATOM     11  C   UNL     1      -5.047   0.804   1.217  0.00  0.00    +0.044 C 
ATOM     12  C   UNL     1      -4.052   0.605   0.103  0.00  0.00    -0.049 A 
ATOM     13  C   UNL     1      -4.431  -0.050  -1.054  0.00  0.00    +0.003 A 
ATOM     14  C   UNL     1      -3.518  -0.233  -2.076  0.00  0.00    +0.000 A 
ATOM     15  C   UNL     1      -2.226   0.240  -1.941  0.00  0.00    +0.000 A 
ATOM     16  C   UNL     1      -1.847   0.895  -0.785  0.00  0.00    +0.002 A 
ATOM     17  C   UNL     1      -2.761   1.082   0.235  0.00  0.00    -0.061 A 
ENDBRANCH  10  17
ENDBRANCH   5  10
ENDBRANCH   4   5
ENDBRANCH   1   4
BRANCH   3  18
ATOM     18  C   UNL     1      -4.144   3.790   5.765  0.00  0.00    +0.113 C 
BRANCH  18  19
ATOM     19  C   UNL     1      -5.006   2.962   6.720  0.00  0.00    +0.056 C 
BRANCH  19  20
ATOM     20  C   UNL     1      -6.218   3.762   7.125  0.00  0.00    -0.021 A 
ATOM     21  C   UNL     1      -6.343   4.518   8.227  0.00  0.00    +0.087 A 
ATOM     22  N   UNL     1      -7.584   5.094   8.259  0.00  0.00    -0.360 N 
ATOM     23  H   UNL     1      -7.908   5.683   8.958  0.00  0.00    +0.165 HD
ATOM     24  C   UNL     1      -8.306   4.712   7.149  0.00  0.00    +0.047 A 
ATOM     25  C   UNL     1      -7.479   3.866   6.388  0.00  0.00    +0.003 A 
ATOM     26  C   UNL     1      -7.950   3.326   5.190  0.00  0.00    +0.010 A 
ATOM     27  C   UNL     1      -9.213   3.625   4.761  0.00  0.00    +0.001 A 
ATOM     28  C   UNL     1     -10.031   4.462   5.507  0.00  0.00    +0.002 A 
ATOM     29  C   UNL     1      -9.589   4.999   6.697  0.00  0.00    +0.026 A 
ENDBRANCH  19  20
ENDBRANCH  18  19
ENDBRANCH   3  18
BRANCH   3  30
ATOM     30  C   UNL     1      -1.736   3.095   6.163  0.00  0.00    +0.142 C 
BRANCH  30  31
ATOM     31  C   UNL     1      -0.925   4.281   5.707  0.00  0.00    -0.029 A 
ATOM     32  C   UNL     1       0.094   4.109   4.789  0.00  0.00    +0.007 A 
ATOM     33  C   UNL     1       0.839   5.195   4.371  0.00  0.00    +0.022 A 
ATOM     34  C   UNL     1       0.565   6.456   4.871  0.00  0.00    +0.059 A 
ATOM     35  C   UNL     1      -0.455   6.628   5.791  0.00  0.00    +0.060 A 
ATOM     36  C   UNL     1      -1.203   5.540   6.204  0.00  0.00    +0.026 A 
ATOM     37 CL   UNL     1      -0.799   8.209   6.420  0.00  0.00    -0.082 Cl
ATOM     38 CL   UNL     1       1.502   7.821   4.347  0.00  0.00    -0.082 Cl
ENDBRANCH  30  31
ENDBRANCH   3  30
TORSDOF 10
