REMARK  Name = ZINC06077699
REMARK  14 active torsions:
REMARK  status: ('A' for Active; 'I' for Inactive)
REMARK    1  A    between atoms: C_1  and  C_2
REMARK    2  A    between atoms: C_2  and  C_3
REMARK    3  A    between atoms: C_3  and  C_4
REMARK    4  A    between atoms: C_3  and  C_5
REMARK    5  A    between atoms: C_3  and  N_6
REMARK    6  A    between atoms: C_7  and  C_11
REMARK    7  A    between atoms: C_11  and  C_13
REMARK    8  A    between atoms: C_11  and  N_71
REMARK    9  A    between atoms: C_17  and  C_26
REMARK   10  A    between atoms: C_19  and  C_25
REMARK   11  A    between atoms: C_27  and  C_28
REMARK   12  A    between atoms: C_27  and  N_71
REMARK   13  A    between atoms: C_34  and  C_35
REMARK   14  A    between atoms: C_34  and  N_71
REMARK                            x       y       z     vdW  Elec       q    Type
REMARK                         _______ _______ _______ _____ _____    ______ ____
ROOT
ATOM      1  C   UNL     1      -0.674   0.585   0.565  0.00  0.00    +0.040 C 
ENDROOT
BRANCH   1   2
ATOM      2  C   UNL     1       0.492   1.496   0.847  0.00  0.00    +0.011 A 
ATOM      3  C   UNL     1       0.340   2.839   0.747  0.00  0.00    +0.017 A 
ATOM      4  C   UNL     1       1.494   3.696   1.027  0.00  0.00    -0.001 A 
ATOM      5  C   UNL     1       1.398   5.089   0.941  0.00  0.00    +0.013 A 
ATOM      6  C   UNL     1       2.493   5.861   1.208  0.00  0.00    -0.050 A 
ATOM      7  C   UNL     1       3.700   5.276   1.565  0.00  0.00    +0.008 A 
ATOM      8  C   UNL     1       3.817   3.906   1.655  0.00  0.00    -0.026 A 
ATOM      9  C   UNL     1       2.716   3.099   1.388  0.00  0.00    +0.052 A 
ATOM     10  N   UNL     1       2.805   1.726   1.472  0.00  0.00    -0.322 N 
ATOM     11  H   UNL     1       3.674   1.303   1.729  0.00  0.00    +0.169 HD
ATOM     12  C   UNL     1       1.740   0.947   1.213  0.00  0.00    +0.251 A 
ATOM     13  O   UNL     1       1.855  -0.264   1.296  0.00  0.00    -0.268 OA
ATOM     14  C   UNL     1       5.134   3.284   2.044  0.00  0.00    +0.046 C 
ATOM     15  C   UNL     1       2.389   7.362   1.115  0.00  0.00    +0.044 C 
ENDBRANCH   1   2
BRANCH   1  17
ATOM     16  N   UNL     1      -0.884  -0.077  -1.890  0.00  0.00    -0.225 N 
ATOM     17  C   UNL     1      -0.377  -0.250  -0.655  0.00  0.00    +0.143 A 
ATOM     18  N   UNL     1       0.420  -1.288  -0.717  0.00  0.00    -0.115 NA
ATOM     19  N   UNL     1       0.408  -1.727  -1.928  0.00  0.00    -0.023 NA
ATOM     20  N   UNL     1      -0.376  -0.995  -2.640  0.00  0.00    -0.043 NA
BRANCH  16  21
ATOM     21  C   UNL     1      -1.831   0.961  -2.304  0.00  0.00    +0.061 C 
ATOM     22  C   UNL     1      -3.155   0.769  -1.561  0.00  0.00    +0.036 C 
ATOM     23  C   UNL     1      -1.255   2.339  -1.973  0.00  0.00    +0.036 C 
BRANCH  21  25
ATOM     24  C   UNL     1      -3.062   1.942  -4.244  0.00  0.00    +0.006 C 
ATOM     25  C   UNL     1      -2.073   0.858  -3.811  0.00  0.00    +0.026 C 
ENDBRANCH  21  25
ENDBRANCH  16  21
ENDBRANCH   1  17
BRANCH   1  26
ATOM     26  N   UNL     1      -0.876  -0.316   1.719  0.00  0.00    +0.397 N 
ATOM     27  H   UNL     1      -0.114  -1.003   1.743  0.00  0.00    -0.079 HD
BRANCH  26  28
ATOM     28  C   UNL     1      -2.163  -1.030   1.583  0.00  0.00    -0.039 C 
BRANCH  28  29
ATOM     29  C   UNL     1      -1.949  -2.246   0.720  0.00  0.00    -0.046 A 
ATOM     30  C   UNL     1      -2.293  -2.223  -0.624  0.00  0.00    +0.005 A 
ATOM     31  C   UNL     1      -2.074  -3.363  -1.381  0.00  0.00    +0.020 A 
ATOM     32  C   UNL     1      -1.534  -4.481  -0.774  0.00  0.00    +0.111 A 
ATOM     33  N   UNL     1      -1.224  -4.469   0.508  0.00  0.00    -0.263 NA
ATOM     34  C   UNL     1      -1.414  -3.401   1.258  0.00  0.00    +0.112 A 
ENDBRANCH  28  29
ENDBRANCH  26  28
BRANCH  26  35
ATOM     35  C   UNL     1      -0.861   0.463   2.976  0.00  0.00    -0.001 C 
BRANCH  35  36
ATOM     36  C   UNL     1      -0.694  -0.489   4.132  0.00  0.00    +0.089 A 
ATOM     37  C   UNL     1       0.475  -0.858   4.685  0.00  0.00    +0.042 A 
ATOM     38  C   UNL     1       0.168  -1.756   5.733  0.00  0.00    +0.041 A 
ATOM     39  C   UNL     1      -1.171  -1.883   5.757  0.00  0.00    +0.195 A 
ATOM     40  O   UNL     1      -1.688  -1.109   4.789  0.00  0.00    -0.470 OA
ENDBRANCH  35  36
ENDBRANCH  26  35
ENDBRANCH   1  26
TORSDOF 9
