REMARK  Name = ZINC64002230
REMARK  8 active torsions:
REMARK  status: ('A' for Active; 'I' for Inactive)
REMARK    1  A    between atoms: C_1  and  C_2
REMARK    2  A    between atoms: C_7  and  C_12
REMARK    3  A    between atoms: N_14  and  C_15
REMARK    4  A    between atoms: C_15  and  C_16
REMARK    5  A    between atoms: C_18  and  C_24
REMARK    6  A    between atoms: C_21  and  C_23
REMARK    7  A    between atoms: C_29  and  N_30
REMARK    8  A    between atoms: C_31  and  C_33
REMARK                            x       y       z     vdW  Elec       q    Type
REMARK                         _______ _______ _______ _____ _____    ______ ____
ROOT
ATOM      1  C   UNL     1       2.369  -7.280   4.688  0.00  0.00    +0.062 C 
ATOM      2  N   UNL     1       1.307  -7.225   5.401  0.00  0.00    -0.253 NA
ATOM      3  C   UNL     1       1.500  -7.992   6.636  0.00  0.00    +0.268 C 
ATOM      4  O   UNL     1       2.637  -8.846   6.407  0.00  0.00    -0.342 OA
ATOM      5  C   UNL     1       3.391  -8.128   5.412  0.00  0.00    +0.164 C 
ATOM      6  C   UNL     1       4.441  -7.239   6.083  0.00  0.00    +0.044 C 
ENDROOT
BRANCH   3   7
ATOM      7  C   UNL     1       0.277  -8.823   6.926  0.00  0.00    +0.024 A 
ATOM      8  C   UNL     1      -0.681  -9.008   5.947  0.00  0.00    +0.010 A 
ATOM      9  C   UNL     1      -1.804  -9.770   6.212  0.00  0.00    +0.001 A 
ATOM     10  C   UNL     1      -1.972 -10.351   7.456  0.00  0.00    +0.002 A 
ATOM     11  C   UNL     1      -1.018 -10.171   8.438  0.00  0.00    +0.024 A 
ATOM     12  C   UNL     1       0.114  -9.409   8.174  0.00  0.00    +0.041 A 
BRANCH  12  13
ATOM     13  N   UNL     1       1.085  -9.229   9.165  0.00  0.00    -0.283 N 
ATOM     14  C   UNL     1       0.718  -9.134  10.459  0.00  0.00    +0.246 C 
ATOM     15  O   UNL     1      -0.444  -9.286  10.772  0.00  0.00    -0.273 OA
ATOM     16  H   UNL     1       2.022  -9.173   8.921  0.00  0.00    +0.155 HD
BRANCH  14  17
ATOM     17  C   UNL     1       1.751  -8.840  11.515  0.00  0.00    +0.204 C 
ATOM     18  C   UNL     1       2.754 -10.010  11.608  0.00  0.00    +0.043 C 
ATOM     19  C   UNL     1       2.997 -10.115  13.138  0.00  0.00    +0.031 C 
ATOM     20  C   UNL     1       1.600  -9.727  13.685  0.00  0.00    +0.161 C 
ATOM     21  O   UNL     1       1.116  -8.709  12.792  0.00  0.00    -0.367 OA
ENDBRANCH  14  17
ENDBRANCH  12  13
ENDBRANCH   3   7
BRANCH   1  22
ATOM     22  C   UNL     1       2.565  -6.618   3.348  0.00  0.00    +0.157 C 
BRANCH  22  25
ATOM     23  C   UNL     1       1.294  -5.212   1.817  0.00  0.00    +0.240 C 
ATOM     24  O   UNL     1       2.250  -5.210   1.071  0.00  0.00    -0.273 OA
ATOM     25  N   UNL     1       1.350  -5.887   2.982  0.00  0.00    -0.308 N 
ATOM     26  H   UNL     1       0.585  -5.888   3.579  0.00  0.00    +0.149 HD
BRANCH  23  33
ATOM     27  C   UNL     1      -0.070   1.441  -0.055  0.00  0.00    +0.044 C 
ATOM     28  C   UNL     1      -0.043  -0.065  -0.054  0.00  0.00    -0.050 A 
ATOM     29  C   UNL     1      -0.036  -0.749  -1.278  0.00  0.00    +0.005 A 
ATOM     30  C   UNL     1      -0.012  -2.096  -1.361  0.00  0.00    +0.026 A 
ATOM     31  C   UNL     1       0.008  -2.888  -0.180  0.00  0.00    +0.043 A 
ATOM     32  N   UNL     1       0.032  -4.187  -0.001  0.00  0.00    -0.370 N 
ATOM     33  C   UNL     1       0.044  -4.460   1.441  0.00  0.00    +0.190 C 
ATOM     34  C   UNL     1       0.023  -3.108   2.119  0.00  0.00    +0.016 C 
ATOM     35  C   UNL     1       0.002  -2.191   1.125  0.00  0.00    -0.003 A 
ATOM     36  C   UNL     1      -0.019  -0.723   1.128  0.00  0.00    +0.013 A 
ATOM     37  H   UNL     1       0.041  -4.855  -0.704  0.00  0.00    +0.161 HD
ENDBRANCH  23  33
ENDBRANCH  22  25
ENDBRANCH   1  22
TORSDOF 6
