REMARK  Name = ZINC36826193
REMARK  4 active torsions:
REMARK  status: ('A' for Active; 'I' for Inactive)
REMARK    1  A    between atoms: C_1  and  C_2
REMARK    2  A    between atoms: C_6  and  N_23
REMARK    3  A    between atoms: C_7  and  S_8
REMARK    4  A    between atoms: S_8  and  N_11
REMARK                            x       y       z     vdW  Elec       q    Type
REMARK                         _______ _______ _______ _____ _____    ______ ____
ROOT
ATOM      1  S   UNL     1       0.383   0.459   2.780  0.00  0.00    +0.063 S 
ATOM      2  O   UNL     1       0.809  -0.884   2.963  0.00  0.00    -0.153 OA
ATOM      3  O   UNL     1       1.103   1.565   3.307  0.00  0.00    -0.153 OA
ENDROOT
BRANCH   1   4
ATOM      4  N   UNL     1      -1.151   0.557   3.397  0.00  0.00    -0.173 NA
ATOM      5  C   UNL     1      -2.031   1.683   3.049  0.00  0.00    +0.110 C 
ATOM      6  C   UNL     1      -2.551   2.321   4.340  0.00  0.00    +0.017 C 
ATOM      7  C   UNL     1      -3.210   1.249   5.212  0.00  0.00    +0.006 C 
ATOM      8  C   UNL     1      -2.166   0.189   5.584  0.00  0.00    +0.008 C 
ATOM      9  C   UNL     1      -1.666  -0.481   4.297  0.00  0.00    +0.083 C 
ATOM     10  C   UNL     1      -0.569  -1.493   4.615  0.00  0.00    +0.021 C 
ATOM     11  C   UNL     1       0.591  -0.797   5.329  0.00  0.00    +0.002 C 
ATOM     12  C   UNL     1       0.079  -0.170   6.628  0.00  0.00    +0.000 C 
ATOM     13  C   UNL     1      -1.008   0.873   6.314  0.00  0.00    +0.005 C 
ENDBRANCH   1   4
BRANCH   1  20
ATOM     14  C   UNL     1       0.864   3.116   1.419  0.00  0.00    +0.046 C 
ATOM     15  C   UNL     1       0.501   1.969   0.511  0.00  0.00    -0.022 A 
ATOM     16  C   UNL     1       0.413   2.171  -0.855  0.00  0.00    +0.005 A 
ATOM     17  C   UNL     1       0.081   1.122  -1.692  0.00  0.00    +0.002 A 
ATOM     18  C   UNL     1      -0.164  -0.132  -1.167  0.00  0.00    +0.025 A 
ATOM     19  C   UNL     1      -0.076  -0.338   0.204  0.00  0.00    +0.051 A 
ATOM     20  C   UNL     1       0.263   0.717   1.042  0.00  0.00    +0.129 A 
BRANCH  19  21
ATOM     21  N   UNL     1      -0.323  -1.605   0.738  0.00  0.00    -0.356 N 
ATOM     22  H   UNL     1      -0.460  -2.362   0.147  0.00  0.00    +0.142 HD
ATOM     23  H   UNL     1      -0.357  -1.727   1.700  0.00  0.00    +0.142 HD
ENDBRANCH  19  21
ENDBRANCH   1  20
TORSDOF 3
