REMARK  Name = ZINC16757423
REMARK  4 active torsions:
REMARK  status: ('A' for Active; 'I' for Inactive)
REMARK    1  A    between atoms: C_1  and  S_2
REMARK    2  A    between atoms: S_2  and  C_3
REMARK    3  A    between atoms: C_6  and  C_9
REMARK    4  A    between atoms: C_21  and  C_25
REMARK                            x       y       z     vdW  Elec       q    Type
REMARK                         _______ _______ _______ _____ _____    ______ ____
ROOT
ATOM      1  C   UNL     1       5.426   1.700   0.021  0.00  0.00    +0.131 C 
ATOM      2  C   UNL     1       4.590   1.720  -1.237  0.00  0.00    +0.043 A 
ATOM      3  C   UNL     1       3.270   1.424  -1.250  0.00  0.00    -0.009 A 
ATOM      4  C   UNL     1       2.818   1.545  -2.618  0.00  0.00    +0.004 A 
ATOM      5  C   UNL     1       1.573   1.362  -3.229  0.00  0.00    +0.010 A 
ATOM      6  C   UNL     1       1.510   1.569  -4.585  0.00  0.00    +0.001 A 
ATOM      7  C   UNL     1       2.620   1.942  -5.325  0.00  0.00    +0.002 A 
ATOM      8  C   UNL     1       3.863   2.130  -4.748  0.00  0.00    +0.026 A 
ATOM      9  C   UNL     1       3.958   1.927  -3.373  0.00  0.00    +0.047 A 
ATOM     10  N   UNL     1       5.008   2.023  -2.504  0.00  0.00    -0.356 N 
ATOM     11  H   UNL     1       6.059   2.292  -2.687  0.00  0.00    +0.166 HD
ATOM     12  C   UNL     1       2.490   1.048  -0.016  0.00  0.00    +0.065 C 
ATOM     13  C   UNL     1       3.322   1.446   1.211  0.00  0.00    +0.094 C 
ATOM     14  N   UNL     1       4.696   0.947   1.053  0.00  0.00    -0.304 NA
ATOM     15  H   UNL     1       4.651  -0.115   0.770  0.00  0.00    +0.123 HD
ENDROOT
BRANCH   1  19
ATOM     16  C   UNL     1       9.167  -0.208  -0.773  0.00  0.00    +0.008 A 
ATOM     17  C   UNL     1       9.085   1.179  -0.741  0.00  0.00    +0.015 A 
ATOM     18  C   UNL     1       7.875   1.792  -0.484  0.00  0.00    +0.006 A 
ATOM     19  C   UNL     1       6.745   1.027  -0.259  0.00  0.00    -0.025 A 
ATOM     20  C   UNL     1       6.824  -0.354  -0.285  0.00  0.00    +0.006 A 
ATOM     21  C   UNL     1       8.030  -0.973  -0.547  0.00  0.00    +0.015 A 
BRANCH  16  23
ATOM     22  C   UNL     1      10.321  -2.765  -1.040  0.00  0.00    +0.090 C 
ATOM     23  S   UNL     1      10.710  -0.994  -1.100  0.00  0.00    -0.129 S 
ENDBRANCH  16  23
ENDBRANCH   1  19
BRANCH  12  24
ATOM     24  C   UNL     1       1.175   1.783   0.000  0.00  0.00    -0.039 A 
ATOM     25  C   UNL     1      -0.013   1.076   0.008  0.00  0.00    +0.004 A 
ATOM     26  C   UNL     1      -1.219   1.751   0.017  0.00  0.00    +0.000 A 
ATOM     27  C   UNL     1      -1.238   3.133   0.029  0.00  0.00    +0.000 A 
ATOM     28  C   UNL     1      -0.050   3.840   0.022  0.00  0.00    +0.000 A 
ATOM     29  C   UNL     1       1.156   3.165   0.008  0.00  0.00    +0.004 A 
ENDBRANCH  12  24
TORSDOF 3
