REMARK  Name = ZINC19931323
REMARK  5 active torsions:
REMARK  status: ('A' for Active; 'I' for Inactive)
REMARK    1  A    between atoms: C_4  and  C_7
REMARK    2  A    between atoms: C_7  and  N_8
REMARK    3  A    between atoms: C_16  and  C_17
REMARK    4  A    between atoms: C_17  and  C_19
REMARK    5  A    between atoms: C_17  and  N_33
REMARK                            x       y       z     vdW  Elec       q    Type
REMARK                         _______ _______ _______ _____ _____    ______ ____
ROOT
ATOM      1  C   UNL     1      -1.611  -1.566   1.429  0.00  0.00    +0.149 C 
ENDROOT
BRANCH   1   2
ATOM      2  C   UNL     1      -0.195  -1.536   1.944  0.00  0.00    -0.009 A 
ATOM      3  C   UNL     1       0.630  -0.424   1.706  0.00  0.00    +0.004 A 
ATOM      4  C   UNL     1       0.169   0.697   0.997  0.00  0.00    +0.010 A 
ATOM      5  C   UNL     1       1.002   1.756   0.798  0.00  0.00    +0.001 A 
ATOM      6  C   UNL     1       2.304   1.744   1.293  0.00  0.00    +0.002 A 
ATOM      7  C   UNL     1       2.782   0.675   1.988  0.00  0.00    +0.026 A 
ATOM      8  C   UNL     1       1.953  -0.437   2.214  0.00  0.00    +0.047 A 
ATOM      9  N   UNL     1       2.388  -1.500   2.890  0.00  0.00    -0.358 N 
ATOM     10  C   UNL     1       1.624  -2.553   3.113  0.00  0.00    +0.020 A 
ATOM     11  C   UNL     1       0.315  -2.596   2.651  0.00  0.00    -0.023 A 
ATOM     12  C   UNL     1      -0.597  -3.769   2.897  0.00  0.00    +0.037 C 
ATOM     13  C   UNL     1       0.212  -5.003   3.292  0.00  0.00    +0.005 C 
ATOM     14  C   UNL     1       1.156  -4.617   4.436  0.00  0.00    +0.006 C 
ATOM     15  C   UNL     1       2.240  -3.698   3.879  0.00  0.00    +0.053 C 
ATOM     16  H   UNL     1       3.415  -1.519   3.283  0.00  0.00    +0.166 HD
ENDBRANCH   1   2
BRANCH   1  25
ATOM     17  N   UNL     1      -2.816   0.456   0.464  0.00  0.00    -0.322 N 
ATOM     18  C   UNL     1      -3.219   1.693   0.925  0.00  0.00    +0.069 A 
ATOM     19  C   UNL     1      -3.887   2.767   0.354  0.00  0.00    +0.028 A 
ATOM     20  C   UNL     1      -4.144   3.891   1.109  0.00  0.00    +0.002 A 
ATOM     21  C   UNL     1      -3.739   3.955   2.435  0.00  0.00    +0.002 A 
ATOM     22  C   UNL     1      -3.081   2.907   3.014  0.00  0.00    +0.030 A 
ATOM     23  C   UNL     1      -2.809   1.758   2.268  0.00  0.00    +0.089 A 
ATOM     24  N   UNL     1      -2.191   0.582   2.550  0.00  0.00    -0.230 NA
ATOM     25  C   UNL     1      -2.200  -0.181   1.496  0.00  0.00    +0.133 A 
BRANCH  17  26
ATOM     26  C   UNL     1      -3.020  -0.076  -0.886  0.00  0.00    +0.158 C 
BRANCH  26  30
ATOM     27  C   UNL     1       0.094   1.317  -3.457  0.00  0.00    +0.000 A 
ATOM     28  C   UNL     1       0.199   0.078  -2.854  0.00  0.00    +0.000 A 
ATOM     29  C   UNL     1      -0.807  -0.371  -2.019  0.00  0.00    +0.005 A 
ATOM     30  C   UNL     1      -1.920   0.416  -1.791  0.00  0.00    -0.028 A 
ATOM     31  C   UNL     1      -2.022   1.658  -2.390  0.00  0.00    +0.005 A 
ATOM     32  C   UNL     1      -1.016   2.107  -3.225  0.00  0.00    +0.000 A 
ENDBRANCH  26  30
ENDBRANCH  17  26
ENDBRANCH   1  25
BRANCH   1  33
ATOM     33  N   UNL     1      -2.413  -2.480   2.253  0.00  0.00    -0.318 NA
ATOM     34  H   UNL     1      -1.982  -3.491   2.203  0.00  0.00    +0.119 HD
ATOM     35  H   UNL     1      -2.410  -2.131   3.296  0.00  0.00    +0.119 HD
ENDBRANCH   1  33
TORSDOF 5
