REMARK  Name = ZINC39662365
REMARK  6 active torsions:
REMARK  status: ('A' for Active; 'I' for Inactive)
REMARK    1  A    between atoms: C_4  and  C_7
REMARK    2  A    between atoms: C_7  and  C_9
REMARK    3  A    between atoms: C_7  and  N_11
REMARK    4  A    between atoms: C_12  and  C_14
REMARK    5  A    between atoms: C_25  and  C_27
REMARK    6  A    between atoms: C_27  and  C_28
REMARK                            x       y       z     vdW  Elec       q    Type
REMARK                         _______ _______ _______ _____ _____    ______ ____
ROOT
ATOM      1  C   UNL     1       4.668  -3.585   2.299  0.00  0.00    +0.100 C 
ATOM      2  C   UNL     1       4.008  -4.772   1.563  0.00  0.00    +0.121 C 
ATOM      3  N   UNL     1       5.144  -5.563   1.034  0.00  0.00    -0.300 N 
ATOM      4  C   UNL     1       6.158  -5.519   2.114  0.00  0.00    +0.115 C 
ATOM      5  C   UNL     1       6.078  -4.080   2.663  0.00  0.00    -0.004 C 
ATOM      6  C   UNL     1       6.264  -4.081   4.177  0.00  0.00    -0.010 C 
ATOM      7  C   UNL     1       7.692  -4.521   4.511  0.00  0.00    -0.082 C 
ATOM      8  N   UNL     1       8.649  -3.604   3.881  0.00  0.00    +0.379 N 
ATOM      9  C   UNL     1       8.527  -3.679   2.420  0.00  0.00    -0.082 C 
ATOM     10  C   UNL     1       7.134  -3.203   1.997  0.00  0.00    -0.010 C 
ATOM     11  C   UNL     1       5.234  -6.183  -0.159  0.00  0.00    +0.220 C 
ATOM     12  O   UNL     1       6.239  -6.797  -0.449  0.00  0.00    -0.275 OA
ATOM     13  H   UNL     1       8.459  -2.660   4.185  0.00  0.00    -0.086 HD
ATOM     14  H   UNL     1       9.586  -3.859   4.152  0.00  0.00    -0.086 HD
ENDROOT
BRANCH   1  16
ATOM     15  N   UNL     1       4.740  -1.143   1.913  0.00  0.00    -0.296 N 
ATOM     16  C   UNL     1       4.751  -2.385   1.391  0.00  0.00    +0.219 C 
ATOM     17  O   UNL     1       4.829  -2.538   0.190  0.00  0.00    -0.275 OA
ATOM     18  H   UNL     1       4.679  -1.020   2.873  0.00  0.00    +0.150 HD
BRANCH  15  19
ATOM     19  C   UNL     1       4.821   0.024   1.030  0.00  0.00    +0.207 C 
BRANCH  19  23
ATOM     20  C   UNL     1       6.445   3.334   3.187  0.00  0.00    +0.000 A 
ATOM     21  C   UNL     1       6.823   3.111   1.876  0.00  0.00    +0.000 A 
ATOM     22  C   UNL     1       6.298   2.040   1.178  0.00  0.00    +0.006 A 
ATOM     23  C   UNL     1       5.395   1.191   1.791  0.00  0.00    -0.013 A 
ATOM     24  C   UNL     1       5.018   1.414   3.102  0.00  0.00    +0.006 A 
ATOM     25  C   UNL     1       5.542   2.486   3.800  0.00  0.00    +0.000 A 
ENDBRANCH  19  23
BRANCH  19  26
ATOM     26  C   UNL     1       3.474   0.367   0.546  0.00  0.00    +0.090 C 
ATOM     27  N   UNL     1       2.435   0.633   0.173  0.00  0.00    -0.194 NA
ENDBRANCH  19  26
ENDBRANCH  15  19
ENDBRANCH   1  16
BRANCH  11  28
ATOM     28  C   UNL     1       4.087  -6.114  -1.133  0.00  0.00    +0.131 C 
BRANCH  28  29
ATOM     29  C   UNL     1       4.439  -6.883  -2.380  0.00  0.00    -0.039 A 
ATOM     30  C   UNL     1       5.073  -6.245  -3.430  0.00  0.00    +0.005 A 
ATOM     31  C   UNL     1       5.397  -6.951  -4.574  0.00  0.00    +0.020 A 
ATOM     32  C   UNL     1       5.085  -8.296  -4.668  0.00  0.00    +0.041 A 
ATOM     33  C   UNL     1       4.450  -8.933  -3.617  0.00  0.00    +0.020 A 
ATOM     34  C   UNL     1       4.133  -8.228  -2.472  0.00  0.00    +0.005 A 
ATOM     35 CL   UNL     1       5.490  -9.182  -6.104  0.00  0.00    -0.084 Cl
ENDBRANCH  28  29
ENDBRANCH  11  28
TORSDOF 6
