REMARK  Name = ZINC39766970
REMARK  12 active torsions:
REMARK  status: ('A' for Active; 'I' for Inactive)
REMARK    1  A    between atoms: C_1  and  C_2
REMARK    2  A    between atoms: C_2  and  C_3
REMARK    3  A    between atoms: C_3  and  C_5
REMARK    4  A    between atoms: C_3  and  S_14
REMARK    5  A    between atoms: C_11  and  C_13
REMARK    6  A    between atoms: S_14  and  C_15
REMARK    7  A    between atoms: C_18  and  C_26
REMARK    8  A    between atoms: N_19  and  C_20
REMARK    9  A    between atoms: C_26  and  C_27
REMARK   10  A    between atoms: N_29  and  C_30
REMARK   11  A    between atoms: C_33  and  C_37
REMARK   12  A    between atoms: C_35  and  C_36
REMARK                            x       y       z     vdW  Elec       q    Type
REMARK                         _______ _______ _______ _____ _____    ______ ____
ROOT
ATOM      1  C   UNL     1       2.948   1.494   1.320  0.00  0.00    +0.197 A 
ATOM      2  N   UNL     1       1.891   2.237   1.552  0.00  0.00    -0.122 NA
ATOM      3  N   UNL     1       2.248   3.454   1.760  0.00  0.00    -0.133 NA
ATOM      4  C   UNL     1       3.544   3.562   1.675  0.00  0.00    +0.147 A 
ATOM      5  N   UNL     1       4.039   2.315   1.397  0.00  0.00    -0.274 N 
ENDROOT
BRANCH   5   6
ATOM      6  C   UNL     1       5.384   1.956   1.224  0.00  0.00    +0.050 A 
ATOM      7  C   UNL     1       6.270   2.046   2.288  0.00  0.00    +0.026 A 
ATOM      8  C   UNL     1       7.593   1.692   2.115  0.00  0.00    +0.002 A 
ATOM      9  C   UNL     1       8.036   1.248   0.882  0.00  0.00    +0.000 A 
ATOM     10  C   UNL     1       7.156   1.158  -0.180  0.00  0.00    +0.002 A 
ATOM     11  C   UNL     1       5.830   1.506  -0.011  0.00  0.00    +0.026 A 
ENDBRANCH   5   6
BRANCH   1  12
ATOM     12  S   UNL     1       2.959  -0.235   0.982  0.00  0.00    -0.073 S 
BRANCH  12  13
ATOM     13  C   UNL     1       1.226  -0.733   1.180  0.00  0.00    +0.140 C 
BRANCH  13  14
ATOM     14  C   UNL     1       0.811  -0.549   2.617  0.00  0.00    +0.232 C 
ATOM     15  O   UNL     1       1.654  -0.481   3.487  0.00  0.00    -0.274 OA
ATOM     16  N   UNL     1      -0.495  -0.460   2.935  0.00  0.00    -0.262 N 
ATOM     17  C   UNL     1      -0.878  -0.290   4.261  0.00  0.00    +0.188 A 
ATOM     18  N   UNL     1      -0.123  -0.189   5.338  0.00  0.00    -0.126 NA
ATOM     19  N   UNL     1      -0.620  -0.036   6.490  0.00  0.00    -0.145 NA
ATOM     20  C   UNL     1      -1.930   0.024   6.620  0.00  0.00    +0.101 A 
ATOM     21  S   UNL     1      -2.427  -0.153   4.912  0.00  0.00    -0.036 S 
ATOM     22  C   UNL     1      -2.772   0.199   7.858  0.00  0.00    +0.075 C 
ATOM     23  H   UNL     1      -1.169  -0.514   2.239  0.00  0.00    +0.157 HD
ENDBRANCH  13  14
BRANCH  13  25
ATOM     24  C   UNL     1       1.369  -2.368  -0.704  0.00  0.00    +0.005 C 
ATOM     25  C   UNL     1       1.069  -2.203   0.788  0.00  0.00    +0.020 C 
ENDBRANCH  13  25
ENDBRANCH  12  13
ENDBRANCH   1  12
BRANCH   4  26
ATOM     26  C   UNL     1       4.349   4.823   1.854  0.00  0.00    +0.172 C 
BRANCH  26  27
ATOM     27  C   UNL     1       4.733   4.973   3.304  0.00  0.00    +0.225 C 
ATOM     28  O   UNL     1       4.386   4.137   4.112  0.00  0.00    -0.275 OA
ATOM     29  N   UNL     1       5.460   6.035   3.702  0.00  0.00    -0.285 N 
ATOM     30  H   UNL     1       5.682   6.736   3.070  0.00  0.00    +0.155 HD
BRANCH  29  31
ATOM     31  C   UNL     1       5.896   6.126   5.029  0.00  0.00    +0.036 A 
ATOM     32  C   UNL     1       5.164   5.526   6.045  0.00  0.00    +0.024 A 
ATOM     33  C   UNL     1       5.597   5.618   7.353  0.00  0.00    +0.005 A 
ATOM     34  C   UNL     1       6.758   6.307   7.652  0.00  0.00    -0.050 A 
ATOM     35  C   UNL     1       7.490   6.905   6.642  0.00  0.00    +0.008 A 
ATOM     36  C   UNL     1       7.066   6.811   5.331  0.00  0.00    -0.029 A 
ATOM     37  C   UNL     1       7.867   7.457   4.231  0.00  0.00    +0.045 C 
ATOM     38  C   UNL     1       7.228   6.405   9.080  0.00  0.00    +0.044 C 
ENDBRANCH  29  31
ENDBRANCH  26  27
ENDBRANCH   4  26
TORSDOF 8
