REMARK  Name = ZINC39590427
REMARK  5 active torsions:
REMARK  status: ('A' for Active; 'I' for Inactive)
REMARK    1  A    between atoms: C_3  and  N_10
REMARK    2  A    between atoms: C_6  and  C_7
REMARK    3  A    between atoms: C_11  and  C_13
REMARK    4  A    between atoms: C_16  and  N_20
REMARK    5  A    between atoms: C_21  and  C_23
REMARK                            x       y       z     vdW  Elec       q    Type
REMARK                         _______ _______ _______ _____ _____    ______ ____
ROOT
ATOM      1  C   UNL     1       5.960   2.207   0.165  0.00  0.00    +0.087 C 
ATOM      2  C   UNL     1       7.143   1.557   0.151  0.00  0.00    +0.021 C 
ATOM      3  N   UNL     1       7.209   0.210   0.138  0.00  0.00    -0.320 N 
ATOM      4  C   UNL     1       8.445  -0.394  -0.407  0.00  0.00    +0.219 C 
ATOM      5  S   UNL     1       9.670   0.922   0.009  0.00  0.00    -0.114 S 
ATOM      6  C   UNL     1       8.464   2.309   0.142  0.00  0.00    +0.123 C 
ATOM      7  H   UNL     1       6.480  -0.338   0.470  0.00  0.00    +0.148 HD
ENDROOT
BRANCH   1   9
ATOM      8  N   UNL     1       3.579   2.139  -0.049  0.00  0.00    -0.282 N 
ATOM      9  C   UNL     1       4.755   1.483   0.018  0.00  0.00    +0.243 C 
ATOM     10  O   UNL     1       4.779   0.267  -0.047  0.00  0.00    -0.270 OA
ATOM     11  H   UNL     1       3.565   3.108  -0.066  0.00  0.00    +0.155 HD
BRANCH   8  14
ATOM     12  C   UNL     1       0.070   1.218   0.498  0.00  0.00    +0.015 A 
ATOM     13  C   UNL     1       1.252   1.922   0.542  0.00  0.00    +0.024 A 
ATOM     14  C   UNL     1       2.384   1.424  -0.096  0.00  0.00    +0.034 A 
ATOM     15  C   UNL     1       2.326   0.213  -0.780  0.00  0.00    +0.024 A 
ATOM     16  C   UNL     1       1.147  -0.495  -0.828  0.00  0.00    +0.015 A 
ATOM     17  C   UNL     1       0.008   0.002  -0.188  0.00  0.00    +0.037 A 
BRANCH  17  18
ATOM     18  C   UNL     1      -1.258  -0.756  -0.237  0.00  0.00    +0.242 C 
ATOM     19  O   UNL     1      -2.248  -0.322   0.320  0.00  0.00    -0.270 OA
ATOM     20  N   UNL     1      -1.316  -1.929  -0.899  0.00  0.00    -0.325 N 
ATOM     21  H   UNL     1      -0.526  -2.275  -1.343  0.00  0.00    +0.145 HD
ATOM     22  H   UNL     1      -2.148  -2.426  -0.931  0.00  0.00    +0.145 HD
ENDBRANCH  17  18
ENDBRANCH   8  14
ENDBRANCH   1   9
BRANCH   4  23
ATOM     23  N   UNL     1       8.765  -1.652   0.273  0.00  0.00    -0.284 N 
ATOM     24  C   UNL     1       9.664  -2.500  -0.266  0.00  0.00    +0.247 C 
ATOM     25  O   UNL     1      10.208  -2.221  -1.317  0.00  0.00    -0.270 OA
ATOM     26  H   UNL     1       8.331  -1.874   1.111  0.00  0.00    +0.152 HD
BRANCH  24  27
ATOM     27  C   UNL     1       9.986  -3.769   0.420  0.00  0.00    +0.049 C 
ATOM     28  C   UNL     1      10.896  -4.619  -0.123  0.00  0.00    -0.003 C 
ATOM     29  C   UNL     1      11.183  -5.903   0.629  0.00  0.00    +0.126 C 
ATOM     30  C   UNL     1      10.431  -6.130   1.922  0.00  0.00    +0.240 C 
ATOM     31  O   UNL     1      10.615  -7.139   2.573  0.00  0.00    -0.273 OA
ATOM     32  N   UNL     1       9.560  -5.204   2.339  0.00  0.00    -0.188 NA
ATOM     33  C   UNL     1       9.330  -4.101   1.682  0.00  0.00    +0.113 C 
ENDBRANCH  24  27
ENDBRANCH   4  23
TORSDOF 5
