REMARK  Name = ZINC36032524
REMARK  8 active torsions:
REMARK  status: ('A' for Active; 'I' for Inactive)
REMARK    1  A    between atoms: C_1  and  C_2
REMARK    2  A    between atoms: C_2  and  C_3
REMARK    3  A    between atoms: C_2  and  C_4
REMARK    4  A    between atoms: C_4  and  C_5
REMARK    5  A    between atoms: N_9  and  C_26
REMARK    6  A    between atoms: C_17  and  C_19
REMARK    7  A    between atoms: C_26  and  C_27
REMARK    8  A    between atoms: C_31  and  C_33
REMARK                            x       y       z     vdW  Elec       q    Type
REMARK                         _______ _______ _______ _____ _____    ______ ____
ROOT
ATOM      1  C   UNL     1      -0.944  -2.465   0.338  0.00  0.00    +0.019 C 
ATOM      2  C   UNL     1      -2.324  -2.934  -0.069  0.00  0.00    +0.201 C 
ATOM      3  O   UNL     1      -2.886  -2.663  -1.109  0.00  0.00    -0.277 OA
ATOM      4  N   UNL     1      -2.823  -3.705   0.919  0.00  0.00    -0.309 N 
ATOM      5  C   UNL     1      -1.844  -3.802   2.005  0.00  0.00    +0.006 C 
ATOM      6  N   UNL     1      -0.878  -2.699   1.801  0.00  0.00    +0.401 N 
ATOM      7  C   UNL     1      -1.114  -5.142   1.941  0.00  0.00    +0.025 C 
ATOM      8  C   UNL     1      -2.126  -6.280   2.113  0.00  0.00    +0.108 C 
ATOM      9  N   UNL     1      -2.884  -6.054   3.352  0.00  0.00    -0.297 N 
ATOM     10  C   UNL     1      -3.561  -4.764   3.542  0.00  0.00    +0.108 C 
ATOM     11  C   UNL     1      -2.537  -3.639   3.357  0.00  0.00    +0.025 C 
ATOM     12  C   UNL     1      -2.958  -7.013   4.295  0.00  0.00    +0.248 C 
ATOM     13  O   UNL     1      -3.653  -6.846   5.279  0.00  0.00    -0.270 OA
ATOM     14  H   UNL     1       0.051  -2.982   2.075  0.00  0.00    -0.082 HD
ATOM     15  H   UNL     1      -1.166  -1.875   2.307  0.00  0.00    -0.082 HD
ENDROOT
BRANCH  12  16
ATOM     16  C   UNL     1      -2.195  -8.268   4.135  0.00  0.00    +0.055 A 
ATOM     17  C   UNL     1      -2.347  -9.040   2.981  0.00  0.00    +0.014 A 
ATOM     18  C   UNL     1      -1.631 -10.209   2.837  0.00  0.00    +0.001 A 
ATOM     19  C   UNL     1      -0.763 -10.621   3.834  0.00  0.00    +0.001 A 
ATOM     20  C   UNL     1      -0.606  -9.863   4.980  0.00  0.00    +0.021 A 
ATOM     21  C   UNL     1      -1.312  -8.685   5.134  0.00  0.00    +0.053 A 
ATOM     22 CL   UNL     1      -1.109  -7.731   6.570  0.00  0.00    -0.083 Cl
ENDBRANCH  12  16
BRANCH   1  23
ATOM     23  C   UNL     1      -0.774  -0.976   0.029  0.00  0.00    -0.004 C 
BRANCH  23  25
ATOM     24  C   UNL     1       1.676  -1.224  -0.396  0.00  0.00    +0.007 C 
ATOM     25  C   UNL     1       0.621  -0.521   0.461  0.00  0.00    -0.018 C 
ATOM     26  C   UNL     1       0.743   0.993   0.280  0.00  0.00    +0.007 C 
ENDBRANCH  23  25
ENDBRANCH   1  23
BRANCH   4  27
ATOM     27  C   UNL     1      -4.140  -4.346   0.908  0.00  0.00    +0.141 C 
BRANCH  27  28
ATOM     28  C   UNL     1      -5.198  -3.324   1.236  0.00  0.00    -0.030 A 
ATOM     29  C   UNL     1      -5.422  -2.958   2.551  0.00  0.00    +0.005 A 
ATOM     30  C   UNL     1      -6.393  -2.021   2.852  0.00  0.00    +0.001 A 
ATOM     31  C   UNL     1      -7.140  -1.450   1.838  0.00  0.00    +0.012 A 
ATOM     32  C   UNL     1      -6.915  -1.815   0.524  0.00  0.00    +0.055 A 
ATOM     33  C   UNL     1      -5.942  -2.749   0.223  0.00  0.00    +0.017 A 
BRANCH  32  34
ATOM     34  C   UNL     1      -7.730  -1.193  -0.581  0.00  0.00    +0.417 C 
ATOM     35  F   UNL     1      -8.641  -0.283  -0.033  0.00  0.00    -0.166 F 
ATOM     36  F   UNL     1      -6.879  -0.524  -1.467  0.00  0.00    -0.166 F 
ATOM     37  F   UNL     1      -8.426  -2.193  -1.267  0.00  0.00    -0.166 F 
ENDBRANCH  32  34
ENDBRANCH  27  28
ENDBRANCH   4  27
TORSDOF 6
