REMARK  Name = ZINC25180486
REMARK  9 active torsions:
REMARK  status: ('A' for Active; 'I' for Inactive)
REMARK    1  A    between atoms: C_1  and  C_2
REMARK    2  A    between atoms: C_5  and  C_11
REMARK    3  A    between atoms: C_7  and  N_8
REMARK    4  A    between atoms: N_13  and  C_14
REMARK    5  A    between atoms: C_14  and  C_15
REMARK    6  A    between atoms: N_17  and  C_18
REMARK    7  A    between atoms: C_18  and  C_19
REMARK    8  A    between atoms: C_19  and  C_21
REMARK    9  A    between atoms: C_19  and  C_28
REMARK                            x       y       z     vdW  Elec       q    Type
REMARK                         _______ _______ _______ _____ _____    ______ ____
ROOT
ATOM      1  C   UNL     1       6.571   5.039  -2.143  0.00  0.00    +0.230 C 
ATOM      2  O   UNL     1       6.124   5.897  -2.875  0.00  0.00    -0.274 OA
ATOM      3  N   UNL     1       5.835   4.584  -1.110  0.00  0.00    -0.313 N 
ATOM      4  H   UNL     1       6.241   3.806  -0.447  0.00  0.00    +0.149 HD
ENDROOT
BRANCH   1   5
ATOM      5  C   UNL     1       7.949   4.482  -2.389  0.00  0.00    +0.200 C 
BRANCH   5   8
ATOM      6  C   UNL     1       9.775   4.795  -3.973  0.00  0.00    +0.245 C 
ATOM      7  O   UNL     1      10.403   3.945  -3.372  0.00  0.00    -0.270 OA
ATOM      8  N   UNL     1       8.538   5.136  -3.562  0.00  0.00    -0.303 N 
ATOM      9  H   UNL     1       7.970   5.904  -4.106  0.00  0.00    +0.150 HD
BRANCH   6  14
ATOM     10  C   UNL     1      12.085   7.359  -8.578  0.00  0.00    +0.046 C 
ATOM     11  C   UNL     1      11.480   6.687  -7.372  0.00  0.00    -0.020 A 
ATOM     12  C   UNL     1      10.209   7.040  -6.952  0.00  0.00    +0.006 A 
ATOM     13  C   UNL     1       9.648   6.425  -5.852  0.00  0.00    +0.013 A 
ATOM     14  C   UNL     1      10.369   5.454  -5.156  0.00  0.00    +0.039 A 
ATOM     15  C   UNL     1      11.650   5.103  -5.585  0.00  0.00    +0.046 A 
ATOM     16  C   UNL     1      12.197   5.721  -6.689  0.00  0.00    +0.130 A 
BRANCH  16  17
ATOM     17  N   UNL     1      13.556   5.351  -7.145  0.00  0.00    +0.057 N 
ATOM     18  O   UNL     1      14.235   4.589  -6.480  0.00  0.00    -0.126 OA
ATOM     19  O   UNL     1      13.995   5.808  -8.185  0.00  0.00    -0.126 OA
ENDBRANCH  16  17
ENDBRANCH   6  14
ENDBRANCH   5   8
ENDBRANCH   1   5
BRANCH   3  20
ATOM     20  C   UNL     1       4.495   5.125  -0.871  0.00  0.00    +0.117 C 
BRANCH  20  21
ATOM     21  C   UNL     1       3.881   4.443   0.354  0.00  0.00    +0.069 C 
BRANCH  21  22
ATOM     22  C   UNL     1       2.458   4.910   0.527  0.00  0.00    -0.013 A 
ATOM     23  C   UNL     1       2.051   6.173   0.724  0.00  0.00    +0.088 A 
ATOM     24  N   UNL     1       0.688   6.212   0.838  0.00  0.00    -0.360 N 
ATOM     25  H   UNL     1       0.176   7.171   1.004  0.00  0.00    +0.165 HD
ATOM     26  C   UNL     1       0.172   4.941   0.714  0.00  0.00    +0.047 A 
ATOM     27  C   UNL     1       1.258   4.070   0.514  0.00  0.00    +0.003 A 
ATOM     28  C   UNL     1       1.033   2.701   0.354  0.00  0.00    +0.010 A 
ATOM     29  C   UNL     1      -0.243   2.215   0.393  0.00  0.00    +0.001 A 
ATOM     30  C   UNL     1      -1.319   3.071   0.584  0.00  0.00    +0.002 A 
ATOM     31  C   UNL     1      -1.119   4.424   0.750  0.00  0.00    +0.026 A 
ENDBRANCH  21  22
BRANCH  21  32
ATOM     32  C   UNL     1       4.680   4.799   1.581  0.00  0.00    -0.020 A 
ATOM     33  C   UNL     1       4.806   6.122   1.964  0.00  0.00    +0.006 A 
ATOM     34  C   UNL     1       5.539   6.449   3.089  0.00  0.00    +0.000 A 
ATOM     35  C   UNL     1       6.146   5.453   3.833  0.00  0.00    +0.001 A 
ATOM     36  C   UNL     1       6.020   4.131   3.451  0.00  0.00    +0.020 A 
ATOM     37  C   UNL     1       5.282   3.803   2.328  0.00  0.00    +0.045 A 
ATOM     38 CL   UNL     1       5.117   2.141   1.852  0.00  0.00    -0.083 Cl
ENDBRANCH  21  32
ENDBRANCH  20  21
ENDBRANCH   3  20
TORSDOF 8
