REMARK  Name = ZINC12375058
REMARK  3 active torsions:
REMARK  status: ('A' for Active; 'I' for Inactive)
REMARK    1  A    between atoms: C_6  and  C_7
REMARK    2  A    between atoms: N_9  and  N_10
REMARK    3  A    between atoms: C_11  and  C_12
REMARK                            x       y       z     vdW  Elec       q    Type
REMARK                         _______ _______ _______ _____ _____    ______ ____
ROOT
ATOM      1  C   UNL     1       5.082  -0.688   2.225  0.00  0.00    +0.263 C 
ATOM      2  O   UNL     1       5.902   0.178   1.987  0.00  0.00    -0.268 OA
ATOM      3  N   UNL     1       5.442  -1.784   2.921  0.00  0.00    -0.203 N 
ATOM      4  H   UNL     1       4.788  -2.474   3.112  0.00  0.00    +0.178 HD
ENDROOT
BRANCH   1  10
ATOM      5  C   UNL     1       2.748  -1.530   2.026  0.00  0.00    +0.017 A 
ATOM      6  C   UNL     1       1.451  -1.389   1.583  0.00  0.00    +0.050 A 
ATOM      7  C   UNL     1       1.077  -0.261   0.865  0.00  0.00    +0.166 A 
ATOM      8  C   UNL     1       2.015   0.735   0.590  0.00  0.00    +0.167 A 
ATOM      9  C   UNL     1       3.317   0.599   1.030  0.00  0.00    +0.062 A 
ATOM     10  C   UNL     1       3.692  -0.537   1.753  0.00  0.00    +0.042 A 
ATOM     11  O   UNL     1       1.401   1.726  -0.121  0.00  0.00    -0.453 OA
ATOM     12  C   UNL     1      -0.011   1.521   0.075  0.00  0.00    +0.466 C 
ATOM     13  O   UNL     1      -0.120   0.108   0.327  0.00  0.00    -0.453 OA
ENDBRANCH   1  10
BRANCH   3  14
ATOM     14  N   UNL     1       6.762  -1.926   3.370  0.00  0.00    -0.184 NA
ATOM     15  C   UNL     1       7.137  -3.031   3.946  0.00  0.00    +0.176 C 
BRANCH  15  16
ATOM     16  C   UNL     1       6.247  -4.196   3.948  0.00  0.00    +0.150 A 
ATOM     17  C   UNL     1       6.464  -5.369   4.611  0.00  0.00    +0.067 A 
ATOM     18  C   UNL     1       5.361  -6.199   4.338  0.00  0.00    +0.071 A 
ATOM     19  C   UNL     1       4.535  -5.505   3.525  0.00  0.00    +0.185 A 
ATOM     20  O   UNL     1       5.074  -4.297   3.292  0.00  0.00    -0.446 OA
ATOM     21 BR   UNL     1       2.893  -6.132   2.828  0.00  0.00    -0.007 Br
ATOM     22 BR   UNL     1       5.089  -7.956   4.982  0.00  0.00    -0.046 Br
ENDBRANCH  15  16
ENDBRANCH   3  14
TORSDOF 3
