REMARK  Name = ZINC00899558
REMARK  8 active torsions:
REMARK  status: ('A' for Active; 'I' for Inactive)
REMARK    1  A    between atoms: C_1  and  C_2
REMARK    2  A    between atoms: C_4  and  O_19
REMARK    3  A    between atoms: C_6  and  O_8
REMARK    4  A    between atoms: O_8  and  C_9
REMARK    5  A    between atoms: C_10  and  C_18
REMARK    6  A    between atoms: C_12  and  O_16
REMARK    7  A    between atoms: C_14  and  O_15
REMARK    8  A    between atoms: O_16  and  C_17
REMARK                            x       y       z     vdW  Elec       q    Type
REMARK                         _______ _______ _______ _____ _____    ______ ____
ROOT
ATOM      1  C   UNL     1       0.070  -4.132   2.311  0.00  0.00    +0.173 A 
ATOM      2  C   UNL     1      -1.120  -4.840   2.284  0.00  0.00    -0.001 A 
ATOM      3  C   UNL     1      -1.102  -6.221   2.230  0.00  0.00    +0.052 A 
ATOM      4  C   UNL     1       0.107  -6.901   2.202  0.00  0.00    +0.124 A 
ATOM      5  C   UNL     1       1.300  -6.195   2.228  0.00  0.00    +0.094 A 
ATOM      6  C   UNL     1       1.284  -4.811   2.278  0.00  0.00    +0.163 A 
ATOM      7  C   UNL     1      -2.435  -4.105   2.315  0.00  0.00    +0.048 C 
ENDROOT
BRANCH   6   8
ATOM      8  O   UNL     1       2.454  -4.117   2.299  0.00  0.00    -0.503 OA
ATOM      9  H   UNL     1       2.797  -3.951   3.187  0.00  0.00    +0.292 HD
ENDBRANCH   6   8
BRANCH   4  10
ATOM     10  O   UNL     1       0.121  -8.259   2.149  0.00  0.00    -0.495 OA
ATOM     11  C   UNL     1       1.402  -8.894   2.122  0.00  0.00    +0.277 C 
ENDBRANCH   4  10
BRANCH   1  12
ATOM     12  O   UNL     1       0.052  -2.772   2.364  0.00  0.00    -0.452 OA
BRANCH  12  18
ATOM     13  C   UNL     1      -0.018   1.503   0.010  0.00  0.00    +0.044 C 
ATOM     14  C   UNL     1       0.002  -0.004   0.002  0.00  0.00    -0.044 A 
ATOM     15  C   UNL     1       0.006  -0.687  -1.199  0.00  0.00    +0.049 A 
ATOM     16  C   UNL     1       0.025  -2.075  -1.210  0.00  0.00    +0.121 A 
ATOM     17  C   UNL     1       0.040  -2.776  -0.014  0.00  0.00    +0.091 A 
ATOM     18  C   UNL     1       0.037  -2.088   1.190  0.00  0.00    +0.132 A 
ATOM     19  C   UNL     1       0.023  -0.700   1.195  0.00  0.00    +0.050 A 
BRANCH  16  20
ATOM     20  O   UNL     1       0.027  -2.746  -2.392  0.00  0.00    -0.507 OA
ATOM     21  H   UNL     1       0.911  -2.928  -2.738  0.00  0.00    +0.292 HD
ENDBRANCH  16  20
ENDBRANCH  12  18
ENDBRANCH   1  12
TORSDOF 5
