REMARK  Name = ZINC45074171
REMARK  5 active torsions:
REMARK  status: ('A' for Active; 'I' for Inactive)
REMARK    1  A    between atoms: C_4  and  C_6
REMARK    2  A    between atoms: N_11  and  C_12
REMARK    3  A    between atoms: C_12  and  C_13
REMARK    4  A    between atoms: C_13  and  C_14
REMARK    5  A    between atoms: N_15  and  O_16
REMARK                            x       y       z     vdW  Elec       q    Type
REMARK                         _______ _______ _______ _____ _____    ______ ____
ROOT
ATOM      1  C   UNL     1       1.127  -1.242  -1.876  0.00  0.00    -0.065 C 
ATOM      2  C   UNL     1       2.484  -1.636  -2.495  0.00  0.00    -0.017 C 
ATOM      3  C   UNL     1       2.707  -3.075  -1.962  0.00  0.00    -0.020 C 
ATOM      4  C   UNL     1       1.262  -3.634  -1.956  0.00  0.00    -0.078 C 
ATOM      5  N   UNL     1       0.414  -2.490  -1.547  0.00  0.00    +0.382 N 
ATOM      6  H   UNL     1       0.242  -2.532  -0.554  0.00  0.00    -0.081 HD
ENDROOT
BRANCH   1  10
ATOM      7  C   UNL     1      -0.019   1.538   0.011  0.00  0.00    +0.000 C 
ATOM      8  C   UNL     1       1.477   1.939  -0.002  0.00  0.00    +0.000 C 
ATOM      9  C   UNL     1       2.107   0.881  -0.942  0.00  0.00    +0.002 C 
ATOM     10  C   UNL     1       1.353  -0.422  -0.604  0.00  0.00    -0.025 C 
ATOM     11  C   UNL     1       0.002  -0.004   0.002  0.00  0.00    +0.002 C 
ENDBRANCH   1  10
BRANCH   5  12
ATOM     12  C   UNL     1      -0.864  -2.534  -2.271  0.00  0.00    -0.071 C 
BRANCH  12  13
ATOM     13  C   UNL     1      -1.655  -3.768  -1.833  0.00  0.00    +0.056 C 
BRANCH  13  14
ATOM     14  C   UNL     1      -2.966  -3.814  -2.575  0.00  0.00    +0.130 C 
ATOM     15  N   UNL     1      -3.258  -2.889  -3.428  0.00  0.00    -0.077 NA
ATOM     16  N   UNL     1      -3.853  -4.843  -2.345  0.00  0.00    -0.344 N 
ATOM     17  H   UNL     1      -3.633  -5.538  -1.704  0.00  0.00    +0.143 HD
ATOM     18  H   UNL     1      -4.696  -4.872  -2.822  0.00  0.00    +0.143 HD
BRANCH  15  19
ATOM     19  O   UNL     1      -4.490  -2.931  -4.125  0.00  0.00    -0.408 OA
ATOM     20  H   UNL     1      -4.619  -2.197  -4.741  0.00  0.00    +0.328 HD
ENDBRANCH  15  19
ENDBRANCH  13  14
ENDBRANCH  12  13
ENDBRANCH   5  12
TORSDOF 5
