REMARK  Name = ZINC03253478
REMARK  10 active torsions:
REMARK  status: ('A' for Active; 'I' for Inactive)
REMARK    1  A    between atoms: C_1  and  C_2
REMARK    2  A    between atoms: C_3  and  C_24
REMARK    3  A    between atoms: C_6  and  N_23
REMARK    4  A    between atoms: C_7  and  C_11
REMARK    5  A    between atoms: N_13  and  C_14
REMARK    6  A    between atoms: C_16  and  C_21
REMARK    7  A    between atoms: C_16  and  C_22
REMARK    8  A    between atoms: C_17  and  C_19
REMARK    9  A    between atoms: C_17  and  C_20
REMARK   10  A    between atoms: C_24  and  C_26
REMARK                            x       y       z     vdW  Elec       q    Type
REMARK                         _______ _______ _______ _____ _____    ______ ____
ROOT
ATOM      1  C   UNL     1       0.034  13.523  -2.139  0.00  0.00    +0.066 C 
ATOM      2  C   UNL     1      -0.007  12.060  -2.496  0.00  0.00    +0.050 A 
ATOM      3  C   UNL     1      -0.070  11.670  -3.843  0.00  0.00    +0.039 A 
ATOM      4  C   UNL     1      -0.108  10.317  -4.175  0.00  0.00    +0.025 A 
ATOM      5  C   UNL     1      -0.083   9.359  -3.138  0.00  0.00    +0.030 A 
ATOM      6  C   UNL     1      -0.114   7.907  -3.244  0.00  0.00    +0.053 A 
ATOM      7  C   UNL     1      -0.080   7.166  -2.084  0.00  0.00    +0.097 A 
ATOM      8  S   UNL     1      -0.012   8.403  -0.804  0.00  0.00    -0.062 S 
ATOM      9  C   UNL     1      -0.019   9.863  -1.816  0.00  0.00    +0.111 A 
ATOM     10  N   UNL     1       0.015  11.152  -1.545  0.00  0.00    -0.244 NA
ENDROOT
BRANCH   7  11
ATOM     11  C   UNL     1      -0.101   5.756  -1.942  0.00  0.00    +0.253 C 
ATOM     12  O   UNL     1      -0.155   5.045  -2.930  0.00  0.00    -0.270 OA
ATOM     13  N   UNL     1      -0.060   5.201  -0.715  0.00  0.00    -0.308 N 
ATOM     14  H   UNL     1      -0.017   5.767   0.072  0.00  0.00    +0.149 HD
BRANCH  13  15
ATOM     15  C   UNL     1      -0.081   3.741  -0.568  0.00  0.00    +0.071 C 
ATOM     16  C   UNL     1       0.577   3.358   0.758  0.00  0.00    +0.009 C 
ATOM     17  C   UNL     1       0.550   1.844   0.947  0.00  0.00    -0.072 C 
ATOM     18  C   UNL     1      -1.585   1.742  -0.371  0.00  0.00    -0.072 C 
ATOM     19  C   UNL     1      -1.531   3.258  -0.547  0.00  0.00    +0.009 C 
ATOM     20  C   UNL     1      -1.204   1.060  -1.690  0.00  0.00    -0.010 C 
ATOM     21  C   UNL     1      -3.051   1.361  -0.067  0.00  0.00    -0.010 C 
ATOM     22  C   UNL     1       0.960   1.550   2.407  0.00  0.00    -0.010 C 
ATOM     23  C   UNL     1       1.604   1.196   0.040  0.00  0.00    -0.010 C 
ATOM     24  N   UNL     1      -0.785   1.214   0.766  0.00  0.00    +0.386 N 
ATOM     25  H   UNL     1      -1.324   1.358   1.628  0.00  0.00    -0.084 HD
ATOM     26  H   UNL     1      -0.644   0.208   0.615  0.00  0.00    -0.084 HD
ENDBRANCH  13  15
ENDBRANCH   7  11
BRANCH   6  27
ATOM     27  N   UNL     1      -0.177   7.286  -4.483  0.00  0.00    -0.356 N 
ATOM     28  H   UNL     1      -0.197   6.318  -4.539  0.00  0.00    +0.142 HD
ATOM     29  H   UNL     1      -0.201   7.820  -5.292  0.00  0.00    +0.142 HD
ENDBRANCH   6  27
BRANCH   3  30
ATOM     30  C   UNL     1      -0.096  12.687  -4.902  0.00  0.00    +0.162 C 
ATOM     31  O   UNL     1       0.049  13.858  -4.622  0.00  0.00    -0.292 OA
ATOM     32  C   UNL     1      -0.301  12.276  -6.337  0.00  0.00    +0.091 C 
ENDBRANCH   3  30
TORSDOF 4
