REMARK  Name = ZINC39911913
REMARK  12 active torsions:
REMARK  status: ('A' for Active; 'I' for Inactive)
REMARK    1  A    between atoms: C_1  and  C_2
REMARK    2  A    between atoms: C_2  and  C_3
REMARK    3  A    between atoms: C_3  and  C_4
REMARK    4  A    between atoms: C_4  and  N_5
REMARK    5  A    between atoms: C_6  and  C_25
REMARK    6  A    between atoms: C_9  and  C_16
REMARK    7  A    between atoms: C_18  and  C_24
REMARK    8  A    between atoms: C_20  and  C_23
REMARK    9  A    between atoms: C_21  and  O_22
REMARK   10  A    between atoms: C_27  and  O_33
REMARK   11  A    between atoms: C_28  and  O_32
REMARK   12  A    between atoms: O_33  and  C_34
REMARK                            x       y       z     vdW  Elec       q    Type
REMARK                         _______ _______ _______ _____ _____    ______ ____
ROOT
ATOM      1  N   UNL     1      -3.419  -2.354   0.043  0.00  0.00    -0.285 N 
ATOM      2  C   UNL     1      -4.069  -2.785   1.288  0.00  0.00    +0.141 C 
ATOM      3  C   UNL     1      -5.271  -3.589   0.873  0.00  0.00    +0.035 A 
ATOM      4  C   UNL     1      -6.386  -4.334   1.272  0.00  0.00    +0.102 A 
ATOM      5  N   UNL     1      -6.997  -4.745   0.178  0.00  0.00    -0.173 NA
ATOM      6  N   UNL     1      -6.378  -4.333  -0.871  0.00  0.00    -0.272 N 
ATOM      7  H   UNL     1      -6.649  -4.516  -1.785  0.00  0.00    +0.189 HD
ATOM      8  C   UNL     1      -5.284  -3.601  -0.508  0.00  0.00    +0.126 A 
ATOM      9  C   UNL     1      -4.135  -2.828  -0.992  0.00  0.00    +0.265 C 
ATOM     10  O   UNL     1      -3.866  -2.644  -2.164  0.00  0.00    -0.268 OA
ENDROOT
BRANCH   4  11
ATOM     11  C   UNL     1      -6.804  -4.611   2.668  0.00  0.00    +0.044 A 
ATOM     12  C   UNL     1      -5.997  -4.215   3.732  0.00  0.00    +0.017 A 
ATOM     13  C   UNL     1      -6.390  -4.474   5.029  0.00  0.00    -0.049 A 
ATOM     14  C   UNL     1      -7.584  -5.128   5.278  0.00  0.00    +0.010 A 
ATOM     15  C   UNL     1      -8.392  -5.526   4.230  0.00  0.00    -0.008 A 
ATOM     16  C   UNL     1      -8.012  -5.266   2.923  0.00  0.00    +0.129 A 
ATOM     17  C   UNL     1      -9.691  -6.237   4.509  0.00  0.00    +0.047 C 
ATOM     18  C   UNL     1      -5.515  -4.045   6.179  0.00  0.00    +0.044 C 
BRANCH  16  19
ATOM     19  O   UNL     1      -8.809  -5.652   1.892  0.00  0.00    -0.506 OA
ATOM     20  H   UNL     1      -8.623  -6.542   1.563  0.00  0.00    +0.292 HD
ENDBRANCH  16  19
ENDBRANCH   4  11
BRANCH   2  21
ATOM     21  C   UNL     1      -4.498  -1.585   2.092  0.00  0.00    -0.018 A 
ATOM     22  C   UNL     1      -5.212  -0.568   1.486  0.00  0.00    +0.055 A 
ATOM     23  C   UNL     1      -5.607   0.536   2.223  0.00  0.00    +0.163 A 
ATOM     24  C   UNL     1      -5.285   0.619   3.574  0.00  0.00    +0.173 A 
ATOM     25  C   UNL     1      -4.569  -0.404   4.176  0.00  0.00    +0.063 A 
ATOM     26  C   UNL     1      -4.182  -1.506   3.435  0.00  0.00    +0.025 A 
ATOM     27 BR   UNL     1      -4.129  -0.297   6.012  0.00  0.00    -0.046 Br
BRANCH  24  28
ATOM     28  O   UNL     1      -5.670   1.701   4.302  0.00  0.00    -0.503 OA
ATOM     29  H   UNL     1      -6.538   1.606   4.718  0.00  0.00    +0.292 HD
ENDBRANCH  24  28
BRANCH  23  30
ATOM     30  O   UNL     1      -6.309   1.538   1.627  0.00  0.00    -0.491 OA
ATOM     31  C   UNL     1      -6.474   1.460   0.210  0.00  0.00    +0.277 C 
ENDBRANCH  23  30
ENDBRANCH   2  21
BRANCH   1  32
ATOM     32  C   UNL     1      -2.204  -1.541  -0.053  0.00  0.00    +0.109 C 
BRANCH  32  33
ATOM     33  C   UNL     1      -2.582  -0.059  -0.083  0.00  0.00    +0.019 C 
BRANCH  33  35
ATOM     34  C   UNL     1      -1.692   2.271  -0.214  0.00  0.00    +0.004 C 
ATOM     35  C   UNL     1      -1.313   0.789  -0.184  0.00  0.00    -0.002 C 
ENDBRANCH  33  35
ENDBRANCH  32  33
ENDBRANCH   1  32
TORSDOF 8
