REMARK  Name = ZINC35445361
REMARK  3 active torsions:
REMARK  status: ('A' for Active; 'I' for Inactive)
REMARK    1  A    between atoms: C_4  and  C_7
REMARK    2  A    between atoms: N_12  and  S_15
REMARK    3  A    between atoms: S_15  and  C_18
REMARK                            x       y       z     vdW  Elec       q    Type
REMARK                         _______ _______ _______ _____ _____    ______ ____
ROOT
ATOM      1  C   UNL     1       3.697  -0.686  -0.038  0.00  0.00    +0.130 C 
ATOM      2  N   UNL     1       3.833  -1.975  -0.052  0.00  0.00    -0.252 NA
ATOM      3  C   UNL     1       5.264  -2.286  -0.066  0.00  0.00    +0.130 C 
ATOM      4  C   UNL     1       5.617  -3.072  -1.329  0.00  0.00    +0.067 C 
ATOM      5  C   UNL     1       4.831  -4.387  -1.346  0.00  0.00    +0.113 C 
ATOM      6  N   UNL     1       5.085  -5.106  -0.090  0.00  0.00    -0.176 NA
ATOM      7  C   UNL     1       4.851  -4.410   1.183  0.00  0.00    +0.113 C 
ATOM      8  C   UNL     1       5.637  -3.095   1.177  0.00  0.00    +0.067 C 
ATOM      9  N   UNL     1       5.977  -1.004  -0.059  0.00  0.00    -0.286 N 
ATOM     10  C   UNL     1       5.034  -0.039  -0.049  0.00  0.00    +0.264 C 
ATOM     11  O   UNL     1       5.243   1.157  -0.045  0.00  0.00    -0.268 OA
ATOM     12  H   UNL     1       6.939  -0.875  -0.066  0.00  0.00    +0.151 HD
ENDROOT
BRANCH   1  16
ATOM     13  C   UNL     1      -0.017   1.379   0.010  0.00  0.00    +0.000 A 
ATOM     14  C   UNL     1       1.169   2.093   0.002  0.00  0.00    +0.001 A 
ATOM     15  C   UNL     1       2.377   1.429  -0.013  0.00  0.00    +0.010 A 
ATOM     16  C   UNL     1       2.403   0.034  -0.021  0.00  0.00    +0.005 A 
ATOM     17  C   UNL     1       1.204  -0.680  -0.013  0.00  0.00    +0.010 A 
ATOM     18  C   UNL     1       0.002  -0.004   0.002  0.00  0.00    +0.001 A 
ENDBRANCH   1  16
BRANCH   6  19
ATOM     19  S   UNL     1       5.625  -6.671  -0.108  0.00  0.00    +0.067 S 
ATOM     20  O   UNL     1       5.246  -7.246   1.135  0.00  0.00    -0.152 OA
ATOM     21  O   UNL     1       5.226  -7.223  -1.356  0.00  0.00    -0.152 OA
BRANCH  19  22
ATOM     22  C   UNL     1       7.386  -6.615  -0.122  0.00  0.00    +0.143 A 
ATOM     23  C   UNL     1       8.247  -6.603   0.925  0.00  0.00    +0.036 A 
ATOM     24  C   UNL     1       9.606  -6.557   0.674  0.00  0.00    +0.010 A 
ATOM     25  C   UNL     1      10.036  -6.525  -0.611  0.00  0.00    +0.047 A 
ATOM     26  S   UNL     1       8.498  -6.567  -1.517  0.00  0.00    -0.077 S 
ENDBRANCH  19  22
ENDBRANCH   6  19
TORSDOF 3
