REMARK  Name = ZINC12462139
REMARK  7 active torsions:
REMARK  status: ('A' for Active; 'I' for Inactive)
REMARK    1  A    between atoms: C_1  and  C_2
REMARK    2  A    between atoms: C_5  and  N_8
REMARK    3  A    between atoms: C_18  and  S_19
REMARK    4  A    between atoms: S_19  and  C_20
REMARK    5  A    between atoms: C_20  and  C_21
REMARK    6  A    between atoms: N_23  and  C_24
REMARK    7  A    between atoms: C_29  and  C_30
REMARK                            x       y       z     vdW  Elec       q    Type
REMARK                         _______ _______ _______ _____ _____    ______ ____
ROOT
ATOM      1  N   UNL     1      -8.918  -0.448  -0.482  0.00  0.00    -0.272 N 
ATOM      2  C   UNL     1      -9.672   0.700  -0.533  0.00  0.00    +0.173 A 
ATOM      3  C   UNL     1      -8.771   1.764  -0.456  0.00  0.00    +0.173 A 
ATOM      4  C   UNL     1      -9.281   3.084  -0.486  0.00  0.00    +0.279 A 
ATOM      5  O   UNL     1      -8.535   4.046  -0.422  0.00  0.00    -0.265 OA
ATOM      6  N   UNL     1     -10.619   3.250  -0.588  0.00  0.00    -0.312 N 
ATOM      7  H   UNL     1     -10.994   4.144  -0.611  0.00  0.00    +0.170 HD
ATOM      8  C   UNL     1     -11.440   2.171  -0.659  0.00  0.00    +0.201 A 
ATOM      9  N   UNL     1     -10.985   0.950  -0.633  0.00  0.00    -0.217 NA
ATOM     10  N   UNL     1      -7.525   1.236  -0.357  0.00  0.00    -0.214 NA
ATOM     11  C   UNL     1      -7.605  -0.071  -0.378  0.00  0.00    +0.176 A 
ENDROOT
BRANCH   1  16
ATOM     12  C   UNL     1     -10.882  -5.770  -0.673  0.00  0.00    +0.044 C 
ATOM     13  C   UNL     1     -10.361  -4.357  -0.623  0.00  0.00    -0.050 A 
ATOM     14  C   UNL     1      -9.733  -3.893   0.519  0.00  0.00    +0.005 A 
ATOM     15  C   UNL     1      -9.254  -2.599   0.569  0.00  0.00    +0.026 A 
ATOM     16  C   UNL     1      -9.404  -1.762  -0.529  0.00  0.00    +0.050 A 
ATOM     17  C   UNL     1     -10.040  -2.229  -1.672  0.00  0.00    +0.026 A 
ATOM     18  C   UNL     1     -10.511  -3.526  -1.718  0.00  0.00    +0.005 A 
ENDBRANCH   1  16
BRANCH  11  19
ATOM     19  S   UNL     1      -6.236  -1.176  -0.279  0.00  0.00    -0.078 S 
BRANCH  19  20
ATOM     20  C   UNL     1      -4.878   0.016  -0.166  0.00  0.00    +0.173 C 
BRANCH  20  21
ATOM     21  C   UNL     1      -3.568  -0.722  -0.069  0.00  0.00    +0.227 C 
ATOM     22  O   UNL     1      -3.554  -1.935  -0.076  0.00  0.00    -0.275 OA
ATOM     23  N   UNL     1      -2.413  -0.035   0.025  0.00  0.00    -0.284 N 
ATOM     24  H   UNL     1      -2.429   0.931   0.112  0.00  0.00    +0.155 HD
BRANCH  23  25
ATOM     25  C   UNL     1      -1.190  -0.714  -0.002  0.00  0.00    +0.045 A 
ATOM     26  C   UNL     1      -1.097  -1.956  -0.618  0.00  0.00    +0.024 A 
ATOM     27  C   UNL     1       0.111  -2.624  -0.642  0.00  0.00    +0.002 A 
ATOM     28  C   UNL     1       1.228  -2.059  -0.054  0.00  0.00    +0.001 A 
ATOM     29  C   UNL     1       1.140  -0.821   0.555  0.00  0.00    +0.014 A 
ATOM     30  C   UNL     1      -0.067  -0.150   0.588  0.00  0.00    +0.076 A 
BRANCH  30  31
ATOM     31  C   UNL     1      -0.163   1.197   1.258  0.00  0.00    +0.419 C 
ATOM     32  F   UNL     1       1.088   1.552   1.773  0.00  0.00    -0.166 F 
ATOM     33  F   UNL     1      -0.571   2.155   0.323  0.00  0.00    -0.166 F 
ATOM     34  F   UNL     1      -1.096   1.135   2.299  0.00  0.00    -0.166 F 
ENDBRANCH  30  31
ENDBRANCH  23  25
ENDBRANCH  20  21
ENDBRANCH  19  20
ENDBRANCH  11  19
TORSDOF 6
