REMARK  Name = ZINC35448879
REMARK  12 active torsions:
REMARK  status: ('A' for Active; 'I' for Inactive)
REMARK    1  A    between atoms: C_1  and  C_2
REMARK    2  A    between atoms: C_3  and  C_21
REMARK    3  A    between atoms: N_8  and  C_9
REMARK    4  A    between atoms: C_11  and  C_13
REMARK    5  A    between atoms: C_16  and  O_19
REMARK    6  A    between atoms: O_19  and  C_20
REMARK    7  A    between atoms: C_21  and  C_22
REMARK    8  A    between atoms: C_22  and  C_23
REMARK    9  A    between atoms: N_25  and  C_26
REMARK   10  A    between atoms: C_26  and  C_27
REMARK   11  A    between atoms: C_30  and  S_33
REMARK   12  A    between atoms: S_33  and  C_34
REMARK                            x       y       z     vdW  Elec       q    Type
REMARK                         _______ _______ _______ _____ _____    ______ ____
ROOT
ATOM      1  C   UNL     1       0.037   1.497   0.182  0.00  0.00    +0.064 C 
ATOM      2  C   UNL     1       0.028  -0.007   0.084  0.00  0.00    +0.026 A 
ATOM      3  C   UNL     1      -1.115  -0.693   0.312  0.00  0.00    +0.038 A 
ATOM      4  C   UNL     1      -1.119  -2.099   0.220  0.00  0.00    +0.278 A 
ATOM      5  O   UNL     1      -2.146  -2.721   0.424  0.00  0.00    -0.265 OA
ATOM      6  N   UNL     1       0.016  -2.755  -0.095  0.00  0.00    -0.179 N 
ATOM      7  C   UNL     1       1.167  -2.055  -0.324  0.00  0.00    +0.141 A 
ATOM      8  N   UNL     1       1.171  -0.675  -0.239  0.00  0.00    -0.332 N 
ATOM      9  C   UNL     1       2.407   0.070  -0.492  0.00  0.00    +0.150 C 
ATOM     10  C   UNL     1       2.144  -2.956  -0.617  0.00  0.00    +0.076 A 
ATOM     11  C   UNL     1       1.575  -4.240  -0.565  0.00  0.00    +0.095 A 
ATOM     12  N   UNL     1       0.301  -4.117  -0.253  0.00  0.00    -0.162 NA
ENDROOT
BRANCH  11  13
ATOM     13  C   UNL     1       2.287  -5.516  -0.820  0.00  0.00    +0.002 A 
ATOM     14  C   UNL     1       3.644  -5.508  -1.138  0.00  0.00    +0.013 A 
ATOM     15  C   UNL     1       4.304  -6.696  -1.375  0.00  0.00    +0.046 A 
ATOM     16  C   UNL     1       3.617  -7.900  -1.296  0.00  0.00    +0.120 A 
ATOM     17  C   UNL     1       2.265  -7.912  -0.980  0.00  0.00    +0.046 A 
ATOM     18  C   UNL     1       1.602  -6.727  -0.736  0.00  0.00    +0.013 A 
BRANCH  16  19
ATOM     19  O   UNL     1       4.269  -9.069  -1.530  0.00  0.00    -0.495 OA
ATOM     20  C   UNL     1       3.502 -10.270  -1.433  0.00  0.00    +0.277 C 
ENDBRANCH  16  19
ENDBRANCH  11  13
BRANCH   3  21
ATOM     21  C   UNL     1      -2.381   0.044   0.664  0.00  0.00    +0.051 C 
BRANCH  21  22
ATOM     22  C   UNL     1      -3.191   0.302  -0.608  0.00  0.00    +0.100 C 
BRANCH  22  23
ATOM     23  C   UNL     1      -4.457   1.040  -0.255  0.00  0.00    +0.214 C 
ATOM     24  O   UNL     1      -4.689   1.331   0.899  0.00  0.00    -0.276 OA
ATOM     25  N   UNL     1      -5.333   1.377  -1.224  0.00  0.00    -0.311 N 
ATOM     26  H   UNL     1      -5.148   1.144  -2.147  0.00  0.00    +0.149 HD
BRANCH  25  27
ATOM     27  C   UNL     1      -6.564   2.094  -0.881  0.00  0.00    +0.139 C 
BRANCH  27  28
ATOM     28  C   UNL     1      -7.362   2.348  -2.134  0.00  0.00    -0.030 A 
ATOM     29  C   UNL     1      -7.156   3.506  -2.860  0.00  0.00    +0.006 A 
ATOM     30  C   UNL     1      -7.886   3.743  -4.008  0.00  0.00    +0.015 A 
ATOM     31  C   UNL     1      -8.828   2.814  -4.434  0.00  0.00    +0.008 A 
ATOM     32  C   UNL     1      -9.032   1.651  -3.702  0.00  0.00    +0.015 A 
ATOM     33  C   UNL     1      -8.295   1.419  -2.558  0.00  0.00    +0.006 A 
BRANCH  31  34
ATOM     34  S   UNL     1      -9.762   3.112  -5.898  0.00  0.00    -0.129 S 
ATOM     35  C   UNL     1     -10.834   1.655  -6.039  0.00  0.00    +0.090 C 
ENDBRANCH  31  34
ENDBRANCH  27  28
ENDBRANCH  25  27
ENDBRANCH  22  23
ENDBRANCH  21  22
ENDBRANCH   3  21
TORSDOF 8
