REMARK  Name = ZINC02398786
REMARK  5 active torsions:
REMARK  status: ('A' for Active; 'I' for Inactive)
REMARK    1  A    between atoms: C_1  and  C_2
REMARK    2  A    between atoms: C_5  and  C_8
REMARK    3  A    between atoms: C_19  and  C_21
REMARK    4  A    between atoms: C_32  and  S_34
REMARK    5  A    between atoms: S_34  and  C_35
REMARK                            x       y       z     vdW  Elec       q    Type
REMARK                         _______ _______ _______ _____ _____    ______ ____
ROOT
ATOM      1  C   UNL     1       0.059  -4.275  -0.021  0.00  0.00    +0.159 C 
ATOM      2  C   UNL     1      -1.360  -4.766   0.156  0.00  0.00    +0.025 C 
ATOM      3  C   UNL     1      -1.627  -5.570   1.206  0.00  0.00    +0.058 C 
ATOM      4  C   UNL     1      -3.023  -6.052   1.361  0.00  0.00    +0.040 A 
ATOM      5  C   UNL     1      -3.471  -6.606   2.553  0.00  0.00    +0.013 A 
ATOM      6  C   UNL     1      -4.779  -7.041   2.654  0.00  0.00    +0.001 A 
ATOM      7  C   UNL     1      -5.637  -6.925   1.575  0.00  0.00    +0.004 A 
ATOM      8  C   UNL     1      -5.199  -6.375   0.385  0.00  0.00    +0.046 A 
ATOM      9  C   UNL     1      -3.892  -5.936   0.268  0.00  0.00    +0.131 A 
ATOM     10  O   UNL     1      -3.433  -5.399  -0.891  0.00  0.00    -0.479 OA
ATOM     11  C   UNL     1      -2.448  -4.368  -0.798  0.00  0.00    +0.234 C 
ATOM     12  N   UNL     1      -0.663  -5.929   2.088  0.00  0.00    -0.326 N 
ATOM     13  C   UNL     1       0.594  -5.548   2.008  0.00  0.00    +0.216 C 
ATOM     14  N   UNL     1       1.024  -4.726   0.989  0.00  0.00    -0.209 N 
ATOM     15  N   UNL     1       2.390  -4.513   1.192  0.00  0.00    -0.239 N 
ATOM     16  C   UNL     1       2.724  -5.208   2.325  0.00  0.00    +0.174 C 
ATOM     17  N   UNL     1       1.659  -5.812   2.787  0.00  0.00    -0.192 NA
ATOM     18  H   UNL     1      -0.916  -6.505   2.826  0.00  0.00    +0.169 HD
ATOM     19  H   UNL     1       2.983  -3.979   0.641  0.00  0.00    +0.172 HD
ENDROOT
BRANCH   1  24
ATOM     20  C   UNL     1      -0.018   1.503   0.010  0.00  0.00    +0.044 C 
ATOM     21  C   UNL     1       0.002  -0.004   0.002  0.00  0.00    -0.050 A 
ATOM     22  C   UNL     1       0.006  -0.689  -1.199  0.00  0.00    +0.004 A 
ATOM     23  C   UNL     1       0.025  -2.071  -1.206  0.00  0.00    +0.006 A 
ATOM     24  C   UNL     1       0.040  -2.768  -0.013  0.00  0.00    -0.021 A 
ATOM     25  C   UNL     1       0.037  -2.084   1.188  0.00  0.00    +0.006 A 
ATOM     26  C   UNL     1       0.023  -0.702   1.195  0.00  0.00    +0.004 A 
ENDBRANCH   1  24
BRANCH  11  27
ATOM     27  C   UNL     1      -3.099  -3.099  -0.310  0.00  0.00    -0.002 A 
ATOM     28  C   UNL     1      -4.041  -3.151   0.701  0.00  0.00    +0.007 A 
ATOM     29  C   UNL     1      -4.639  -1.988   1.149  0.00  0.00    +0.002 A 
ATOM     30  C   UNL     1      -4.295  -0.773   0.587  0.00  0.00    +0.020 A 
ATOM     31  C   UNL     1      -3.352  -0.721  -0.424  0.00  0.00    +0.041 A 
ATOM     32  C   UNL     1      -2.750  -1.884  -0.868  0.00  0.00    +0.027 A 
ATOM     33 CL   UNL     1      -2.919   0.805  -1.130  0.00  0.00    -0.084 Cl
ENDBRANCH  11  27
BRANCH  16  34
ATOM     34  S   UNL     1       4.332  -5.284   3.040  0.00  0.00    -0.092 S 
ATOM     35  C   UNL     1       4.116  -6.346   4.495  0.00  0.00    +0.093 C 
ENDBRANCH  16  34
TORSDOF 3
