REMARK  Name = ZINC63303010
REMARK  5 active torsions:
REMARK  status: ('A' for Active; 'I' for Inactive)
REMARK    1  A    between atoms: N_18  and  C_19
REMARK    2  A    between atoms: C_19  and  C_20
REMARK    3  A    between atoms: C_20  and  C_21
REMARK    4  A    between atoms: C_21  and  C_22
REMARK    5  A    between atoms: N_24  and  C_25
REMARK                            x       y       z     vdW  Elec       q    Type
REMARK                         _______ _______ _______ _____ _____    ______ ____
ROOT
ATOM      1  C   UNL     1      -0.017   1.395   0.018  0.00  0.00    +0.022 A 
ATOM      2  C   UNL     1       1.110   2.137   0.013  0.00  0.00    +0.027 A 
ATOM      3  C   UNL     1       2.386   1.512  -0.005  0.00  0.00    +0.043 A 
ATOM      4  N   UNL     1       3.602   2.009  -0.034  0.00  0.00    -0.376 N 
ATOM      5  C   UNL     1       4.557   0.906   0.036  0.00  0.00    +0.124 C 
ATOM      6  C   UNL     1       5.519   0.907  -1.157  0.00  0.00    +0.138 C 
ATOM      7  N   UNL     1       6.153  -0.419  -1.227  0.00  0.00    -0.283 N 
ATOM      8  C   UNL     1       5.340  -1.627  -1.401  0.00  0.00    +0.114 C 
ATOM      9  C   UNL     1       4.326  -1.729  -0.247  0.00  0.00    +0.052 C 
ATOM     10  C   UNL     1       3.719  -0.358  -0.050  0.00  0.00    -0.035 C 
ATOM     11  C   UNL     1       2.436   0.029  -0.024  0.00  0.00    +0.001 A 
ATOM     12  C   UNL     1       1.163  -0.703  -0.014  0.00  0.00    +0.030 A 
ATOM     13  C   UNL     1       0.003  -0.008   0.007  0.00  0.00    +0.042 A 
ATOM     14 CL   UNL     1      -1.502  -0.874   0.021  0.00  0.00    -0.084 Cl
ATOM     15  C   UNL     1       7.493  -0.524  -1.130  0.00  0.00    +0.302 C 
ATOM     16  O   UNL     1       8.180   0.478  -1.080  0.00  0.00    -0.253 OA
ATOM     17  N   UNL     1       8.072  -1.741  -1.088  0.00  0.00    -0.299 N 
ATOM     18  H   UNL     1       7.533  -2.539  -1.201  0.00  0.00    +0.150 HD
ATOM     19  H   UNL     1       3.827   2.951  -0.092  0.00  0.00    +0.160 HD
ENDROOT
BRANCH  17  20
ATOM     20  C   UNL     1       9.517  -1.857  -0.872  0.00  0.00    +0.106 C 
BRANCH  20  21
ATOM     21  C   UNL     1       9.914  -3.335  -0.868  0.00  0.00    +0.028 C 
BRANCH  21  22
ATOM     22  C   UNL     1      11.422  -3.457  -0.642  0.00  0.00    +0.097 C 
BRANCH  22  23
ATOM     23  C   UNL     1      11.814  -4.912  -0.639  0.00  0.00    +0.213 C 
ATOM     24  O   UNL     1      10.969  -5.767  -0.801  0.00  0.00    -0.276 OA
ATOM     25  N   UNL     1      13.102  -5.263  -0.455  0.00  0.00    -0.311 N 
ATOM     26  H   UNL     1      13.777  -4.579  -0.326  0.00  0.00    +0.149 HD
BRANCH  25  27
ATOM     27  C   UNL     1      13.482  -6.678  -0.452  0.00  0.00    +0.095 C 
ATOM     28  C   UNL     1      13.312  -7.258   0.962  0.00  0.00    +0.046 C 
ATOM     29  C   UNL     1      14.004  -8.639   1.053  0.00  0.00    +0.168 C 
ATOM     30  S   UNL     1      15.346  -8.501  -0.197  0.00  0.00    -0.029 S 
ATOM     31  O   UNL     1      15.123  -9.459  -1.222  0.00  0.00    -0.174 OA
ATOM     32  O   UNL     1      16.599  -8.471   0.472  0.00  0.00    -0.174 OA
ATOM     33  C   UNL     1      14.978  -6.821  -0.856  0.00  0.00    +0.188 C 
ENDBRANCH  25  27
ENDBRANCH  22  23
ENDBRANCH  21  22
ENDBRANCH  20  21
ENDBRANCH  17  20
TORSDOF 5
