REMARK  Name = ZINC20150763
REMARK  8 active torsions:
REMARK  status: ('A' for Active; 'I' for Inactive)
REMARK    1  A    between atoms: C_1  and  O_2
REMARK    2  A    between atoms: O_2  and  C_3
REMARK    3  A    between atoms: C_3  and  C_5
REMARK    4  A    between atoms: C_5  and  C_33
REMARK    5  A    between atoms: C_10  and  C_13
REMARK    6  A    between atoms: N_20  and  C_23
REMARK    7  A    between atoms: C_33  and  C_34
REMARK    8  A    between atoms: C_37  and  O_40
REMARK                            x       y       z     vdW  Elec       q    Type
REMARK                         _______ _______ _______ _____ _____    ______ ____
ROOT
ATOM      1  C   UNL     1       0.654  -2.087  -1.188  0.00  0.00    +0.133 C 
ATOM      2  C   UNL     1       1.922  -2.548  -1.938  0.00  0.00    +0.121 C 
ATOM      3  C   UNL     1       2.965  -2.827  -0.823  0.00  0.00    +0.112 C 
ATOM      4  C   UNL     1       2.235  -2.494   0.495  0.00  0.00    +0.104 C 
ATOM      5  N   UNL     1       0.789  -2.668   0.172  0.00  0.00    -0.293 NA
ATOM      6  C   UNL     1       3.189  -4.320  -0.920  0.00  0.00    +0.232 C 
ATOM      7  O   UNL     1       3.941  -4.962  -0.220  0.00  0.00    -0.274 OA
ATOM      8  N   UNL     1       2.427  -4.820  -1.900  0.00  0.00    -0.210 N 
ATOM      9  C   UNL     1       1.670  -3.907  -2.551  0.00  0.00    +0.232 C 
ATOM     10  O   UNL     1       0.913  -4.131  -3.471  0.00  0.00    -0.274 OA
ATOM     11  H   UNL     1       0.212  -2.173   0.836  0.00  0.00    +0.124 HD
ENDROOT
BRANCH   8  12
ATOM     12  C   UNL     1       2.417  -6.183  -2.232  0.00  0.00    +0.048 A 
ATOM     13  C   UNL     1       1.277  -6.944  -2.010  0.00  0.00    +0.028 A 
ATOM     14  C   UNL     1       1.267  -8.286  -2.336  0.00  0.00    +0.051 A 
ATOM     15  C   UNL     1       2.395  -8.878  -2.886  0.00  0.00    +0.162 A 
ATOM     16  C   UNL     1       3.537  -8.118  -3.112  0.00  0.00    +0.164 A 
ATOM     17  C   UNL     1       3.545  -6.770  -2.788  0.00  0.00    +0.073 A 
ATOM     18  O   UNL     1       4.650  -8.680  -3.658  0.00  0.00    -0.485 OA
ATOM     19  C   UNL     1       4.731 -10.109  -3.629  0.00  0.00    +0.270 C 
ATOM     20  C   UNL     1       3.382 -10.676  -4.091  0.00  0.00    +0.270 C 
ATOM     21  O   UNL     1       2.368 -10.204  -3.197  0.00  0.00    -0.485 OA
ENDBRANCH   8  12
BRANCH   4  22
ATOM     22  C   UNL     1       2.638  -3.461   1.578  0.00  0.00    +0.007 A 
ATOM     23  C   UNL     1       3.530  -3.291   2.584  0.00  0.00    +0.013 A 
ATOM     24  C   UNL     1       3.742  -4.328   3.473  0.00  0.00    +0.008 A 
ATOM     25  C   UNL     1       3.052  -5.484   3.312  0.00  0.00    +0.045 A 
ATOM     26  S   UNL     1       2.059  -5.123   1.873  0.00  0.00    -0.100 S 
ENDBRANCH   4  22
BRANCH   1  27
ATOM     27  C   UNL     1       0.606  -0.582  -1.114  0.00  0.00    +0.328 C 
ATOM     28  O   UNL     1       1.135   0.082  -1.973  0.00  0.00    -0.249 OA
BRANCH  27  30
ATOM     29  C   UNL     1      -0.030   1.448  -0.086  0.00  0.00    +0.280 C 
ATOM     30  O   UNL     1      -0.024   0.019  -0.093  0.00  0.00    -0.467 OA
ENDBRANCH  27  30
ENDBRANCH   1  27
BRANCH   1  31
ATOM     31  C   UNL     1      -0.601  -2.626  -1.877  0.00  0.00    +0.069 C 
BRANCH  31  32
ATOM     32  C   UNL     1      -1.821  -2.197  -1.104  0.00  0.00    -0.045 A 
ATOM     33  C   UNL     1      -2.310  -2.995  -0.086  0.00  0.00    +0.007 A 
ATOM     34  C   UNL     1      -3.429  -2.605   0.624  0.00  0.00    +0.045 A 
ATOM     35  C   UNL     1      -4.062  -1.409   0.315  0.00  0.00    +0.117 A 
ATOM     36  C   UNL     1      -3.569  -0.609  -0.706  0.00  0.00    +0.045 A 
ATOM     37  C   UNL     1      -2.447  -1.002  -1.409  0.00  0.00    +0.007 A 
BRANCH  35  38
ATOM     38  O   UNL     1      -5.163  -1.023   1.012  0.00  0.00    -0.507 OA
ATOM     39  H   UNL     1      -4.966  -0.488   1.794  0.00  0.00    +0.292 HD
ENDBRANCH  35  38
ENDBRANCH  31  32
ENDBRANCH   1  31
TORSDOF 7
