REMARK  Name = ZINC44320733
REMARK  8 active torsions:
REMARK  status: ('A' for Active; 'I' for Inactive)
REMARK    1  A    between atoms: C_1  and  N_2
REMARK    2  A    between atoms: C_3  and  C_8
REMARK    3  A    between atoms: C_8  and  CA_9
REMARK    4  A    between atoms: CA_9  and  C_11
REMARK    5  A    between atoms: CA_9  and  N_14
REMARK    6  A    between atoms: C_15  and  O_17
REMARK    7  A    between atoms: O_17  and  C_18
REMARK    8  A    between atoms: C_18  and  C_19
REMARK                            x       y       z     vdW  Elec       q    Type
REMARK                         _______ _______ _______ _____ _____    ______ ____
ROOT
ATOM      1  N   UNL     1       2.075   0.934  -2.264  0.00  0.00    -0.267 N 
ATOM      2  C   UNL     1       3.416   0.960  -2.135  0.00  0.00    +0.401 C 
ATOM      3  O   UNL     1       4.092   0.088  -2.645  0.00  0.00    -0.226 OA
ATOM      4  H   UNL     1       1.535   1.630  -1.856  0.00  0.00    +0.153 HD
ENDROOT
BRANCH   1   5
ATOM      5  CA  UNL     1       1.431  -0.144  -3.018  0.00  0.00    +0.195 C 
BRANCH   5   6
ATOM      6  C   UNL     1       1.421   0.206  -4.484  0.00  0.00    +0.376 C 
ATOM      7  O   UNL     1       1.736   1.327  -4.846  0.00  0.00    -0.244 OA
ATOM      8  OXT UNL     1       1.097  -0.632  -5.309  0.00  0.00    -0.244 OA
ENDBRANCH   5   6
BRANCH   5   9
ATOM      9  C   UNL     1      -0.006  -0.323  -2.526  0.00  0.00    +0.090 C 
BRANCH   9  12
ATOM     10  C   UNL     1      -0.018   1.461   0.010  0.00  0.00    +0.172 C 
ATOM     11  N   UNL     1       0.002  -0.004   0.002  0.00  0.00    -0.270 N 
ATOM     12  C   UNL     1       0.008  -0.792  -1.094  0.00  0.00    +0.059 A 
ATOM     13  C   UNL     1       0.028  -2.080  -0.676  0.00  0.00    +0.082 A 
ATOM     14  C   UNL     1       0.034  -2.078   0.723  0.00  0.00    +0.154 A 
ATOM     15  N   UNL     1       0.025  -0.834   1.130  0.00  0.00    -0.178 NA
ATOM     16 CL   UNL     1       0.042  -3.485  -1.696  0.00  0.00    -0.080 Cl
ENDBRANCH   9  12
ENDBRANCH   5   9
ENDBRANCH   1   5
BRANCH   2  17
ATOM     17  O   UNL     1       4.007   1.951  -1.441  0.00  0.00    -0.449 OA
BRANCH  17  18
ATOM     18  C   UNL     1       5.433   1.915  -1.346  0.00  0.00    +0.246 C 
BRANCH  18  19
ATOM     19  C   UNL     1       5.919   3.112  -0.527  0.00  0.00    +0.088 C 
ATOM     20  C   UNL     1       5.683   4.393  -1.288  0.00  0.00    -0.029 A 
ATOM     21  C   UNL     1       4.534   4.992  -1.759  0.00  0.00    +0.005 A 
ATOM     22  C   UNL     1       4.608   6.193  -2.441  0.00  0.00    +0.000 A 
ATOM     23  C   UNL     1       5.835   6.796  -2.652  0.00  0.00    +0.001 A 
ATOM     24  C   UNL     1       6.990   6.204  -2.186  0.00  0.00    +0.009 A 
ATOM     25  C   UNL     1       6.923   4.992  -1.496  0.00  0.00    -0.014 A 
ATOM     26  C   UNL     1       7.986   4.148  -0.895  0.00  0.00    -0.014 A 
ATOM     27  C   UNL     1       7.410   3.023  -0.312  0.00  0.00    -0.029 A 
ATOM     28  C   UNL     1       8.201   2.083   0.314  0.00  0.00    +0.005 A 
ATOM     29  C   UNL     1       9.573   2.255   0.366  0.00  0.00    +0.000 A 
ATOM     30  C   UNL     1      10.154   3.371  -0.211  0.00  0.00    +0.001 A 
ATOM     31  C   UNL     1       9.371   4.316  -0.840  0.00  0.00    +0.009 A 
ENDBRANCH  18  19
ENDBRANCH  17  18
ENDBRANCH   2  17
TORSDOF 7
