REMARK  Name = ZINC16310453
REMARK  12 active torsions:
REMARK  status: ('A' for Active; 'I' for Inactive)
REMARK    1  A    between atoms: C_1  and  C_2
REMARK    2  A    between atoms: C_5  and  S_8
REMARK    3  A    between atoms: S_8  and  N_11
REMARK    4  A    between atoms: N_11  and  C_12
REMARK    5  A    between atoms: C_14  and  N_32
REMARK    6  A    between atoms: C_17  and  N_18
REMARK    7  A    between atoms: N_18  and  C_19
REMARK    8  A    between atoms: N_18  and  S_22
REMARK    9  A    between atoms: C_19  and  C_20
REMARK   10  A    between atoms: C_20  and  O_21
REMARK   11  A    between atoms: S_22  and  C_25
REMARK   12  A    between atoms: C_28  and  C_31
REMARK                            x       y       z     vdW  Elec       q    Type
REMARK                         _______ _______ _______ _____ _____    ______ ____
ROOT
ATOM      1  C   UNL     1      -3.770   1.985   0.200  0.00  0.00    +0.073 A 
ATOM      2  C   UNL     1      -2.514   1.403   0.267  0.00  0.00    +0.059 A 
ATOM      3  C   UNL     1      -1.393   2.195   0.432  0.00  0.00    +0.128 A 
ATOM      4  C   UNL     1      -1.520   3.567   0.537  0.00  0.00    +0.035 A 
ATOM      5  C   UNL     1      -2.769   4.157   0.466  0.00  0.00    +0.029 A 
ATOM      6  C   UNL     1      -3.899   3.370   0.300  0.00  0.00    +0.074 A 
ENDROOT
BRANCH   3   7
ATOM      7  N   UNL     1      -0.052   1.571   0.503  0.00  0.00    +0.056 N 
ATOM      8  O   UNL     1       0.062   0.361   0.416  0.00  0.00    -0.126 OA
ATOM      9  O   UNL     1       0.937   2.267   0.644  0.00  0.00    -0.126 OA
ENDBRANCH   3   7
BRANCH   1  10
ATOM     10  N   UNL     1      -4.907   1.185   0.031  0.00  0.00    -0.214 N 
ATOM     11  H   UNL     1      -5.652   1.507  -0.500  0.00  0.00    +0.174 HD
BRANCH  10  12
ATOM     12  S   UNL     1      -4.980  -0.310   0.740  0.00  0.00    +0.072 S 
ATOM     13  O   UNL     1      -6.288  -0.810   0.500  0.00  0.00    -0.150 OA
ATOM     14  O   UNL     1      -3.811  -1.008   0.335  0.00  0.00    -0.150 OA
BRANCH  12  19
ATOM     15  C   UNL     1      -4.516   0.516   6.699  0.00  0.00    +0.044 C 
ATOM     16  C   UNL     1      -4.632   0.310   5.211  0.00  0.00    -0.050 A 
ATOM     17  C   UNL     1      -5.876   0.311   4.607  0.00  0.00    +0.005 A 
ATOM     18  C   UNL     1      -5.982   0.122   3.242  0.00  0.00    +0.029 A 
ATOM     19  C   UNL     1      -4.844  -0.068   2.480  0.00  0.00    +0.109 A 
ATOM     20  C   UNL     1      -3.601  -0.075   3.084  0.00  0.00    +0.029 A 
ATOM     21  C   UNL     1      -3.495   0.119   4.449  0.00  0.00    +0.005 A 
ENDBRANCH  12  19
ENDBRANCH  10  12
ENDBRANCH   1  10
BRANCH   6  22
ATOM     22  N   UNL     1      -5.165   3.965   0.233  0.00  0.00    -0.199 N 
BRANCH  22  23
ATOM     23  S   UNL     1      -6.094   4.089   1.598  0.00  0.00    +0.075 S 
ATOM     24  O   UNL     1      -7.443   4.185   1.164  0.00  0.00    -0.150 OA
ATOM     25  O   UNL     1      -5.650   3.072   2.486  0.00  0.00    -0.150 OA
BRANCH  23  26
ATOM     26  C   UNL     1      -5.699   5.629   2.359  0.00  0.00    +0.109 A 
ATOM     27  C   UNL     1      -4.685   5.697   3.297  0.00  0.00    +0.029 A 
ATOM     28  C   UNL     1      -4.372   6.906   3.890  0.00  0.00    +0.005 A 
ATOM     29  C   UNL     1      -5.079   8.045   3.553  0.00  0.00    -0.050 A 
ATOM     30  C   UNL     1      -6.096   7.976   2.618  0.00  0.00    +0.005 A 
ATOM     31  C   UNL     1      -6.406   6.768   2.022  0.00  0.00    +0.029 A 
ATOM     32  C   UNL     1      -4.742   9.361   4.203  0.00  0.00    +0.044 C 
ENDBRANCH  23  26
ENDBRANCH  22  23
BRANCH  22  33
ATOM     33  C   UNL     1      -5.667   4.477  -1.044  0.00  0.00    +0.159 C 
BRANCH  33  34
ATOM     34  C   UNL     1      -6.323   3.338  -1.828  0.00  0.00    +0.176 C 
BRANCH  34  35
ATOM     35  O   UNL     1      -7.478   2.878  -1.123  0.00  0.00    -0.393 OA
ATOM     36  H   UNL     1      -7.945   2.155  -1.563  0.00  0.00    +0.209 HD
ENDBRANCH  34  35
ENDBRANCH  33  34
ENDBRANCH  22  33
ENDBRANCH   6  22
TORSDOF 10
