REMARK  Name = ZINC38614269
REMARK  8 active torsions:
REMARK  status: ('A' for Active; 'I' for Inactive)
REMARK    1  A    between atoms: C_4  and  C_7
REMARK    2  A    between atoms: C_7  and  N_8
REMARK    3  A    between atoms: N_8  and  C_9
REMARK    4  A    between atoms: N_8  and  C_16
REMARK    5  A    between atoms: C_9  and  C_10
REMARK    6  A    between atoms: C_18  and  C_29
REMARK    7  A    between atoms: C_30  and  C_31
REMARK    8  A    between atoms: C_30  and  C_33
REMARK                            x       y       z     vdW  Elec       q    Type
REMARK                         _______ _______ _______ _____ _____    ______ ____
ROOT
ATOM      1  C   UNL     1       4.447   0.475   1.889  0.00  0.00    +0.193 C 
ATOM      2  C   UNL     1       4.670   0.484   3.402  0.00  0.00    +0.139 C 
ATOM      3  C   UNL     1       3.347   0.275   4.097  0.00  0.00    +0.235 C 
ATOM      4  O   UNL     1       3.292  -0.369   5.122  0.00  0.00    -0.274 OA
ATOM      5  N   UNL     1       2.227   0.809   3.572  0.00  0.00    -0.231 N 
ATOM      6  C   UNL     1       1.052   0.748   4.277  0.00  0.00    +0.085 C 
ATOM      7  C   UNL     1      -0.049   1.383   3.832  0.00  0.00    +0.016 C 
ATOM      8  C   UNL     1      -0.012   2.122   2.634  0.00  0.00    +0.005 C 
ATOM      9  C   UNL     1       1.123   2.145   1.891  0.00  0.00    +0.044 C 
ATOM     10  C   UNL     1       2.260   1.423   2.337  0.00  0.00    +0.128 C 
ATOM     11  N   UNL     1       3.298   1.312   1.550  0.00  0.00    -0.249 NA
ENDROOT
BRANCH   2  12
ATOM     12  C   UNL     1       5.255   1.809   3.818  0.00  0.00    +0.007 C 
ATOM     13  C   UNL     1       6.442   1.853   4.417  0.00  0.00    +0.068 C 
BRANCH  13  14
ATOM     14  C   UNL     1       7.028   3.178   4.833  0.00  0.00    +0.216 C 
ATOM     15  N   UNL     1       8.346   3.363   4.213  0.00  0.00    -0.359 N 
ATOM     16  C   UNL     1       9.217   3.477   5.173  0.00  0.00    +0.060 A 
ATOM     17  C   UNL     1      10.673   3.678   5.183  0.00  0.00    +0.027 A 
ATOM     18  C   UNL     1      11.324   3.760   6.360  0.00  0.00    +0.002 A 
ATOM     19  C   UNL     1      10.667   3.661   7.600  0.00  0.00    +0.002 A 
ATOM     20  C   UNL     1       9.336   3.477   7.703  0.00  0.00    +0.027 A 
ATOM     21  C   UNL     1       8.521   3.373   6.485  0.00  0.00    +0.060 A 
ATOM     22  N   UNL     1       7.247   3.199   6.284  0.00  0.00    -0.359 N 
ATOM     23  H   UNL     1       8.533   3.395   3.261  0.00  0.00    +0.162 HD
ATOM     24  H   UNL     1       6.566   3.101   6.969  0.00  0.00    +0.162 HD
ENDBRANCH  13  14
BRANCH  13  25
ATOM     25  C   UNL     1       7.164   0.641   4.666  0.00  0.00    +0.098 C 
ATOM     26  N   UNL     1       7.736  -0.320   4.864  0.00  0.00    -0.191 NA
ENDBRANCH  13  25
ENDBRANCH   2  12
BRANCH   1  27
ATOM     27  N   UNL     1       4.197  -0.901   1.441  0.00  0.00    -0.272 NA
BRANCH  27  28
ATOM     28  C   UNL     1       5.399  -1.732   1.597  0.00  0.00    +0.122 C 
BRANCH  28  32
ATOM     29  C   UNL     1       8.300  -0.603  -1.328  0.00  0.00    +0.000 A 
ATOM     30  C   UNL     1       8.346  -0.052  -0.061  0.00  0.00    +0.000 A 
ATOM     31  C   UNL     1       7.407  -0.417   0.885  0.00  0.00    +0.005 A 
ATOM     32  C   UNL     1       6.422  -1.333   0.565  0.00  0.00    -0.033 A 
ATOM     33  C   UNL     1       6.376  -1.882  -0.703  0.00  0.00    +0.005 A 
ATOM     34  C   UNL     1       7.316  -1.518  -1.649  0.00  0.00    +0.000 A 
ENDBRANCH  28  32
ENDBRANCH  27  28
BRANCH  27  35
ATOM     35  C   UNL     1       3.056  -1.488   2.155  0.00  0.00    +0.122 C 
BRANCH  35  36
ATOM     36  C   UNL     1       2.556  -2.693   1.400  0.00  0.00    -0.033 A 
ATOM     37  C   UNL     1       1.583  -2.545   0.429  0.00  0.00    +0.005 A 
ATOM     38  C   UNL     1       1.125  -3.650  -0.264  0.00  0.00    +0.000 A 
ATOM     39  C   UNL     1       1.640  -4.902   0.013  0.00  0.00    +0.000 A 
ATOM     40  C   UNL     1       2.614  -5.050   0.983  0.00  0.00    +0.000 A 
ATOM     41  C   UNL     1       3.075  -3.945   1.673  0.00  0.00    +0.005 A 
ENDBRANCH  35  36
ENDBRANCH  27  35
ENDBRANCH   1  27
TORSDOF 8
