REMARK  Name = ZINC01032422
REMARK  8 active torsions:
REMARK  status: ('A' for Active; 'I' for Inactive)
REMARK    1  A    between atoms: C_1  and  C_2
REMARK    2  A    between atoms: C_4  and  S_8
REMARK    3  A    between atoms: N_6  and  C_7
REMARK    4  A    between atoms: S_8  and  N_11
REMARK    5  A    between atoms: N_11  and  C_12
REMARK    6  A    between atoms: C_15  and  N_18
REMARK    7  A    between atoms: C_19  and  C_27
REMARK    8  A    between atoms: C_21  and  C_23
REMARK                            x       y       z     vdW  Elec       q    Type
REMARK                         _______ _______ _______ _____ _____    ______ ____
ROOT
ATOM      1  C   UNL     1      -0.920   3.566  -0.685  0.00  0.00    +0.048 A 
ATOM      2  C   UNL     1      -1.053   2.199  -0.475  0.00  0.00    +0.026 A 
ATOM      3  C   UNL     1       0.069   1.416  -0.300  0.00  0.00    +0.029 A 
ATOM      4  C   UNL     1       1.332   1.992  -0.342  0.00  0.00    +0.066 A 
ATOM      5  C   UNL     1       1.466   3.357  -0.556  0.00  0.00    +0.029 A 
ATOM      6  C   UNL     1       0.344   4.142  -0.727  0.00  0.00    +0.026 A 
ENDROOT
BRANCH   4   7
ATOM      7  N   UNL     1       2.472   1.194  -0.169  0.00  0.00    -0.231 N 
ATOM      8  C   UNL     1       3.555   1.494   0.610  0.00  0.00    +0.082 A 
ATOM      9  C   UNL     1       4.439   0.442   0.496  0.00  0.00    +0.063 A 
ATOM     10  C   UNL     1       3.876  -0.493  -0.372  0.00  0.00    +0.166 A 
ATOM     11  N   UNL     1       2.709  -0.049  -0.768  0.00  0.00    -0.162 NA
BRANCH   8  12
ATOM     12  C   UNL     1       3.741   2.710   1.420  0.00  0.00    +0.038 A 
ATOM     13  C   UNL     1       4.900   3.252   1.914  0.00  0.00    +0.017 A 
ATOM     14  C   UNL     1       4.826   4.410   2.654  0.00  0.00    +0.008 A 
ATOM     15  C   UNL     1       3.613   4.980   2.873  0.00  0.00    +0.046 A 
ATOM     16  S   UNL     1       2.515   3.868   2.009  0.00  0.00    -0.095 S 
ENDBRANCH   8  12
BRANCH  10  17
ATOM     17  C   UNL     1       4.505  -1.798  -0.785  0.00  0.00    +0.436 C 
ATOM     18  F   UNL     1       3.703  -2.417  -1.750  0.00  0.00    -0.164 F 
ATOM     19  F   UNL     1       5.774  -1.555  -1.321  0.00  0.00    -0.164 F 
ATOM     20  F   UNL     1       4.622  -2.634   0.330  0.00  0.00    -0.164 F 
ENDBRANCH  10  17
ENDBRANCH   4   7
BRANCH   1  21
ATOM     21  N   UNL     1      -2.057   4.361  -0.858  0.00  0.00    -0.215 N 
ATOM     22  H   UNL     1      -2.130   5.211  -0.396  0.00  0.00    +0.174 HD
BRANCH  21  23
ATOM     23  S   UNL     1      -3.279   3.853  -1.853  0.00  0.00    +0.091 S 
ATOM     24  O   UNL     1      -4.289   4.851  -1.799  0.00  0.00    -0.148 OA
ATOM     25  O   UNL     1      -2.670   3.451  -3.072  0.00  0.00    -0.148 OA
BRANCH  23  29
ATOM     26  C   UNL     1      -4.172  -1.181  -0.644  0.00  0.00    +0.086 C 
ATOM     27  C   UNL     1      -4.303   0.321  -0.662  0.00  0.00    +0.109 A 
ATOM     28  N   UNL     1      -3.574   1.140  -1.369  0.00  0.00    -0.213 NA
ATOM     29  C   UNL     1      -3.967   2.400  -1.132  0.00  0.00    +0.215 A 
ATOM     30  C   UNL     1      -4.985   2.360  -0.251  0.00  0.00    +0.136 A 
ATOM     31  N   UNL     1      -5.198   1.041   0.048  0.00  0.00    -0.336 N 
ATOM     32  C   UNL     1      -6.209   0.510   0.966  0.00  0.00    +0.150 C 
ENDBRANCH  23  29
ENDBRANCH  21  23
ENDBRANCH   1  21
TORSDOF 6
