REMARK  Name = ZINC36391766
REMARK  10 active torsions:
REMARK  status: ('A' for Active; 'I' for Inactive)
REMARK    1  A    between atoms: C_1  and  C_2
REMARK    2  A    between atoms: N_10  and  C_14
REMARK    3  A    between atoms: C_14  and  N_15
REMARK    4  A    between atoms: N_15  and  C_16
REMARK    5  A    between atoms: N_15  and  C_17
REMARK    6  A    between atoms: C_17  and  C_18
REMARK    7  A    between atoms: C_21  and  O_26
REMARK    8  A    between atoms: C_22  and  O_24
REMARK    9  A    between atoms: O_24  and  C_25
REMARK   10  A    between atoms: O_26  and  C_27
REMARK                            x       y       z     vdW  Elec       q    Type
REMARK                         _______ _______ _______ _____ _____    ______ ____
ROOT
ATOM      1  C   UNL     1       3.435   1.482   2.826  0.00  0.00    +0.205 C 
ENDROOT
BRANCH   1  11
ATOM      2  C   UNL     1      -0.019   1.526   0.010  0.00  0.00    +0.010 C 
ATOM      3  C   UNL     1       0.002  -0.004   0.002  0.00  0.00    +0.018 C 
ATOM      4  C   UNL     1      -1.434  -0.534   0.012  0.00  0.00    +0.006 C 
ATOM      5  C   UNL     1      -1.412  -2.064   0.024  0.00  0.00    +0.000 C 
ATOM      6  C   UNL     1      -0.688  -2.556   1.278  0.00  0.00    +0.003 C 
ATOM      7  C   UNL     1       0.751  -2.033   1.274  0.00  0.00    +0.035 C 
ATOM      8  C   UNL     1       0.740  -0.509   1.237  0.00  0.00    +0.115 C 
ATOM      9  C   UNL     1       2.151   0.030   1.267  0.00  0.00    +0.248 C 
ATOM     10  O   UNL     1       3.026  -0.158   0.449  0.00  0.00    -0.273 OA
ATOM     11  N   UNL     1       2.232   0.767   2.394  0.00  0.00    -0.211 N 
ATOM     12  C   UNL     1       1.076   0.763   3.069  0.00  0.00    +0.310 C 
ATOM     13  O   UNL     1       0.903   1.356   4.117  0.00  0.00    -0.252 OA
ATOM     14  N   UNL     1       0.126   0.030   2.458  0.00  0.00    -0.285 N 
ATOM     15  H   UNL     1      -0.783  -0.114   2.764  0.00  0.00    +0.151 HD
ENDBRANCH   1  11
BRANCH   1  16
ATOM     16  N   UNL     1       3.425   2.841   2.269  0.00  0.00    -0.285 NA
ATOM     17  C   UNL     1       3.893   2.842   0.876  0.00  0.00    +0.106 C 
BRANCH  16  18
ATOM     18  C   UNL     1       4.226   3.755   3.094  0.00  0.00    +0.121 C 
BRANCH  18  19
ATOM     19  C   UNL     1       3.996   5.173   2.640  0.00  0.00    -0.030 A 
ATOM     20  C   UNL     1       4.798   5.721   1.656  0.00  0.00    +0.009 A 
ATOM     21  C   UNL     1       4.591   7.021   1.236  0.00  0.00    +0.050 A 
ATOM     22  C   UNL     1       3.578   7.779   1.802  0.00  0.00    +0.168 A 
ATOM     23  C   UNL     1       2.771   7.228   2.792  0.00  0.00    +0.162 A 
ATOM     24  C   UNL     1       2.981   5.922   3.205  0.00  0.00    +0.054 A 
BRANCH  23  25
ATOM     25  O   UNL     1       1.776   7.968   3.350  0.00  0.00    -0.491 OA
ATOM     26  C   UNL     1       0.988   7.337   4.362  0.00  0.00    +0.277 C 
ENDBRANCH  23  25
BRANCH  22  27
ATOM     27  O   UNL     1       3.374   9.059   1.390  0.00  0.00    -0.431 OA
BRANCH  27  28
ATOM     28  C   UNL     1       4.241   9.559   0.370  0.00  0.00    +0.541 C 
ATOM     29  F   UNL     1       5.565   9.516   0.820  0.00  0.00    -0.166 F 
ATOM     30  F   UNL     1       4.113   8.770  -0.778  0.00  0.00    -0.166 F 
ENDBRANCH  27  28
ENDBRANCH  22  27
ENDBRANCH  18  19
ENDBRANCH  16  18
ENDBRANCH   1  16
TORSDOF 7
