REMARK  Name = ZINC18175975
REMARK  3 active torsions:
REMARK  status: ('A' for Active; 'I' for Inactive)
REMARK    1  A    between atoms: C_3  and  N_10
REMARK    2  A    between atoms: C_5  and  N_7
REMARK    3  A    between atoms: C_17  and  C_19
REMARK                            x       y       z     vdW  Elec       q    Type
REMARK                         _______ _______ _______ _____ _____    ______ ____
ROOT
ATOM      1  N   UNL     1       3.975   2.115  -1.447  0.00  0.00    -0.269 N 
ATOM      2  C   UNL     1       3.262   0.976  -1.540  0.00  0.00    +0.307 C 
ATOM      3  O   UNL     1       3.670   0.057  -2.223  0.00  0.00    -0.252 OA
ATOM      4  N   UNL     1       2.095   0.855  -0.876  0.00  0.00    -0.278 N 
ATOM      5  C   UNL     1       1.486   1.885  -0.015  0.00  0.00    +0.110 C 
ATOM      6  C   UNL     1      -0.027   1.554  -0.010  0.00  0.00    +0.021 C 
ATOM      7  C   UNL     1      -0.006   0.002  -0.010  0.00  0.00    +0.029 C 
ATOM      8  C   UNL     1       1.220  -0.326  -0.889  0.00  0.00    +0.114 C 
ATOM      9  H   UNL     1       3.618   2.873  -0.957  0.00  0.00    +0.156 HD
ENDROOT
BRANCH   1  12
ATOM     10  C   UNL     1       7.484   3.029  -2.063  0.00  0.00    +0.004 A 
ATOM     11  C   UNL     1       6.244   2.945  -1.460  0.00  0.00    +0.023 A 
ATOM     12  C   UNL     1       5.231   2.206  -2.057  0.00  0.00    +0.037 A 
ATOM     13  C   UNL     1       5.467   1.561  -3.265  0.00  0.00    +0.056 A 
ATOM     14  C   UNL     1       6.707   1.653  -3.865  0.00  0.00    +0.128 A 
ATOM     15  C   UNL     1       7.715   2.386  -3.265  0.00  0.00    +0.033 A 
BRANCH  14  16
ATOM     16  N   UNL     1       6.959   0.966  -5.152  0.00  0.00    +0.056 N 
ATOM     17  O   UNL     1       6.072   0.321  -5.681  0.00  0.00    -0.126 OA
ATOM     18  O   UNL     1       8.053   1.047  -5.681  0.00  0.00    -0.126 OA
ENDBRANCH  14  16
ENDBRANCH   1  12
BRANCH   8  19
ATOM     19  C   UNL     1       1.954  -1.514  -0.321  0.00  0.00    +0.010 A 
ATOM     20  C   UNL     1       1.909  -2.811  -0.711  0.00  0.00    +0.013 A 
ATOM     21  C   UNL     1       2.678  -3.741  -0.036  0.00  0.00    +0.008 A 
ATOM     22  C   UNL     1       3.454  -3.328   0.995  0.00  0.00    +0.045 A 
ATOM     23  S   UNL     1       3.114  -1.576   1.034  0.00  0.00    -0.100 S 
ENDBRANCH   8  19
TORSDOF 3
