REMARK  Name = ZINC38711149
REMARK  6 active torsions:
REMARK  status: ('A' for Active; 'I' for Inactive)
REMARK    1  A    between atoms: C_8  and  S_9
REMARK    2  A    between atoms: S_9  and  N_12
REMARK    3  A    between atoms: N_12  and  C_13
REMARK    4  A    between atoms: C_20  and  S_22
REMARK    5  A    between atoms: S_22  and  N_25
REMARK    6  A    between atoms: N_25  and  C_26
REMARK                            x       y       z     vdW  Elec       q    Type
REMARK                         _______ _______ _______ _____ _____    ______ ____
ROOT
ATOM      1  C   UNL     1       1.108  -0.800  -0.882  0.00  0.00    +0.003 A 
ATOM      2  C   UNL     1       1.817   0.240  -0.364  0.00  0.00    +0.010 A 
ATOM      3  C   UNL     1       3.123   0.025   0.107  0.00  0.00    +0.010 A 
ATOM      4  C   UNL     1       3.683  -1.276   0.034  0.00  0.00    +0.010 A 
ATOM      5  C   UNL     1       4.989  -1.491   0.505  0.00  0.00    +0.010 A 
ATOM      6  C   UNL     1       5.699  -0.451   1.022  0.00  0.00    +0.003 A 
ATOM      7  C   UNL     1       5.149   0.827   1.094  0.00  0.00    +0.029 A 
ATOM      8  C   UNL     1       3.886   1.073   0.648  0.00  0.00    +0.113 A 
ATOM      9  C   UNL     1       2.920  -2.325  -0.507  0.00  0.00    +0.113 A 
ATOM     10  C   UNL     1       1.658  -2.078  -0.954  0.00  0.00    +0.029 A 
ENDROOT
BRANCH   8  11
ATOM     11  S   UNL     1       3.213   2.698   0.749  0.00  0.00    +0.059 S 
ATOM     12  O   UNL     1       4.197   3.508   1.377  0.00  0.00    -0.153 OA
ATOM     13  O   UNL     1       2.685   3.000  -0.536  0.00  0.00    -0.153 OA
BRANCH  11  14
ATOM     14  N   UNL     1       1.923   2.630   1.786  0.00  0.00    -0.187 NA
ATOM     15  H   UNL     1       1.026   2.791   1.455  0.00  0.00    +0.148 HD
BRANCH  14  16
ATOM     16  C   UNL     1       2.138   2.328   3.203  0.00  0.00    +0.077 C 
ATOM     17  C   UNL     1       1.962   0.812   3.423  0.00  0.00    +0.020 C 
ATOM     18  C   UNL     1       2.659   0.429   4.700  0.00  0.00    +0.002 C 
ATOM     19  C   UNL     1       1.708   0.426   5.912  0.00  0.00    +0.000 C 
ATOM     20  C   UNL     1       0.739   1.623   5.915  0.00  0.00    +0.000 C 
ATOM     21  C   UNL     1       1.411   2.909   5.514  0.00  0.00    +0.002 C 
ATOM     22  C   UNL     1       1.208   3.116   3.999  0.00  0.00    +0.020 C 
ENDBRANCH  14  16
ENDBRANCH  11  14
ENDBRANCH   8  11
BRANCH   9  23
ATOM     23  S   UNL     1       3.594  -3.950  -0.607  0.00  0.00    +0.059 S 
ATOM     24  O   UNL     1       2.574  -4.779  -1.147  0.00  0.00    -0.153 OA
ATOM     25  O   UNL     1       4.873  -3.822  -1.213  0.00  0.00    -0.153 OA
BRANCH  23  26
ATOM     26  N   UNL     1       3.853  -4.468   0.944  0.00  0.00    -0.187 NA
ATOM     27  H   UNL     1       4.758  -4.625   1.258  0.00  0.00    +0.148 HD
BRANCH  26  28
ATOM     28  C   UNL     1       2.718  -4.691   1.842  0.00  0.00    +0.077 C 
ATOM     29  C   UNL     1       2.477  -3.412   2.670  0.00  0.00    +0.020 C 
ATOM     30  C   UNL     1       1.065  -3.437   3.189  0.00  0.00    +0.002 C 
ATOM     31  C   UNL     1       0.970  -4.030   4.608  0.00  0.00    +0.000 C 
ATOM     32  C   UNL     1       1.862  -5.271   4.798  0.00  0.00    +0.000 C 
ATOM     33  C   UNL     1       1.821  -6.197   3.613  0.00  0.00    +0.002 C 
ATOM     34  C   UNL     1       2.998  -5.849   2.678  0.00  0.00    +0.020 C 
ENDBRANCH  26  28
ENDBRANCH  23  26
ENDBRANCH   9  23
TORSDOF 6
