REMARK  Name = ZINC38930965
REMARK  7 active torsions:
REMARK  status: ('A' for Active; 'I' for Inactive)
REMARK    1  A    between atoms: C_5  and  C_7
REMARK    2  A    between atoms: C_7  and  O_8
REMARK    3  A    between atoms: O_8  and  C_9
REMARK    4  A    between atoms: C_12  and  C_15
REMARK    5  A    between atoms: C_17  and  C_21
REMARK    6  A    between atoms: N_23  and  N_24
REMARK    7  A    between atoms: C_25  and  C_26
REMARK                            x       y       z     vdW  Elec       q    Type
REMARK                         _______ _______ _______ _____ _____    ______ ____
ROOT
ATOM      1  C   UNL     1      -0.773  -8.254  -0.035  0.00  0.00    +0.092 C 
ATOM      2  C   UNL     1      -1.962  -8.887  -0.037  0.00  0.00    +0.041 C 
ATOM      3  C   UNL     1      -1.590 -10.359  -0.044  0.00  0.00    +0.240 C 
ATOM      4  N   UNL     1      -0.118 -10.334  -0.046  0.00  0.00    -0.170 NA
ATOM      5  N   UNL     1       0.244  -9.155  -0.046  0.00  0.00    -0.153 NA
ENDROOT
BRANCH   1   9
ATOM      6  C   UNL     1      -0.272  -4.030  -0.017  0.00  0.00    +0.121 A 
ATOM      7  C   UNL     1       0.841  -4.859  -0.027  0.00  0.00    +0.046 A 
ATOM      8  C   UNL     1       0.682  -6.229  -0.033  0.00  0.00    +0.013 A 
ATOM      9  C   UNL     1      -0.598  -6.781  -0.028  0.00  0.00    +0.002 A 
ATOM     10  C   UNL     1      -1.714  -5.945  -0.018  0.00  0.00    +0.013 A 
ATOM     11  C   UNL     1      -1.548  -4.576  -0.007  0.00  0.00    +0.046 A 
BRANCH   6  12
ATOM     12  O   UNL     1      -0.112  -2.680  -0.011  0.00  0.00    -0.487 OA
BRANCH  12  13
ATOM     13  C   UNL     1       1.229  -2.186  -0.022  0.00  0.00    +0.266 C 
BRANCH  13  18
ATOM     14  C   UNL     1      -0.017   1.378   0.010  0.00  0.00    +0.000 A 
ATOM     15  C   UNL     1       1.171   2.086   0.002  0.00  0.00    +0.001 A 
ATOM     16  C   UNL     1       2.377   1.412  -0.013  0.00  0.00    +0.020 A 
ATOM     17  C   UNL     1       2.397   0.029  -0.021  0.00  0.00    +0.047 A 
ATOM     18  C   UNL     1       1.208  -0.679  -0.013  0.00  0.00    +0.008 A 
ATOM     19  C   UNL     1       0.002  -0.004   0.002  0.00  0.00    +0.008 A 
ATOM     20 CL   UNL     1       3.912  -0.818  -0.041  0.00  0.00    -0.083 Cl
ENDBRANCH  13  18
ENDBRANCH  12  13
ENDBRANCH   6  12
ENDBRANCH   1   9
BRANCH   3  21
ATOM     21  C   UNL     1      -2.115 -11.034  -1.285  0.00  0.00    +0.263 C 
ATOM     22  O   UNL     1      -1.375 -11.239  -2.223  0.00  0.00    -0.271 OA
ATOM     23  N   UNL     1      -3.408 -11.410  -1.352  0.00  0.00    -0.205 N 
ATOM     24  H   UNL     1      -4.000 -11.246  -0.602  0.00  0.00    +0.177 HD
BRANCH  23  25
ATOM     25  N   UNL     1      -3.896 -12.037  -2.506  0.00  0.00    -0.188 NA
ATOM     26  C   UNL     1      -5.152 -12.403  -2.570  0.00  0.00    +0.136 C 
BRANCH  26  27
ATOM     27  C   UNL     1      -5.640 -13.031  -3.725  0.00  0.00    +0.000 C 
ATOM     28  C   UNL     1      -6.941 -13.473  -3.957  0.00  0.00    +0.004 A 
ATOM     29  C   UNL     1      -8.114 -13.442  -3.170  0.00  0.00    +0.010 A 
ATOM     30  C   UNL     1      -9.267 -13.960  -3.663  0.00  0.00    +0.001 A 
ATOM     31  C   UNL     1      -9.330 -14.528  -4.938  0.00  0.00    +0.002 A 
ATOM     32  C   UNL     1      -8.245 -14.592  -5.747  0.00  0.00    +0.026 A 
ATOM     33  C   UNL     1      -7.001 -14.071  -5.302  0.00  0.00    +0.043 A 
ATOM     34  N   UNL     1      -5.822 -14.013  -5.885  0.00  0.00    -0.380 N 
ATOM     35  C   UNL     1      -4.867 -13.364  -4.982  0.00  0.00    +0.150 C 
ATOM     36  H   UNL     1      -5.619 -14.344  -6.774  0.00  0.00    +0.160 HD
ENDBRANCH  26  27
ENDBRANCH  23  25
ENDBRANCH   3  21
TORSDOF 7
