REMARK  Name = ZINC04979854
REMARK  5 active torsions:
REMARK  status: ('A' for Active; 'I' for Inactive)
REMARK    1  A    between atoms: C_1  and  C_2
REMARK    2  A    between atoms: N_5  and  N_6
REMARK    3  A    between atoms: C_7  and  C_9
REMARK    4  A    between atoms: C_20  and  C_22
REMARK    5  A    between atoms: C_20  and  C_23
REMARK                            x       y       z     vdW  Elec       q    Type
REMARK                         _______ _______ _______ _____ _____    ______ ____
ROOT
ATOM      1  N   UNL     1       0.893   3.649   1.573  0.00  0.00    -0.203 N 
ATOM      2  C   UNL     1       1.297   4.678   2.344  0.00  0.00    +0.265 C 
ATOM      3  O   UNL     1       2.459   5.037   2.319  0.00  0.00    -0.268 OA
ATOM      4  H   UNL     1      -0.033   3.362   1.594  0.00  0.00    +0.178 HD
ENDROOT
BRANCH   1   9
ATOM      5  C   UNL     1       3.028  -0.532  -2.348  0.00  0.00    +0.039 C 
ATOM      6  C   UNL     1       2.020   0.155  -1.462  0.00  0.00    -0.070 C 
ATOM      7  C   UNL     1       2.364   1.294  -0.882  0.00  0.00    +0.024 C 
ATOM      8  C   UNL     1       1.422   2.001  -0.001  0.00  0.00    +0.060 C 
ATOM      9  N   UNL     1       1.811   2.993   0.743  0.00  0.00    -0.185 NA
ATOM     10  C   UNL     1      -0.019   1.531   0.011  0.00  0.00    +0.063 C 
ATOM     11  C   UNL     1       0.002  -0.004   0.002  0.00  0.00    -0.026 C 
ATOM     12  C   UNL     1       0.676  -0.486  -1.282  0.00  0.00    +0.037 C 
ATOM     13  C   UNL     1       0.786  -0.512   1.214  0.00  0.00    +0.011 C 
ATOM     14  C   UNL     1      -1.431  -0.536   0.060  0.00  0.00    +0.011 C 
ENDBRANCH   1   9
BRANCH   2  15
ATOM     15  C   UNL     1       0.335   5.365   3.215  0.00  0.00    +0.063 A 
ATOM     16  C   UNL     1      -0.993   5.083   3.347  0.00  0.00    +0.096 A 
ATOM     17  N   UNL     1      -1.554   5.928   4.245  0.00  0.00    -0.360 N 
ATOM     18  H   UNL     1      -2.489   5.918   4.505  0.00  0.00    +0.165 HD
ATOM     19  C   UNL     1      -0.611   6.809   4.732  0.00  0.00    +0.047 A 
ATOM     20  C   UNL     1       0.612   6.500   4.114  0.00  0.00    +0.012 A 
ATOM     21  C   UNL     1       1.754   7.236   4.419  0.00  0.00    +0.011 A 
ATOM     22  C   UNL     1       1.678   8.268   5.330  0.00  0.00    +0.001 A 
ATOM     23  C   UNL     1       0.471   8.574   5.941  0.00  0.00    +0.002 A 
ATOM     24  C   UNL     1      -0.667   7.854   5.649  0.00  0.00    +0.026 A 
ENDBRANCH   2  15
TORSDOF 2
