REMARK  Name = ZINC35939734
REMARK  10 active torsions:
REMARK  status: ('A' for Active; 'I' for Inactive)
REMARK    1  A    between atoms: C_1  and  C_2
REMARK    2  A    between atoms: C_2  and  C_3
REMARK    3  A    between atoms: C_3  and  C_5
REMARK    4  A    between atoms: C_3  and  N_6
REMARK    5  A    between atoms: C_7  and  C_9
REMARK    6  A    between atoms: C_11  and  C_22
REMARK    7  A    between atoms: C_16  and  C_18
REMARK    8  A    between atoms: C_18  and  C_19
REMARK    9  A    between atoms: C_18  and  C_20
REMARK   10  A    between atoms: C_18  and  C_21
REMARK                            x       y       z     vdW  Elec       q    Type
REMARK                         _______ _______ _______ _____ _____    ______ ____
ROOT
ATOM      1  C   UNL     1       4.247   0.463  -2.305  0.00  0.00    +0.130 A 
ATOM      2  C   UNL     1       4.973   0.617  -3.501  0.00  0.00    +0.061 A 
ATOM      3  C   UNL     1       6.286   0.997  -3.440  0.00  0.00    +0.077 A 
ATOM      4  N   UNL     1       6.857   1.218  -2.209  0.00  0.00    -0.214 N 
ATOM      5  C   UNL     1       6.109   1.055  -1.069  0.00  0.00    +0.157 A 
ATOM      6  N   UNL     1       4.828   0.689  -1.140  0.00  0.00    -0.223 NA
ATOM      7  C   UNL     1       6.945   1.345   0.006  0.00  0.00    +0.073 A 
ATOM      8  C   UNL     1       8.187   1.679  -0.507  0.00  0.00    +0.071 A 
ATOM      9  N   UNL     1       8.144   1.606  -1.820  0.00  0.00    -0.169 NA
ENDROOT
BRANCH   3  10
ATOM     10  C   UNL     1       7.077   1.167  -4.676  0.00  0.00    +0.003 A 
ATOM     11  C   UNL     1       8.159   0.323  -4.938  0.00  0.00    +0.010 A 
ATOM     12  C   UNL     1       8.893   0.486  -6.094  0.00  0.00    +0.003 A 
ATOM     13  C   UNL     1       8.562   1.483  -6.994  0.00  0.00    +0.038 A 
ATOM     14  C   UNL     1       7.490   2.325  -6.741  0.00  0.00    +0.124 A 
ATOM     15  C   UNL     1       6.743   2.168  -5.590  0.00  0.00    +0.048 A 
ATOM     16  F   UNL     1       7.172   3.296  -7.625  0.00  0.00    -0.205 F 
ENDBRANCH   3  10
BRANCH   1  18
ATOM     17  N   UNL     1       2.125  -0.091  -1.209  0.00  0.00    -0.308 N 
ATOM     18  C   UNL     1       2.824   0.051  -2.353  0.00  0.00    +0.263 C 
ATOM     19  O   UNL     1       2.288  -0.157  -3.423  0.00  0.00    -0.269 OA
ATOM     20  H   UNL     1       2.553   0.075  -0.355  0.00  0.00    +0.149 HD
BRANCH  17  21
ATOM     21  C   UNL     1       0.718  -0.497  -1.257  0.00  0.00    +0.070 C 
ATOM     22  C   UNL     1       0.630  -2.023  -1.329  0.00  0.00    +0.028 C 
BRANCH  21  24
ATOM     23  C   UNL     1      -0.019   1.526   0.010  0.00  0.00    +0.005 C 
ATOM     24  C   UNL     1       0.002  -0.004   0.002  0.00  0.00    +0.018 C 
ENDBRANCH  21  24
ENDBRANCH  17  21
ENDBRANCH   1  18
BRANCH   8  25
ATOM     25  C   UNL     1       9.395   2.064   0.307  0.00  0.00    +0.006 C 
ATOM     26  C   UNL     1       9.991   0.814   0.958  0.00  0.00    +0.017 C 
ATOM     27  C   UNL     1      10.440   2.712  -0.604  0.00  0.00    +0.017 C 
ATOM     28  C   UNL     1       8.981   3.058   1.395  0.00  0.00    +0.017 C 
ENDBRANCH   8  25
TORSDOF 5
