REMARK  Name = ZINC24774563
REMARK  11 active torsions:
REMARK  status: ('A' for Active; 'I' for Inactive)
REMARK    1  A    between atoms: C_1  and  C_2
REMARK    2  A    between atoms: C_2  and  N_3
REMARK    3  A    between atoms: N_3  and  C_4
REMARK    4  A    between atoms: N_3  and  S_6
REMARK    5  A    between atoms: C_4  and  C_5
REMARK    6  A    between atoms: S_6  and  C_9
REMARK    7  A    between atoms: N_14  and  C_16
REMARK    8  A    between atoms: C_16  and  C_17
REMARK    9  A    between atoms: N_19  and  C_20
REMARK   10  A    between atoms: C_20  and  C_22
REMARK   11  A    between atoms: C_20  and  C_23
REMARK                            x       y       z     vdW  Elec       q    Type
REMARK                         _______ _______ _______ _____ _____    ______ ____
ROOT
ATOM      1  C   UNL     1       3.267   2.704   1.191  0.00  0.00    +0.122 A 
ATOM      2  C   UNL     1       3.933   2.960  -0.015  0.00  0.00    +0.035 A 
ATOM      3  C   UNL     1       3.288   2.733  -1.195  0.00  0.00    +0.072 A 
ATOM      4  C   UNL     1       1.969   2.247  -1.175  0.00  0.00    +0.252 A 
ATOM      5  O   UNL     1       1.380   2.038  -2.224  0.00  0.00    -0.268 OA
ATOM      6  N   UNL     1       1.356   2.010  -0.000  0.00  0.00    -0.305 N 
ATOM      7  C   UNL     1       1.995   2.241   1.175  0.00  0.00    +0.118 A 
ENDROOT
BRANCH   1   8
ATOM      8  S   UNL     1       4.082   2.991   2.727  0.00  0.00    +0.062 S 
ATOM      9  O   UNL     1       4.745   4.242   2.607  0.00  0.00    -0.153 OA
ATOM     10  O   UNL     1       3.128   2.729   3.748  0.00  0.00    -0.153 OA
BRANCH   8  11
ATOM     11  N   UNL     1       5.264   1.841   2.876  0.00  0.00    -0.177 NA
BRANCH  11  13
ATOM     12  C   UNL     1       7.494   2.635   3.492  0.00  0.00    +0.022 C 
ATOM     13  C   UNL     1       6.610   2.103   2.361  0.00  0.00    +0.106 C 
ENDBRANCH  11  13
BRANCH  11  14
ATOM     14  C   UNL     1       4.963   0.561   3.523  0.00  0.00    +0.106 C 
ATOM     15  C   UNL     1       4.599  -0.475   2.458  0.00  0.00    +0.022 C 
ENDBRANCH  11  14
ENDBRANCH   8  11
ENDBRANCH   1   8
BRANCH   6  16
ATOM     16  C   UNL     1      -0.018   1.503   0.010  0.00  0.00    +0.220 C 
BRANCH  16  17
ATOM     17  C   UNL     1       0.002  -0.004   0.002  0.00  0.00    +0.233 C 
ATOM     18  O   UNL     1       1.060  -0.596  -0.011  0.00  0.00    -0.274 OA
ATOM     19  N   UNL     1      -1.156  -0.694   0.009  0.00  0.00    -0.307 N 
ATOM     20  H   UNL     1      -2.116  -0.157   0.021  0.00  0.00    +0.149 HD
BRANCH  19  21
ATOM     21  C   UNL     1      -1.136  -2.159   0.001  0.00  0.00    +0.102 C 
ATOM     22  C   UNL     1      -1.017  -2.659  -1.440  0.00  0.00    +0.033 C 
BRANCH  21  23
ATOM     23  C   UNL     1      -2.411  -2.682   0.611  0.00  0.00    -0.009 A 
ATOM     24  C   UNL     1      -3.554  -1.904   0.596  0.00  0.00    +0.008 A 
ATOM     25  C   UNL     1      -4.724  -2.383   1.155  0.00  0.00    +0.020 A 
ATOM     26  C   UNL     1      -4.751  -3.641   1.731  0.00  0.00    +0.042 A 
ATOM     27  C   UNL     1      -3.608  -4.419   1.746  0.00  0.00    +0.040 A 
ATOM     28  C   UNL     1      -2.439  -3.942   1.181  0.00  0.00    +0.047 A 
ATOM     29 CL   UNL     1      -1.005  -4.921   1.193  0.00  0.00    -0.083 Cl
ATOM     30 CL   UNL     1      -6.220  -4.243   2.433  0.00  0.00    -0.083 Cl
ENDBRANCH  21  23
ENDBRANCH  19  21
ENDBRANCH  16  17
ENDBRANCH   6  16
TORSDOF 8
