REMARK  Name = ZINC64538225
REMARK  8 active torsions:
REMARK  status: ('A' for Active; 'I' for Inactive)
REMARK    1  A    between atoms: C_1  and  C_2
REMARK    2  A    between atoms: C_2  and  C_27
REMARK    3  A    between atoms: C_7  and  C_9
REMARK    4  A    between atoms: N_11  and  C_12
REMARK    5  A    between atoms: C_12  and  C_13
REMARK    6  A    between atoms: C_13  and  C_14
REMARK    7  A    between atoms: N_25  and  C_26
REMARK    8  A    between atoms: N_29  and  C_30
REMARK                            x       y       z     vdW  Elec       q    Type
REMARK                         _______ _______ _______ _____ _____    ______ ____
ROOT
ATOM      1  C   UNL     1      -0.019   1.526   0.010  0.00  0.00    +0.044 C 
ATOM      2  C   UNL     1       0.002  -0.004   0.002  0.00  0.00    +0.130 C 
ATOM      3  C   UNL     1       0.648  -0.481  -1.297  0.00  0.00    +0.179 C 
ATOM      4  N   UNL     1       0.924  -1.920  -1.201  0.00  0.00    -0.256 N 
ATOM      5  C   UNL     1       1.205  -2.509   0.015  0.00  0.00    +0.124 A 
ATOM      6  C   UNL     1       1.412  -3.827  -0.212  0.00  0.00    +0.067 A 
ATOM      7  C   UNL     1       1.242  -3.993  -1.605  0.00  0.00    +0.148 A 
ATOM      8  N   UNL     1       0.954  -2.807  -2.117  0.00  0.00    -0.166 NA
ATOM      9  C   UNL     1       1.241  -1.717   1.256  0.00  0.00    +0.265 C 
ATOM     10  O   UNL     1       1.720  -2.156   2.284  0.00  0.00    -0.268 OA
ATOM     11  N   UNL     1       0.710  -0.472   1.188  0.00  0.00    -0.284 N 
ATOM     12  C   UNL     1       0.851   0.428   2.336  0.00  0.00    +0.133 C 
ENDROOT
BRANCH   7  13
ATOM     13  C   UNL     1       1.364  -5.261  -2.355  0.00  0.00    +0.264 C 
ATOM     14  O   UNL     1       1.635  -6.290  -1.767  0.00  0.00    -0.268 OA
ATOM     15  N   UNL     1       1.176  -5.276  -3.689  0.00  0.00    -0.310 N 
ATOM     16  H   UNL     1       0.960  -4.454  -4.157  0.00  0.00    +0.149 HD
BRANCH  15  17
ATOM     17  C   UNL     1       1.297  -6.532  -4.432  0.00  0.00    +0.109 C 
BRANCH  17  18
ATOM     18  C   UNL     1       1.037  -6.274  -5.917  0.00  0.00    +0.052 C 
BRANCH  18  19
ATOM     19  C   UNL     1       1.162  -7.567  -6.682  0.00  0.00    -0.040 C 
ATOM     20  C   UNL     1       0.160  -8.406  -7.028  0.00  0.00    -0.001 A 
ATOM     21  C   UNL     1      -1.290  -8.369  -6.806  0.00  0.00    +0.010 A 
ATOM     22  C   UNL     1      -2.053  -9.379  -7.283  0.00  0.00    +0.001 A 
ATOM     23  C   UNL     1      -1.495 -10.457  -7.983  0.00  0.00    +0.002 A 
ATOM     24  C   UNL     1      -0.172 -10.561  -8.227  0.00  0.00    +0.026 A 
ATOM     25  C   UNL     1       0.725  -9.556  -7.771  0.00  0.00    +0.043 A 
ATOM     26  N   UNL     1       2.025  -9.432  -7.879  0.00  0.00    -0.380 N 
ATOM     27  C   UNL     1       2.433  -8.185  -7.222  0.00  0.00    +0.144 C 
ATOM     28  H   UNL     1       2.619 -10.057  -8.323  0.00  0.00    +0.160 HD
ENDBRANCH  18  19
ENDBRANCH  17  18
ENDBRANCH  15  17
ENDBRANCH   7  13
BRANCH   2  29
ATOM     29  C   UNL     1      -1.417  -0.509   0.051  0.00  0.00    +0.238 C 
ATOM     30  O   UNL     1      -1.995  -0.794  -0.976  0.00  0.00    -0.273 OA
ATOM     31  N   UNL     1      -2.043  -0.645   1.237  0.00  0.00    -0.311 N 
ATOM     32  H   UNL     1      -1.580  -0.418   2.059  0.00  0.00    +0.149 HD
BRANCH  31  33
ATOM     33  C   UNL     1      -3.422  -1.137   1.285  0.00  0.00    +0.073 C 
ATOM     34  C   UNL     1      -4.387   0.032   1.076  0.00  0.00    +0.022 C 
ATOM     35  C   UNL     1      -5.828  -0.481   1.126  0.00  0.00    +0.002 C 
ATOM     36  C   UNL     1      -6.093  -1.124   2.489  0.00  0.00    +0.000 C 
ATOM     37  C   UNL     1      -5.128  -2.292   2.698  0.00  0.00    +0.002 C 
ATOM     38  C   UNL     1      -3.688  -1.779   2.648  0.00  0.00    +0.022 C 
ENDBRANCH  31  33
ENDBRANCH   2  29
TORSDOF 6
