REMARK  Name = ZINC60347010
REMARK  8 active torsions:
REMARK  status: ('A' for Active; 'I' for Inactive)
REMARK    1  A    between atoms: C_1  and  C_2
REMARK    2  A    between atoms: C_5  and  C_8
REMARK    3  A    between atoms: C_14  and  C_17
REMARK    4  A    between atoms: N_19  and  C_20
REMARK    5  A    between atoms: C_23  and  S_27
REMARK    6  A    between atoms: C_25  and  C_26
REMARK    7  A    between atoms: S_27  and  C_28
REMARK    8  A    between atoms: C_30  and  C_33
REMARK                            x       y       z     vdW  Elec       q    Type
REMARK                         _______ _______ _______ _____ _____    ______ ____
ROOT
ATOM      1  C   UNL     1       1.077  -8.366   2.222  0.00  0.00    +0.222 C 
ATOM      2  O   UNL     1       0.923  -8.875   3.312  0.00  0.00    -0.275 OA
ATOM      3  N   UNL     1       1.211  -9.142   1.129  0.00  0.00    -0.285 N 
ATOM      4  H   UNL     1       1.409  -8.739   0.269  0.00  0.00    +0.155 HD
ENDROOT
BRANCH   1  11
ATOM      5  C   UNL     1       0.001  -4.255  -0.009  0.00  0.00    +0.247 C 
ATOM      6  O   UNL     1       0.083  -3.042  -0.004  0.00  0.00    -0.270 OA
ATOM      7  N   UNL     1      -0.042  -4.932   1.156  0.00  0.00    -0.297 N 
ATOM      8  C   UNL     1      -0.117  -4.214   2.436  0.00  0.00    +0.108 C 
ATOM      9  C   UNL     1       1.018  -4.703   3.342  0.00  0.00    +0.020 C 
ATOM     10  C   UNL     1       0.943  -6.226   3.470  0.00  0.00    +0.016 C 
ATOM     11  C   UNL     1       1.117  -6.865   2.091  0.00  0.00    +0.093 C 
ATOM     12  C   UNL     1      -0.021  -6.401   1.170  0.00  0.00    +0.120 C 
BRANCH   5  17
ATOM     13  C   UNL     1      -0.201  -7.109  -5.002  0.00  0.00    +0.044 C 
ATOM     14  C   UNL     1      -0.148  -6.362  -3.694  0.00  0.00    -0.050 A 
ATOM     15  C   UNL     1       0.588  -5.194  -3.598  0.00  0.00    +0.004 A 
ATOM     16  C   UNL     1       0.641  -4.505  -2.404  0.00  0.00    +0.013 A 
ATOM     17  C   UNL     1      -0.051  -4.988  -1.292  0.00  0.00    +0.037 A 
ATOM     18  C   UNL     1      -0.791  -6.167  -1.396  0.00  0.00    +0.013 A 
ATOM     19  C   UNL     1      -0.840  -6.843  -2.598  0.00  0.00    +0.004 A 
ENDBRANCH   5  17
ENDBRANCH   1  11
BRANCH   3  20
ATOM     20  C   UNL     1       1.065 -10.531   1.234  0.00  0.00    +0.036 A 
ATOM     21  C   UNL     1       1.452 -11.184   2.397  0.00  0.00    +0.024 A 
ATOM     22  C   UNL     1       1.308 -12.553   2.500  0.00  0.00    +0.017 A 
ATOM     23  C   UNL     1       0.776 -13.278   1.441  0.00  0.00    +0.015 A 
ATOM     24  C   UNL     1       0.389 -12.624   0.278  0.00  0.00    +0.020 A 
ATOM     25  C   UNL     1       0.528 -11.255   0.177  0.00  0.00    -0.028 A 
ATOM     26  C   UNL     1       0.101 -10.545  -1.082  0.00  0.00    +0.046 C 
BRANCH  23  27
ATOM     27  S   UNL     1       0.593 -15.025   1.573  0.00  0.00    -0.063 S 
BRANCH  27  28
ATOM     28  C   UNL     1      -1.070 -15.240   2.113  0.00  0.00    +0.139 A 
ATOM     29  N   UNL     1      -1.684 -16.355   2.451  0.00  0.00    -0.238 NA
ATOM     30  C   UNL     1      -2.946 -16.348   2.839  0.00  0.00    +0.047 A 
ATOM     31  C   UNL     1      -3.574 -15.148   2.872  0.00  0.00    +0.070 A 
ATOM     32  S   UNL     1      -2.259 -14.069   2.331  0.00  0.00    -0.069 S 
ATOM     33  C   UNL     1      -3.657 -17.619   3.227  0.00  0.00    +0.066 C 
ENDBRANCH  27  28
ENDBRANCH  23  27
ENDBRANCH   3  20
TORSDOF 5
