REMARK  Name = ZINC63137602
REMARK  10 active torsions:
REMARK  status: ('A' for Active; 'I' for Inactive)
REMARK    1  A    between atoms: C_1  and  O_2
REMARK    2  A    between atoms: O_2  and  C_3
REMARK    3  A    between atoms: C_6  and  C_9
REMARK    4  A    between atoms: C_9  and  C_10
REMARK    5  A    between atoms: C_10  and  N_11
REMARK    6  A    between atoms: C_31  and  C_33
REMARK    7  A    between atoms: C_36  and  O_41
REMARK    8  A    between atoms: C_37  and  O_39
REMARK    9  A    between atoms: O_39  and  C_40
REMARK   10  A    between atoms: O_41  and  C_42
REMARK                            x       y       z     vdW  Elec       q    Type
REMARK                         _______ _______ _______ _____ _____    ______ ____
ROOT
ATOM      1  N   UNL     1       2.249  -3.470   6.551  0.00  0.00    -0.291 N 
ATOM      2  C   UNL     1       2.341  -4.939   6.640  0.00  0.00    +0.203 C 
ATOM      3  C   UNL     1       3.760  -5.311   7.012  0.00  0.00    +0.234 C 
ATOM      4  O   UNL     1       4.344  -6.218   6.459  0.00  0.00    -0.274 OA
ATOM      5  N   UNL     1       4.357  -4.571   8.004  0.00  0.00    -0.279 N 
ATOM      6  C   UNL     1       3.514  -3.574   8.628  0.00  0.00    +0.167 C 
ATOM      7  C   UNL     1       2.828  -2.757   7.563  0.00  0.00    +0.237 C 
ATOM      8  O   UNL     1       2.789  -1.545   7.603  0.00  0.00    -0.274 OA
ATOM      9  C   UNL     1       4.106  -2.715   9.716  0.00  0.00    +0.065 C 
ATOM     10  C   UNL     1       5.593  -2.932   9.786  0.00  0.00    -0.034 C 
ATOM     11  C   UNL     1       6.607  -2.096   9.961  0.00  0.00    -0.001 A 
ATOM     12  C   UNL     1       6.650  -0.643  10.197  0.00  0.00    +0.010 A 
ATOM     13  C   UNL     1       7.886  -0.093  10.325  0.00  0.00    +0.001 A 
ATOM     14  C   UNL     1       9.070  -0.833  10.243  0.00  0.00    +0.002 A 
ATOM     15  C   UNL     1       9.124  -2.172  10.032  0.00  0.00    +0.026 A 
ATOM     16  C   UNL     1       7.887  -2.864   9.886  0.00  0.00    +0.043 A 
ATOM     17  N   UNL     1       7.648  -4.126   9.689  0.00  0.00    -0.375 N 
ATOM     18  C   UNL     1       6.195  -4.328   9.640  0.00  0.00    +0.131 C 
ATOM     19  C   UNL     1       5.762  -4.840   8.275  0.00  0.00    +0.134 C 
ATOM     20  H   UNL     1       8.319  -4.819   9.590  0.00  0.00    +0.160 HD
ENDROOT
BRANCH  19  21
ATOM     21  C   UNL     1       6.006  -6.324   8.175  0.00  0.00    -0.021 A 
ATOM     22  C   UNL     1       5.070  -7.211   8.674  0.00  0.00    +0.009 A 
ATOM     23  C   UNL     1       5.289  -8.573   8.585  0.00  0.00    +0.050 A 
ATOM     24  C   UNL     1       6.448  -9.052   7.996  0.00  0.00    +0.162 A 
ATOM     25  C   UNL     1       7.390  -8.158   7.494  0.00  0.00    +0.162 A 
ATOM     26  C   UNL     1       7.162  -6.794   7.582  0.00  0.00    +0.055 A 
BRANCH  25  27
ATOM     27  O   UNL     1       8.529  -8.623   6.915  0.00  0.00    -0.491 OA
ATOM     28  C   UNL     1       9.450  -7.648   6.421  0.00  0.00    +0.277 C 
ENDBRANCH  25  27
BRANCH  24  29
ATOM     29  O   UNL     1       6.665 -10.391   7.909  0.00  0.00    -0.491 OA
ATOM     30  C   UNL     1       5.656 -11.249   8.445  0.00  0.00    +0.277 C 
ENDBRANCH  24  29
ENDBRANCH  19  21
BRANCH   1  31
ATOM     31  C   UNL     1       1.577  -2.808   5.431  0.00  0.00    +0.113 C 
BRANCH  31  32
ATOM     32  C   UNL     1       2.587  -2.550   4.310  0.00  0.00    +0.054 C 
BRANCH  32  36
ATOM     33  C   UNL     1       0.626  -0.618   1.042  0.00  0.00    +0.120 A 
ATOM     34  C   UNL     1       1.202   0.138   2.051  0.00  0.00    +0.046 A 
ATOM     35  C   UNL     1       1.835  -0.488   3.107  0.00  0.00    +0.007 A 
ATOM     36  C   UNL     1       1.895  -1.869   3.158  0.00  0.00    -0.046 A 
ATOM     37  C   UNL     1       1.322  -2.625   2.152  0.00  0.00    +0.007 A 
ATOM     38  C   UNL     1       0.682  -2.003   1.098  0.00  0.00    +0.046 A 
BRANCH  33  40
ATOM     39  C   UNL     1      -0.017   1.425   0.010  0.00  0.00    +0.277 C 
ATOM     40  O   UNL     1       0.002  -0.004   0.002  0.00  0.00    -0.495 OA
ENDBRANCH  33  40
ENDBRANCH  32  36
ENDBRANCH  31  32
ENDBRANCH   1  31
TORSDOF 7
