REMARK  Name = ZINC07626675
REMARK  8 active torsions:
REMARK  status: ('A' for Active; 'I' for Inactive)
REMARK    1  A    between atoms: C_1  and  C_2
REMARK    2  A    between atoms: C_2  and  C_4
REMARK    3  A    between atoms: C_2  and  O_13
REMARK    4  A    between atoms: N_9  and  C_10
REMARK    5  A    between atoms: C_10  and  C_11
REMARK    6  A    between atoms: C_10  and  C_12
REMARK    7  A    between atoms: O_13  and  C_14
REMARK    8  A    between atoms: C_14  and  C_16
REMARK                            x       y       z     vdW  Elec       q    Type
REMARK                         _______ _______ _______ _____ _____    ______ ____
ROOT
ATOM      1  C   UNL     1      -0.019   1.526   0.010  0.00  0.00    +0.062 C 
ATOM      2  C   UNL     1       0.002  -0.004   0.002  0.00  0.00    +0.259 C 
ENDROOT
BRANCH   2   3
ATOM      3  C   UNL     1       0.731  -0.503   1.223  0.00  0.00    +0.261 C 
ATOM      4  O   UNL     1       1.774  -1.109   1.101  0.00  0.00    -0.271 OA
ATOM      5  N   UNL     1       0.223  -0.277   2.451  0.00  0.00    -0.237 N 
ATOM      6  C   UNL     1       0.875  -0.723   3.542  0.00  0.00    +0.306 C 
ATOM      7  O   UNL     1       1.921  -1.330   3.420  0.00  0.00    -0.252 OA
ATOM      8  N   UNL     1       0.367  -0.496   4.770  0.00  0.00    -0.297 N 
ATOM      9  H   UNL     1      -0.611   0.208   2.548  0.00  0.00    +0.159 HD
ATOM     10  H   UNL     1      -0.467  -0.011   4.868  0.00  0.00    +0.151 HD
BRANCH   8  11
ATOM     11  C   UNL     1       1.076  -0.981   5.957  0.00  0.00    +0.068 C 
ATOM     12  C   UNL     1       2.139   0.039   6.369  0.00  0.00    +0.027 C 
ATOM     13  C   UNL     1       0.080  -1.171   7.103  0.00  0.00    +0.027 C 
ENDBRANCH   8  11
ENDBRANCH   2   3
BRANCH   2  14
ATOM     14  O   UNL     1       0.671  -0.465  -1.174  0.00  0.00    -0.449 OA
BRANCH  14  15
ATOM     15  C   UNL     1      -0.088  -0.673  -2.267  0.00  0.00    +0.340 C 
ATOM     16  O   UNL     1      -1.284  -0.469  -2.224  0.00  0.00    -0.245 OA
BRANCH  15  17
ATOM     17  C   UNL     1       0.535  -1.149  -3.519  0.00  0.00    +0.059 A 
ATOM     18  C   UNL     1       1.910  -1.391  -3.573  0.00  0.00    +0.015 A 
ATOM     19  C   UNL     1       2.476  -1.833  -4.747  0.00  0.00    +0.005 A 
ATOM     20  C   UNL     1       1.696  -2.042  -5.879  0.00  0.00    -0.044 A 
ATOM     21  C   UNL     1       0.338  -1.810  -5.831  0.00  0.00    -0.043 A 
ATOM     22  C   UNL     1      -0.244  -1.367  -4.653  0.00  0.00    +0.019 A 
ATOM     23  C   UNL     1      -0.565  -2.032  -7.016  0.00  0.00    +0.035 C 
ATOM     24  C   UNL     1       0.248  -2.097  -8.307  0.00  0.00    +0.005 C 
ATOM     25  C   UNL     1       1.384  -3.109  -8.113  0.00  0.00    +0.005 C 
ATOM     26  C   UNL     1       2.391  -2.518  -7.129  0.00  0.00    +0.035 C 
ENDBRANCH  15  17
ENDBRANCH  14  15
ENDBRANCH   2  14
TORSDOF 5
