REMARK  Name = ZINC03285874
REMARK  8 active torsions:
REMARK  status: ('A' for Active; 'I' for Inactive)
REMARK    1  A    between atoms: C_1  and  C_2
REMARK    2  A    between atoms: C_5  and  C_17
REMARK    3  A    between atoms: N_8  and  C_10
REMARK    4  A    between atoms: C_22  and  C_25
REMARK    5  A    between atoms: C_27  and  O_33
REMARK    6  A    between atoms: C_30  and  O_31
REMARK    7  A    between atoms: O_31  and  C_32
REMARK    8  A    between atoms: O_33  and  C_34
REMARK                            x       y       z     vdW  Elec       q    Type
REMARK                         _______ _______ _______ _____ _____    ______ ____
ROOT
ATOM      1  C   UNL     1      -0.016   1.344   0.009  0.00  0.00    +0.256 C 
ATOM      2  O   UNL     1       1.030   1.966   0.003  0.00  0.00    -0.269 OA
ATOM      3  N   UNL     1       0.002  -0.004   0.002  0.00  0.00    -0.260 N 
ATOM      4  C   UNL     1       1.214  -0.682  -0.013  0.00  0.00    +0.165 A 
ATOM      5  N   UNL     1       1.444  -1.982  -0.017  0.00  0.00    -0.224 NA
ATOM      6  C   UNL     1       2.678  -2.462  -0.036  0.00  0.00    +0.084 A 
ATOM      7  C   UNL     1       3.735  -1.594  -0.041  0.00  0.00    +0.077 A 
ATOM      8  S   UNL     1       2.876  -0.026  -0.025  0.00  0.00    -0.060 S 
ATOM      9  H   UNL     1      -0.831  -0.500   0.007  0.00  0.00    +0.157 HD
ENDROOT
BRANCH   1  14
ATOM     10  C   UNL     1      -2.879   6.502   0.050  0.00  0.00    +0.068 C 
ATOM     11  C   UNL     1      -3.530   5.143   0.046  0.00  0.00    +0.069 A 
ATOM     12  C   UNL     1      -2.836   3.889   0.036  0.00  0.00    +0.031 A 
ATOM     13  C   UNL     1      -1.519   3.404   0.033  0.00  0.00    +0.032 A 
ATOM     14  C   UNL     1      -1.295   2.059   0.019  0.00  0.00    +0.077 A 
ATOM     15  S   UNL     1      -2.948   1.387   0.024  0.00  0.00    -0.064 S 
ATOM     16  C   UNL     1      -3.847   2.916   0.036  0.00  0.00    +0.113 A 
ATOM     17  N   UNL     1      -5.044   3.539   0.046  0.00  0.00    -0.225 N 
ATOM     18  N   UNL     1      -4.810   4.920   0.051  0.00  0.00    -0.170 NA
BRANCH  17  19
ATOM     19  C   UNL     1      -6.298   2.915   0.048  0.00  0.00    +0.067 A 
ATOM     20  C   UNL     1      -6.487   1.731  -0.652  0.00  0.00    +0.029 A 
ATOM     21  C   UNL     1      -7.723   1.115  -0.643  0.00  0.00    +0.022 A 
ATOM     22  C   UNL     1      -8.776   1.683   0.053  0.00  0.00    +0.041 A 
ATOM     23  C   UNL     1      -8.592   2.866   0.747  0.00  0.00    +0.022 A 
ATOM     24  C   UNL     1      -7.356   3.483   0.746  0.00  0.00    +0.029 A 
ATOM     25 CL   UNL     1     -10.331   0.910   0.056  0.00  0.00    -0.084 Cl
ENDBRANCH  17  19
ENDBRANCH   1  14
BRANCH   6  26
ATOM     26  C   UNL     1       2.912  -3.926  -0.047  0.00  0.00    +0.046 A 
ATOM     27  C   UNL     1       4.212  -4.426  -0.062  0.00  0.00    +0.059 A 
ATOM     28  C   UNL     1       4.424  -5.795  -0.072  0.00  0.00    +0.121 A 
ATOM     29  C   UNL     1       3.345  -6.667  -0.066  0.00  0.00    +0.049 A 
ATOM     30  C   UNL     1       2.053  -6.176  -0.051  0.00  0.00    +0.050 A 
ATOM     31  C   UNL     1       1.829  -4.809  -0.036  0.00  0.00    +0.129 A 
BRANCH  31  32
ATOM     32  O   UNL     1       0.557  -4.328  -0.015  0.00  0.00    -0.494 OA
ATOM     33  C   UNL     1      -0.500  -5.289  -0.005  0.00  0.00    +0.277 C 
ENDBRANCH  31  32
BRANCH  28  34
ATOM     34  O   UNL     1       5.693  -6.285  -0.086  0.00  0.00    -0.495 OA
ATOM     35  C   UNL     1       5.839  -7.706  -0.095  0.00  0.00    +0.277 C 
ENDBRANCH  28  34
ENDBRANCH   6  26
TORSDOF 5
