REMARK  Name = ZINC33306433
REMARK  12 active torsions:
REMARK  status: ('A' for Active; 'I' for Inactive)
REMARK    1  A    between atoms: C_1  and  C_2
REMARK    2  A    between atoms: C_3  and  N_28
REMARK    3  A    between atoms: C_4  and  C_7
REMARK    4  A    between atoms: C_8  and  C_9
REMARK    5  A    between atoms: C_12  and  S_14
REMARK    6  A    between atoms: S_14  and  N_17
REMARK    7  A    between atoms: N_17  and  C_18
REMARK    8  A    between atoms: C_20  and  O_26
REMARK    9  A    between atoms: C_23  and  O_24
REMARK   10  A    between atoms: O_24  and  C_25
REMARK   11  A    between atoms: O_26  and  C_27
REMARK   12  A    between atoms: C_29  and  C_31
REMARK                            x       y       z     vdW  Elec       q    Type
REMARK                         _______ _______ _______ _____ _____    ______ ____
ROOT
ATOM      1  C   UNL     1       0.864   4.751  -1.867  0.00  0.00    +0.014 A 
ATOM      2  C   UNL     1      -0.431   4.499  -2.295  0.00  0.00    +0.017 A 
ATOM      3  C   UNL     1      -0.717   3.256  -2.807  0.00  0.00    +0.037 A 
ATOM      4  C   UNL     1       0.264   2.318  -2.868  0.00  0.00    +0.146 A 
ATOM      5  S   UNL     1       1.668   3.192  -2.195  0.00  0.00    -0.069 S 
ENDROOT
BRANCH   4   6
ATOM      6  S   UNL     1       0.176   0.663  -3.465  0.00  0.00    +0.079 S 
ATOM      7  O   UNL     1       1.229  -0.053  -2.835  0.00  0.00    -0.149 OA
ATOM      8  O   UNL     1      -1.185   0.265  -3.360  0.00  0.00    -0.149 OA
BRANCH   6   9
ATOM      9  N   UNL     1       0.533   0.705  -5.081  0.00  0.00    -0.212 N 
ATOM     10  H   UNL     1      -0.206   0.358  -5.818  0.00  0.00    +0.174 HD
BRANCH   9  11
ATOM     11  C   UNL     1       1.777   1.183  -5.510  0.00  0.00    +0.093 A 
ATOM     12  C   UNL     1       2.911   0.952  -4.746  0.00  0.00    +0.073 A 
ATOM     13  C   UNL     1       4.143   1.422  -5.176  0.00  0.00    +0.122 A 
ATOM     14  C   UNL     1       4.239   2.131  -6.364  0.00  0.00    +0.049 A 
ATOM     15  C   UNL     1       3.109   2.367  -7.125  0.00  0.00    +0.051 A 
ATOM     16  C   UNL     1       1.877   1.895  -6.703  0.00  0.00    +0.143 A 
BRANCH  16  17
ATOM     17  O   UNL     1       0.765   2.128  -7.452  0.00  0.00    -0.493 OA
ATOM     18  C   UNL     1       0.942   2.866  -8.664  0.00  0.00    +0.277 C 
ENDBRANCH  16  17
BRANCH  13  19
ATOM     19  O   UNL     1       5.256   1.192  -4.430  0.00  0.00    -0.495 OA
ATOM     20  C   UNL     1       6.490   1.710  -4.930  0.00  0.00    +0.277 C 
ENDBRANCH  13  19
ENDBRANCH   9  11
ENDBRANCH   6   9
ENDBRANCH   4   6
BRANCH   1  22
ATOM     21  C   UNL     1       2.728   6.020  -0.937  0.00  0.00    +0.052 C 
ATOM     22  C   UNL     1       1.424   5.976  -1.295  0.00  0.00    +0.019 C 
BRANCH  21  26
ATOM     23  C   UNL     1       5.952   9.386   1.076  0.00  0.00    +0.071 C 
ATOM     24  C   UNL     1       4.702   8.748   0.526  0.00  0.00    +0.102 A 
ATOM     25  C   UNL     1       4.595   7.433   0.043  0.00  0.00    +0.103 A 
ATOM     26  C   UNL     1       3.288   7.243  -0.366  0.00  0.00    +0.182 A 
ATOM     27  O   UNL     1       2.626   8.399  -0.147  0.00  0.00    -0.353 OA
ATOM     28  N   UNL     1       3.537   9.323   0.419  0.00  0.00    -0.081 NA
BRANCH  25  29
ATOM     29  N   UNL     1       5.627   6.485  -0.015  0.00  0.00    -0.281 N 
ATOM     30  C   UNL     1       6.900   6.885  -0.205  0.00  0.00    +0.214 C 
ATOM     31  O   UNL     1       7.144   8.056  -0.410  0.00  0.00    -0.276 OA
ATOM     32  C   UNL     1       8.021   5.879  -0.162  0.00  0.00    +0.109 C 
ATOM     33  H   UNL     1       5.398   5.415   0.095  0.00  0.00    +0.155 HD
ENDBRANCH  25  29
ENDBRANCH  21  26
ENDBRANCH   1  22
TORSDOF 8
