REMARK  Name = ZINC12755022
REMARK  7 active torsions:
REMARK  status: ('A' for Active; 'I' for Inactive)
REMARK    1  A    between atoms: C_3  and  O_28
REMARK    2  A    between atoms: C_4  and  N_15
REMARK    3  A    between atoms: C_6  and  S_7
REMARK    4  A    between atoms: S_7  and  N_10
REMARK    5  A    between atoms: C_16  and  C_18
REMARK    6  A    between atoms: C_18  and  O_19
REMARK    7  A    between atoms: O_19  and  C_20
REMARK                            x       y       z     vdW  Elec       q    Type
REMARK                         _______ _______ _______ _____ _____    ______ ____
ROOT
ATOM      1  C   UNL     1      -0.735   3.147   1.975  0.00  0.00    +0.032 A 
ATOM      2  C   UNL     1      -1.442   3.535   3.098  0.00  0.00    +0.049 A 
ATOM      3  C   UNL     1      -2.358   2.670   3.673  0.00  0.00    +0.138 A 
ATOM      4  C   UNL     1      -2.568   1.411   3.115  0.00  0.00    +0.077 A 
ATOM      5  C   UNL     1      -1.859   1.031   1.985  0.00  0.00    +0.055 A 
ATOM      6  C   UNL     1      -0.946   1.900   1.417  0.00  0.00    +0.107 A 
ENDROOT
BRANCH   4   7
ATOM      7  N   UNL     1      -3.493   0.532   3.693  0.00  0.00    -0.280 N 
ATOM      8  C   UNL     1      -3.364  -0.798   3.511  0.00  0.00    +0.255 C 
ATOM      9  O   UNL     1      -2.393  -1.239   2.933  0.00  0.00    -0.272 OA
ATOM     10  H   UNL     1      -4.227   0.879   4.224  0.00  0.00    +0.155 HD
BRANCH   8  11
ATOM     11  C   UNL     1      -4.425  -1.735   4.026  0.00  0.00    +0.325 C 
BRANCH  11  12
ATOM     12  O   UNL     1      -4.063  -3.082   3.713  0.00  0.00    -0.481 OA
BRANCH  12  13
ATOM     13  C   UNL     1      -4.920  -4.059   4.111  0.00  0.00    +0.141 A 
ATOM     14  C   UNL     1      -6.081  -3.729   4.793  0.00  0.00    +0.067 A 
ATOM     15  C   UNL     1      -6.953  -4.725   5.193  0.00  0.00    +0.045 A 
ATOM     16  C   UNL     1      -6.663  -6.051   4.921  0.00  0.00    +0.021 A 
ATOM     17  C   UNL     1      -5.503  -6.382   4.246  0.00  0.00    +0.025 A 
ATOM     18  C   UNL     1      -4.630  -5.390   3.840  0.00  0.00    +0.083 A 
ATOM     19 CL   UNL     1      -3.174  -5.807   2.992  0.00  0.00    -0.080 Cl
ATOM     20 CL   UNL     1      -8.411  -4.313   6.041  0.00  0.00    -0.083 Cl
ENDBRANCH  12  13
ENDBRANCH  11  12
ENDBRANCH   8  11
ENDBRANCH   4   7
BRANCH   6  21
ATOM     21  S   UNL     1      -0.046   1.414  -0.017  0.00  0.00    +0.061 S 
ATOM     22  O   UNL     1      -0.023  -0.006  -0.021  0.00  0.00    -0.153 OA
ATOM     23  O   UNL     1       1.141   2.196  -0.035  0.00  0.00    -0.153 OA
BRANCH  21  24
ATOM     24  N   UNL     1      -0.936   1.877  -1.335  0.00  0.00    -0.177 NA
ATOM     25  C   UNL     1      -1.951   1.057  -2.013  0.00  0.00    +0.109 C 
ATOM     26  C   UNL     1      -2.496   1.887  -3.194  0.00  0.00    +0.018 C 
ATOM     27  C   UNL     1      -1.352   2.901  -3.461  0.00  0.00    +0.018 C 
ATOM     28  C   UNL     1      -0.839   3.175  -2.025  0.00  0.00    +0.109 C 
ENDBRANCH  21  24
ENDBRANCH   6  21
BRANCH   3  29
ATOM     29  O   UNL     1      -3.050   3.049   4.781  0.00  0.00    -0.505 OA
ATOM     30  H   UNL     1      -2.613   2.825   5.614  0.00  0.00    +0.292 HD
ENDBRANCH   3  29
TORSDOF 7
