REMARK  Name = ZINC39672307
REMARK  7 active torsions:
REMARK  status: ('A' for Active; 'I' for Inactive)
REMARK    1  A    between atoms: C_1  and  C_2
REMARK    2  A    between atoms: C_5  and  C_8
REMARK    3  A    between atoms: C_8  and  C_9
REMARK    4  A    between atoms: C_13  and  C_22
REMARK    5  A    between atoms: N_24  and  C_25
REMARK    6  A    between atoms: C_25  and  C_26
REMARK    7  A    between atoms: N_35  and  C_36
REMARK                            x       y       z     vdW  Elec       q    Type
REMARK                         _______ _______ _______ _____ _____    ______ ____
ROOT
ATOM      1  C   UNL     1       1.187  -4.790   0.073  0.00  0.00    +0.220 C 
ATOM      2  O   UNL     1       2.029  -3.918   0.107  0.00  0.00    -0.275 OA
ATOM      3  N   UNL     1       1.558  -6.084   0.025  0.00  0.00    -0.300 N 
ATOM      4  C   UNL     1       0.683  -7.279  -0.028  0.00  0.00    +0.121 C 
ATOM      5  C   UNL     1       1.393  -8.240  -1.008  0.00  0.00    +0.100 C 
ATOM      6  C   UNL     1       2.870  -7.813  -0.975  0.00  0.00    -0.004 C 
ATOM      7  C   UNL     1       2.935  -6.635   0.007  0.00  0.00    +0.115 C 
ATOM      8  C   UNL     1       3.741  -8.964  -0.480  0.00  0.00    -0.010 C 
ATOM      9  C   UNL     1       5.211  -8.535  -0.512  0.00  0.00    -0.082 C 
ATOM     10  N   UNL     1       5.586  -8.166  -1.882  0.00  0.00    +0.379 N 
ATOM     11  C   UNL     1       4.807  -6.999  -2.317  0.00  0.00    -0.082 C 
ATOM     12  C   UNL     1       3.321  -7.363  -2.362  0.00  0.00    -0.010 C 
ATOM     13  H   UNL     1       6.569  -7.942  -1.911  0.00  0.00    -0.086 HD
ATOM     14  H   UNL     1       5.401  -8.941  -2.500  0.00  0.00    -0.086 HD
ENDROOT
BRANCH   5  15
ATOM     15  C   UNL     1       0.829  -8.082  -2.397  0.00  0.00    +0.218 C 
ATOM     16  O   UNL     1       0.390  -7.010  -2.755  0.00  0.00    -0.275 OA
ATOM     17  N   UNL     1       0.814  -9.133  -3.241  0.00  0.00    -0.311 N 
ATOM     18  H   UNL     1       1.165  -9.991  -2.954  0.00  0.00    +0.149 HD
BRANCH  17  19
ATOM     19  C   UNL     1       0.266  -8.980  -4.591  0.00  0.00    +0.139 C 
BRANCH  19  20
ATOM     20  C   UNL     1       0.366 -10.292  -5.325  0.00  0.00    -0.030 A 
ATOM     21  C   UNL     1       1.499 -10.586  -6.062  0.00  0.00    +0.007 A 
ATOM     22  C   UNL     1       1.590 -11.787  -6.735  0.00  0.00    +0.024 A 
ATOM     23  C   UNL     1       0.543 -12.701  -6.673  0.00  0.00    +0.033 A 
ATOM     24  C   UNL     1      -0.591 -12.407  -5.932  0.00  0.00    -0.026 A 
ATOM     25  C   UNL     1      -0.672 -11.201  -5.257  0.00  0.00    +0.010 A 
ATOM     26  C   UNL     1      -1.739 -13.377  -5.833  0.00  0.00    +0.038 C 
ATOM     27  C   UNL     1      -1.700 -14.373  -6.991  0.00  0.00    +0.024 C 
ATOM     28  C   UNL     1      -0.298 -14.991  -7.067  0.00  0.00    +0.105 C 
ATOM     29  N   UNL     1       0.653 -13.911  -7.367  0.00  0.00    -0.333 N 
ATOM     30  C   UNL     1       1.698 -14.098  -8.376  0.00  0.00    +0.129 C 
ENDBRANCH  19  20
ENDBRANCH  17  19
ENDBRANCH   5  15
BRANCH   1  31
ATOM     31  C   UNL     1      -0.275  -4.425   0.084  0.00  0.00    +0.131 C 
BRANCH  31  36
ATOM     32  C   UNL     1      -0.830   1.323   0.297  0.00  0.00    +0.044 C 
ATOM     33  C   UNL     1      -0.685  -0.176   0.241  0.00  0.00    -0.050 A 
ATOM     34  C   UNL     1      -0.615  -0.819  -0.981  0.00  0.00    +0.003 A 
ATOM     35  C   UNL     1      -0.483  -2.194  -1.032  0.00  0.00    +0.004 A 
ATOM     36  C   UNL     1      -0.419  -2.926   0.139  0.00  0.00    -0.039 A 
ATOM     37  C   UNL     1      -0.487  -2.283   1.361  0.00  0.00    +0.004 A 
ATOM     38  C   UNL     1      -0.616  -0.908   1.412  0.00  0.00    +0.003 A 
ENDBRANCH  31  36
ENDBRANCH   1  31
TORSDOF 5
