REMARK  Name = ZINC36066300
REMARK  14 active torsions:
REMARK  status: ('A' for Active; 'I' for Inactive)
REMARK    1  A    between atoms: C_1  and  C_2
REMARK    2  A    between atoms: C_2  and  C_3
REMARK    3  A    between atoms: C_3  and  C_4
REMARK    4  A    between atoms: C_4  and  N_5
REMARK    5  A    between atoms: N_5  and  C_6
REMARK    6  A    between atoms: N_5  and  C_7
REMARK    7  A    between atoms: C_7  and  C_8
REMARK    8  A    between atoms: C_8  and  N_9
REMARK    9  A    between atoms: C_10  and  C_35
REMARK   10  A    between atoms: C_18  and  C_24
REMARK   11  A    between atoms: N_26  and  C_27
REMARK   12  A    between atoms: C_30  and  O_33
REMARK   13  A    between atoms: O_33  and  C_34
REMARK   14  A    between atoms: N_37  and  C_38
REMARK                            x       y       z     vdW  Elec       q    Type
REMARK                         _______ _______ _______ _____ _____    ______ ____
ROOT
ATOM      1  N   UNL     1       2.550  -6.036   4.143  0.00  0.00    -0.288 N 
ATOM      2  C   UNL     1       1.642  -7.103   4.668  0.00  0.00    +0.198 C 
ATOM      3  C   UNL     1       2.525  -8.312   4.621  0.00  0.00    +0.127 C 
ATOM      4  C   UNL     1       3.616  -8.286   5.675  0.00  0.00    +0.009 C 
ATOM      5  C   UNL     1       4.299  -9.410   5.513  0.00  0.00    +0.004 C 
ATOM      6  C   UNL     1       3.651 -10.098   4.305  0.00  0.00    +0.155 C 
ATOM      7  O   UNL     1       2.231  -9.679   4.459  0.00  0.00    -0.358 OA
ATOM      8  C   UNL     1       4.152  -9.204   3.106  0.00  0.00    +0.123 C 
ATOM      9  C   UNL     1       3.179  -8.029   3.209  0.00  0.00    +0.128 C 
ATOM     10  C   UNL     1       3.523  -6.604   3.356  0.00  0.00    +0.223 C 
ATOM     11  O   UNL     1       4.483  -6.040   2.875  0.00  0.00    -0.275 OA
ENDROOT
BRANCH   8  12
ATOM     12  C   UNL     1       5.580  -8.768   3.315  0.00  0.00    +0.224 C 
ATOM     13  O   UNL     1       5.847  -7.588   3.404  0.00  0.00    -0.275 OA
ATOM     14  N   UNL     1       6.559  -9.690   3.405  0.00  0.00    -0.285 N 
ATOM     15  H   UNL     1       6.337 -10.634   3.411  0.00  0.00    +0.155 HD
BRANCH  14  16
ATOM     16  C   UNL     1       7.897  -9.284   3.488  0.00  0.00    +0.034 A 
ATOM     17  C   UNL     1       8.805 -10.032   4.226  0.00  0.00    +0.027 A 
ATOM     18  C   UNL     1      10.124  -9.632   4.307  0.00  0.00    +0.047 A 
ATOM     19  C   UNL     1      10.542  -8.482   3.654  0.00  0.00    +0.120 A 
ATOM     20  C   UNL     1       9.636  -7.733   2.917  0.00  0.00    +0.047 A 
ATOM     21  C   UNL     1       8.318  -8.136   2.829  0.00  0.00    +0.027 A 
BRANCH  19  22
ATOM     22  O   UNL     1      11.841  -8.088   3.735  0.00  0.00    -0.495 OA
ATOM     23  C   UNL     1      12.202  -6.894   3.037  0.00  0.00    +0.277 C 
ENDBRANCH  19  22
ENDBRANCH  14  16
ENDBRANCH   8  12
BRANCH   2  24
ATOM     24  C   UNL     1       0.441  -7.277   3.774  0.00  0.00    +0.237 C 
ATOM     25  O   UNL     1       0.468  -6.859   2.635  0.00  0.00    -0.274 OA
ATOM     26  N   UNL     1      -0.662  -7.896   4.239  0.00  0.00    -0.311 N 
ATOM     27  H   UNL     1      -0.683  -8.230   5.149  0.00  0.00    +0.149 HD
BRANCH  26  28
ATOM     28  C   UNL     1      -1.829  -8.065   3.369  0.00  0.00    +0.073 C 
ATOM     29  C   UNL     1      -2.692  -6.803   3.425  0.00  0.00    +0.022 C 
ATOM     30  C   UNL     1      -3.911  -6.979   2.517  0.00  0.00    +0.002 C 
ATOM     31  C   UNL     1      -4.732  -8.180   2.992  0.00  0.00    +0.000 C 
ATOM     32  C   UNL     1      -3.868  -9.442   2.937  0.00  0.00    +0.002 C 
ATOM     33  C   UNL     1      -2.649  -9.265   3.845  0.00  0.00    +0.022 C 
ENDBRANCH  26  28
ENDBRANCH   2  24
BRANCH   1  34
ATOM     34  C   UNL     1       2.419  -4.604   4.421  0.00  0.00    +0.090 C 
BRANCH  34  35
ATOM     35  C   UNL     1       1.524  -3.958   3.362  0.00  0.00    -0.060 C 
BRANCH  35  36
ATOM     36  N   UNL     1       1.392  -2.522   3.640  0.00  0.00    +0.379 N 
ATOM     37  C   UNL     1       0.685  -2.333   4.914  0.00  0.00    -0.096 C 
ATOM     38  H   UNL     1       2.309  -2.106   3.700  0.00  0.00    -0.082 HD
BRANCH  36  39
ATOM     39  C   UNL     1       0.632  -1.881   2.559  0.00  0.00    -0.079 C 
BRANCH  39  40
ATOM     40  C   UNL     1       0.602  -0.368   2.784  0.00  0.00    -0.019 C 
BRANCH  40  42
ATOM     41  C   UNL     1      -0.220   1.813   1.884  0.00  0.00    +0.004 C 
ATOM     42  C   UNL     1      -0.189   0.300   1.658  0.00  0.00    -0.005 C 
ENDBRANCH  40  42
ENDBRANCH  39  40
ENDBRANCH  36  39
ENDBRANCH  35  36
ENDBRANCH  34  35
ENDBRANCH   1  34
TORSDOF 11
