REMARK  Name = ZINC50287813
REMARK  7 active torsions:
REMARK  status: ('A' for Active; 'I' for Inactive)
REMARK    1  A    between atoms: C_1  and  C_2
REMARK    2  A    between atoms: C_2  and  C_3
REMARK    3  A    between atoms: C_4  and  C_22
REMARK    4  A    between atoms: C_6  and  C_8
REMARK    5  A    between atoms: C_8  and  C_10
REMARK    6  A    between atoms: C_8  and  N_21
REMARK    7  A    between atoms: N_19  and  C_20
REMARK                            x       y       z     vdW  Elec       q    Type
REMARK                         _______ _______ _______ _____ _____    ______ ____
ROOT
ATOM      1  C   UNL     1       3.379  -1.599  -2.050  0.00  0.00    +0.013 C 
ENDROOT
BRANCH   1   2
ATOM      2  C   UNL     1       3.777  -3.045  -2.203  0.00  0.00    -0.055 A 
ATOM      3  C   UNL     1       3.502  -3.716  -3.381  0.00  0.00    +0.004 A 
ATOM      4  C   UNL     1       3.865  -5.040  -3.519  0.00  0.00    +0.023 A 
ATOM      5  C   UNL     1       4.508  -5.698  -2.476  0.00  0.00    +0.033 A 
ATOM      6  C   UNL     1       4.786  -5.024  -1.298  0.00  0.00    -0.026 A 
ATOM      7  C   UNL     1       4.421  -3.695  -1.168  0.00  0.00    +0.007 A 
ATOM      8  C   UNL     1       5.490  -5.702  -0.151  0.00  0.00    +0.038 C 
ATOM      9  C   UNL     1       5.362  -7.220  -0.267  0.00  0.00    +0.024 C 
ATOM     10  C   UNL     1       5.795  -7.649  -1.675  0.00  0.00    +0.105 C 
ATOM     11  N   UNL     1       4.864  -7.042  -2.635  0.00  0.00    -0.333 N 
ATOM     12  C   UNL     1       4.316  -7.831  -3.741  0.00  0.00    +0.129 C 
ENDBRANCH   1   2
BRANCH   1  16
ATOM     13  C   UNL     1       0.055  -1.207  -0.403  0.00  0.00    +0.051 A 
ATOM     14  C   UNL     1      -0.694  -1.462  -1.506  0.00  0.00    +0.010 A 
ATOM     15  S   UNL     1       0.588  -1.747  -2.716  0.00  0.00    -0.078 S 
ATOM     16  C   UNL     1       1.914  -1.515  -1.706  0.00  0.00    +0.069 A 
ATOM     17  N   UNL     1       1.365  -1.239  -0.550  0.00  0.00    -0.250 NA
ATOM     18  C   UNL     1      -2.192  -1.495  -1.666  0.00  0.00    +0.053 C 
BRANCH  13  20
ATOM     19  C   UNL     1      -0.798   0.615   1.047  0.00  0.00    +0.010 C 
ATOM     20  C   UNL     1      -0.581  -0.895   0.927  0.00  0.00    +0.053 C 
ENDBRANCH  13  20
ENDBRANCH   1  16
BRANCH   1  21
ATOM     21  N   UNL     1       3.627  -0.887  -3.311  0.00  0.00    +0.387 N 
ATOM     22  H   UNL     1       3.361   0.080  -3.209  0.00  0.00    -0.089 HD
ATOM     23  H   UNL     1       4.608  -0.944  -3.542  0.00  0.00    -0.089 HD
ATOM     24  H   UNL     1       3.084  -1.310  -4.049  0.00  0.00    -0.089 HD
ENDBRANCH   1  21
TORSDOF 4
