REMARK  Name = ZINC63376143
REMARK  6 active torsions:
REMARK  status: ('A' for Active; 'I' for Inactive)
REMARK    1  A    between atoms: C_1  and  C_2
REMARK    2  A    between atoms: C_2  and  C_3
REMARK    3  A    between atoms: C_3  and  C_4
REMARK    4  A    between atoms: C_4  and  N_5
REMARK    5  A    between atoms: C_10  and  C_27
REMARK    6  A    between atoms: C_27  and  C_28
REMARK                            x       y       z     vdW  Elec       q    Type
REMARK                         _______ _______ _______ _____ _____    ______ ____
ROOT
ATOM      1  N   UNL     1       1.425  -2.500  -2.470  0.00  0.00    -0.242 N 
ATOM      2  C   UNL     1       0.784  -2.738  -3.621  0.00  0.00    +0.227 C 
ATOM      3  O   UNL     1      -0.406  -2.595  -3.802  0.00  0.00    -0.275 OA
ATOM      4  C   UNL     1       1.776  -3.213  -4.659  0.00  0.00    +0.107 C 
ATOM      5  C   UNL     1       1.498  -4.696  -4.982  0.00  0.00    +0.072 C 
ATOM      6  N   UNL     1       2.834  -5.348  -4.962  0.00  0.00    -0.295 NA
ATOM      7  C   UNL     1       3.538  -4.695  -3.842  0.00  0.00    +0.136 C 
ATOM      8  C   UNL     1       3.128  -3.202  -3.894  0.00  0.00    +0.122 C 
ATOM      9  C   UNL     1       2.743  -2.723  -2.512  0.00  0.00    +0.228 C 
ATOM     10  O   UNL     1       3.510  -2.567  -1.586  0.00  0.00    -0.275 OA
ATOM     11  C   UNL     1       5.027  -4.858  -3.959  0.00  0.00    +0.003 A 
ATOM     12  C   UNL     1       5.947  -4.497  -4.917  0.00  0.00    +0.008 A 
ATOM     13  C   UNL     1       7.287  -4.793  -4.737  0.00  0.00    +0.000 A 
ATOM     14  C   UNL     1       7.698  -5.452  -3.593  0.00  0.00    +0.002 A 
ATOM     15  C   UNL     1       6.779  -5.815  -2.630  0.00  0.00    +0.023 A 
ATOM     16  C   UNL     1       5.429  -5.521  -2.803  0.00  0.00    +0.039 A 
ATOM     17  N   UNL     1       4.326  -5.779  -1.986  0.00  0.00    -0.283 N 
ATOM     18  C   UNL     1       3.177  -5.326  -2.525  0.00  0.00    +0.243 C 
ATOM     19  O   UNL     1       2.068  -5.410  -2.042  0.00  0.00    -0.273 OA
ATOM     20  H   UNL     1       2.750  -6.341  -4.806  0.00  0.00    +0.124 HD
ATOM     21  H   UNL     1       4.380  -6.232  -1.130  0.00  0.00    +0.155 HD
ENDROOT
BRANCH   1  22
ATOM     22  C   UNL     1       0.739  -2.027  -1.265  0.00  0.00    +0.116 C 
BRANCH  22  23
ATOM     23  C   UNL     1       0.718  -0.497  -1.257  0.00  0.00    +0.019 C 
BRANCH  23  25
ATOM     24  C   UNL     1      -0.019   1.526   0.010  0.00  0.00    +0.004 C 
ATOM     25  C   UNL     1       0.002  -0.004   0.002  0.00  0.00    -0.002 C 
ENDBRANCH  23  25
ENDBRANCH  22  23
ENDBRANCH   1  22
BRANCH   5  26
ATOM     26  C   UNL     1       0.859  -4.830  -6.366  0.00  0.00    +0.052 C 
BRANCH  26  27
ATOM     27  C   UNL     1       0.484  -6.269  -6.610  0.00  0.00    -0.040 C 
ATOM     28  C   UNL     1      -0.724  -6.841  -6.401  0.00  0.00    -0.001 A 
ATOM     29  C   UNL     1      -2.000  -6.316  -5.902  0.00  0.00    +0.010 A 
ATOM     30  C   UNL     1      -3.059  -7.151  -5.800  0.00  0.00    +0.001 A 
ATOM     31  C   UNL     1      -2.967  -8.504  -6.157  0.00  0.00    +0.002 A 
ATOM     32  C   UNL     1      -1.829  -9.059  -6.624  0.00  0.00    +0.026 A 
ATOM     33  C   UNL     1      -0.653  -8.272  -6.772  0.00  0.00    +0.043 A 
ATOM     34  N   UNL     1       0.551  -8.573  -7.194  0.00  0.00    -0.380 N 
ATOM     35  C   UNL     1       1.380  -7.364  -7.144  0.00  0.00    +0.144 C 
ATOM     36  H   UNL     1       0.844  -9.448  -7.494  0.00  0.00    +0.160 HD
ENDBRANCH  26  27
ENDBRANCH   5  26
TORSDOF 5
