REMARK  Name = ZINC38546469
REMARK  10 active torsions:
REMARK  status: ('A' for Active; 'I' for Inactive)
REMARK    1  A    between atoms: C_1  and  C_2
REMARK    2  A    between atoms: C_2  and  C_3
REMARK    3  A    between atoms: C_5  and  C_16
REMARK    4  A    between atoms: C_6  and  N_8
REMARK    5  A    between atoms: C_9  and  C_11
REMARK    6  A    between atoms: C_16  and  C_18
REMARK    7  A    between atoms: C_16  and  N_28
REMARK    8  A    between atoms: C_21  and  O_24
REMARK    9  A    between atoms: O_24  and  C_25
REMARK   10  A    between atoms: N_31  and  C_34
REMARK                            x       y       z     vdW  Elec       q    Type
REMARK                         _______ _______ _______ _____ _____    ______ ____
ROOT
ATOM      1  C   UNL     1       0.584  -1.599   4.804  0.00  0.00    +0.119 C 
ENDROOT
BRANCH   1   2
ATOM      2  N   UNL     1      -0.718  -0.953   5.016  0.00  0.00    -0.295 NA
ATOM      3  C   UNL     1      -0.623   0.501   4.823  0.00  0.00    +0.067 C 
ATOM      4  C   UNL     1      -2.009   1.127   4.993  0.00  0.00    -0.064 C 
ATOM      5  N   UNL     1      -2.520   0.827   6.337  0.00  0.00    +0.379 N 
ATOM      6  C   UNL     1      -2.633  -0.628   6.506  0.00  0.00    -0.064 C 
ATOM      7  C   UNL     1      -1.252  -1.269   6.348  0.00  0.00    +0.067 C 
ATOM      8  C   UNL     1      -3.842   1.443   6.507  0.00  0.00    -0.096 C 
ATOM      9  H   UNL     1      -1.885   1.197   7.029  0.00  0.00    -0.082 HD
ENDBRANCH   1   2
BRANCH   1  10
ATOM     10  C   UNL     1       0.429  -3.093   4.920  0.00  0.00    -0.026 A 
ATOM     11  C   UNL     1      -0.681  -3.716   4.379  0.00  0.00    +0.009 A 
ATOM     12  C   UNL     1      -0.826  -5.085   4.485  0.00  0.00    +0.046 A 
ATOM     13  C   UNL     1       0.143  -5.836   5.135  0.00  0.00    +0.127 A 
ATOM     14  C   UNL     1       1.256  -5.209   5.676  0.00  0.00    +0.046 A 
ATOM     15  C   UNL     1       1.399  -3.840   5.563  0.00  0.00    +0.009 A 
BRANCH  13  16
ATOM     16  O   UNL     1       0.003  -7.184   5.240  0.00  0.00    -0.434 OA
BRANCH  16  17
ATOM     17  C   UNL     1       1.039  -7.893   5.923  0.00  0.00    +0.541 C 
ATOM     18  F   UNL     1       2.255  -7.692   5.260  0.00  0.00    -0.166 F 
ATOM     19  F   UNL     1       1.141  -7.421   7.236  0.00  0.00    -0.166 F 
ENDBRANCH  16  17
ENDBRANCH  13  16
ENDBRANCH   1  10
BRANCH   1  22
ATOM     20  C   UNL     1       0.731  -0.503   1.223  0.00  0.00    -0.008 A 
ATOM     21  C   UNL     1       0.235  -0.806   2.447  0.00  0.00    +0.018 A 
ATOM     22  C   UNL     1       1.099  -1.253   3.430  0.00  0.00    +0.003 A 
ATOM     23  C   UNL     1       2.423  -1.374   3.135  0.00  0.00    +0.077 A 
ATOM     24  S   UNL     1       2.469  -0.856   1.427  0.00  0.00    -0.078 S 
BRANCH  23  25
ATOM     25  N   UNL     1       3.472  -1.799   3.953  0.00  0.00    -0.273 N 
ATOM     26  C   UNL     1       4.728  -1.849   3.468  0.00  0.00    +0.284 C 
ATOM     27  O   UNL     1       4.949  -1.525   2.316  0.00  0.00    -0.266 OA
ATOM     28  H   UNL     1       3.296  -2.058   4.872  0.00  0.00    +0.156 HD
BRANCH  26  29
ATOM     29  C   UNL     1       5.829  -2.296   4.327  0.00  0.00    +0.189 A 
ATOM     30  C   UNL     1       7.142  -2.389   3.966  0.00  0.00    +0.054 A 
ATOM     31  C   UNL     1       7.839  -2.854   5.092  0.00  0.00    +0.042 A 
ATOM     32  C   UNL     1       6.932  -3.023   6.079  0.00  0.00    +0.196 A 
ATOM     33  O   UNL     1       5.722  -2.681   5.616  0.00  0.00    -0.458 OA
ENDBRANCH  26  29
ENDBRANCH  23  25
BRANCH  20  35
ATOM     34  C   UNL     1      -0.019   1.526   0.010  0.00  0.00    +0.009 C 
ATOM     35  C   UNL     1       0.002  -0.004   0.002  0.00  0.00    +0.039 C 
ENDBRANCH  20  35
ENDBRANCH   1  22
TORSDOF 8
