REMARK  Name = ZINC18152745
REMARK  8 active torsions:
REMARK  status: ('A' for Active; 'I' for Inactive)
REMARK    1  A    between atoms: C_1  and  C_2
REMARK    2  A    between atoms: C_2  and  C_3
REMARK    3  A    between atoms: C_2  and  C_4
REMARK    4  A    between atoms: C_2  and  C_5
REMARK    5  A    between atoms: C_7  and  C_11
REMARK    6  A    between atoms: N_13  and  N_14
REMARK    7  A    between atoms: N_22  and  C_25
REMARK    8  A    between atoms: C_25  and  C_26
REMARK                            x       y       z     vdW  Elec       q    Type
REMARK                         _______ _______ _______ _____ _____    ______ ____
ROOT
ATOM      1  N   UNL     1       4.760  -1.954  -5.331  0.00  0.00    -0.174 NA
ATOM      2  C   UNL     1       4.769  -2.480  -6.532  0.00  0.00    +0.153 C 
ATOM      3  C   UNL     1       5.947  -2.764  -7.384  0.00  0.00    +0.028 A 
ATOM      4  C   UNL     1       7.314  -2.581  -7.209  0.00  0.00    +0.012 A 
ATOM      5  C   UNL     1       8.188  -2.954  -8.211  0.00  0.00    +0.001 A 
ATOM      6  C   UNL     1       7.704  -3.506  -9.385  0.00  0.00    +0.002 A 
ATOM      7  C   UNL     1       6.348  -3.691  -9.568  0.00  0.00    +0.024 A 
ATOM      8  C   UNL     1       5.452  -3.322  -8.569  0.00  0.00    +0.046 A 
ATOM      9  N   UNL     1       4.066  -3.398  -8.499  0.00  0.00    -0.261 N 
ATOM     10  C   UNL     1       3.607  -2.926  -7.327  0.00  0.00    +0.272 C 
ATOM     11  O   UNL     1       2.441  -2.873  -6.983  0.00  0.00    -0.268 OA
ENDROOT
BRANCH   1  14
ATOM     12  C   UNL     1       3.536  -1.218  -3.426  0.00  0.00    +0.281 C 
ATOM     13  O   UNL     1       4.582  -0.898  -2.894  0.00  0.00    -0.267 OA
ATOM     14  N   UNL     1       3.545  -1.759  -4.660  0.00  0.00    -0.201 N 
ATOM     15  H   UNL     1       2.711  -2.014  -5.084  0.00  0.00    +0.178 HD
BRANCH  12  18
ATOM     16  C   UNL     1       0.707  -0.490  -1.238  0.00  0.00    +0.069 A 
ATOM     17  C   UNL     1       2.086  -0.474  -1.459  0.00  0.00    +0.058 A 
ATOM     18  C   UNL     1       2.261  -1.014  -2.722  0.00  0.00    +0.122 A 
ATOM     19  N   UNL     1       1.012  -1.319  -3.183  0.00  0.00    -0.272 N 
ATOM     20  H   UNL     1       0.816  -1.715  -4.047  0.00  0.00    +0.189 HD
ATOM     21  N   UNL     1       0.137  -1.007  -2.296  0.00  0.00    -0.178 NA
BRANCH  16  23
ATOM     22  C   UNL     1      -0.019   1.526   0.010  0.00  0.00    +0.017 C 
ATOM     23  C   UNL     1       0.002  -0.004   0.002  0.00  0.00    +0.006 C 
ATOM     24  C   UNL     1       0.742  -0.511   1.242  0.00  0.00    +0.017 C 
ATOM     25  C   UNL     1      -1.433  -0.534   0.013  0.00  0.00    +0.017 C 
ENDBRANCH  16  23
ENDBRANCH  12  18
ENDBRANCH   1  14
BRANCH   9  26
ATOM     26  C   UNL     1       3.213  -3.931  -9.564  0.00  0.00    +0.149 C 
BRANCH  26  27
ATOM     27  C   UNL     1       3.021  -5.412  -9.360  0.00  0.00    -0.030 A 
ATOM     28  C   UNL     1       3.905  -6.308  -9.930  0.00  0.00    +0.005 A 
ATOM     29  C   UNL     1       3.729  -7.667  -9.743  0.00  0.00    +0.000 A 
ATOM     30  C   UNL     1       2.668  -8.128  -8.986  0.00  0.00    +0.000 A 
ATOM     31  C   UNL     1       1.784  -7.231  -8.416  0.00  0.00    +0.000 A 
ATOM     32  C   UNL     1       1.962  -5.873  -8.600  0.00  0.00    +0.005 A 
ENDBRANCH  26  27
ENDBRANCH   9  26
TORSDOF 5
