REMARK  Name = ZINC36753252
REMARK  1 active torsions:
REMARK  status: ('A' for Active; 'I' for Inactive)
REMARK    1  A    between atoms: C_2  and  C_12
REMARK                            x       y       z     vdW  Elec       q    Type
REMARK                         _______ _______ _______ _____ _____    ______ ____
ROOT
ATOM      1  C   UNL     1      -0.017   1.380   0.010  0.00  0.00    +0.061 A 
ATOM      2  C   UNL     1       1.181   2.094   0.002  0.00  0.00    +0.025 A 
ATOM      3  C   UNL     1       2.395   1.410  -0.014  0.00  0.00    +0.035 A 
ATOM      4  C   UNL     1       2.409   0.030  -0.023  0.00  0.00    +0.087 A 
ATOM      5  C   UNL     1       1.217  -0.682  -0.017  0.00  0.00    +0.180 A 
ATOM      6  C   UNL     1       0.002  -0.004   0.002  0.00  0.00    +0.164 A 
ATOM      7  O   UNL     1      -1.176  -0.686   0.017  0.00  0.00    -0.485 OA
ATOM      8  C   UNL     1      -1.127  -2.064  -0.367  0.00  0.00    +0.270 C 
ATOM      9  C   UNL     1       0.055  -2.723   0.358  0.00  0.00    +0.270 C 
ATOM     10  O   UNL     1       1.254  -2.043  -0.030  0.00  0.00    -0.483 OA
ATOM     11 CL   UNL     1       3.923  -0.819  -0.043  0.00  0.00    -0.080 Cl
ENDROOT
BRANCH   2  12
ATOM     12  C   UNL     1       1.162   3.577   0.010  0.00  0.00    +0.171 A 
ATOM     13  N   UNL     1       2.286   4.273  -0.002  0.00  0.00    -0.204 NA
ATOM     14  C   UNL     1       2.191   5.591   0.006  0.00  0.00    +0.176 A 
ATOM     15  S   UNL     1       0.530   5.841   0.030  0.00  0.00    +0.049 S 
ATOM     16  N   UNL     1       0.026   4.243   0.024  0.00  0.00    -0.187 NA
ATOM     17  N   UNL     1       3.206   6.530  -0.003  0.00  0.00    -0.336 N 
ATOM     18  H   UNL     1       4.132   6.243  -0.017  0.00  0.00    +0.144 HD
ATOM     19  H   UNL     1       2.991   7.476   0.004  0.00  0.00    +0.144 HD
ENDBRANCH   2  12
TORSDOF 1
