REMARK  Name = ZINC33512859
REMARK  7 active torsions:
REMARK  status: ('A' for Active; 'I' for Inactive)
REMARK    1  A    between atoms: C_1  and  C_2
REMARK    2  A    between atoms: C_2  and  C_3
REMARK    3  A    between atoms: C_3  and  C_4
REMARK    4  A    between atoms: C_4  and  C_6
REMARK    5  A    between atoms: C_4  and  N_16
REMARK    6  A    between atoms: N_8  and  C_9
REMARK    7  A    between atoms: C_14  and  N_15
REMARK                            x       y       z     vdW  Elec       q    Type
REMARK                         _______ _______ _______ _____ _____    ______ ____
ROOT
ATOM      1  C   UNL     1       1.548  -2.507  -2.443  0.00  0.00    +0.240 C 
ATOM      2  O   UNL     1       1.033  -3.210  -3.287  0.00  0.00    -0.273 OA
ATOM      3  N   UNL     1       2.848  -2.168  -2.550  0.00  0.00    -0.282 N 
ATOM      4  H   UNL     1       3.296  -1.472  -1.826  0.00  0.00    +0.155 HD
ENDROOT
BRANCH   3   5
ATOM      5  C   UNL     1       3.629  -2.703  -3.584  0.00  0.00    +0.054 A 
ATOM      6  C   UNL     1       3.065  -2.947  -4.827  0.00  0.00    +0.025 A 
ATOM      7  C   UNL     1       3.838  -3.469  -5.846  0.00  0.00    +0.002 A 
ATOM      8  C   UNL     1       5.172  -3.761  -5.628  0.00  0.00    +0.002 A 
ATOM      9  C   UNL     1       5.742  -3.527  -4.390  0.00  0.00    +0.024 A 
ATOM     10  C   UNL     1       4.974  -2.998  -3.363  0.00  0.00    +0.046 A 
BRANCH  10  11
ATOM     11  N   UNL     1       5.548  -2.761  -2.109  0.00  0.00    -0.357 N 
ATOM     12  H   UNL     1       6.609  -2.994  -1.937  0.00  0.00    +0.142 HD
ATOM     13  H   UNL     1       4.938  -2.341  -1.296  0.00  0.00    +0.142 HD
ENDBRANCH  10  11
ENDBRANCH   3   5
BRANCH   1  14
ATOM     14  C   UNL     1       0.734  -2.013  -1.275  0.00  0.00    +0.176 C 
BRANCH  14  15
ATOM     15  N   UNL     1      -0.638  -2.516  -1.388  0.00  0.00    -0.302 N 
ATOM     16  C   UNL     1      -1.148  -3.301  -0.405  0.00  0.00    +0.110 A 
ATOM     17  C   UNL     1      -2.413  -3.777  -0.487  0.00  0.00    +0.057 A 
ATOM     18  C   UNL     1      -3.210  -3.459  -1.597  0.00  0.00    +0.027 A 
ATOM     19  C   UNL     1      -2.695  -2.670  -2.583  0.00  0.00    +0.072 A 
ATOM     20  C   UNL     1      -1.380  -2.189  -2.464  0.00  0.00    +0.252 A 
ATOM     21  O   UNL     1      -0.908  -1.478  -3.337  0.00  0.00    -0.268 OA
ATOM     22 CL   UNL     1      -3.049  -4.780   0.779  0.00  0.00    -0.082 Cl
ENDBRANCH  14  15
BRANCH  14  23
ATOM     23  C   UNL     1       0.718  -0.483  -1.276  0.00  0.00    +0.034 C 
BRANCH  23  25
ATOM     24  C   UNL     1      -0.018   1.550  -0.024  0.00  0.00    +0.004 C 
ATOM     25  C   UNL     1      -0.002   0.020  -0.023  0.00  0.00    -0.001 C 
ENDBRANCH  23  25
ENDBRANCH  14  23
ENDBRANCH   1  14
TORSDOF 6
