REMARK  Name = ZINC02586465
REMARK  4 active torsions:
REMARK  status: ('A' for Active; 'I' for Inactive)
REMARK    1  A    between atoms: C_2  and  C_3
REMARK    2  A    between atoms: C_3  and  O_4
REMARK    3  A    between atoms: O_4  and  C_5
REMARK    4  A    between atoms: N_18  and  C_19
REMARK                            x       y       z     vdW  Elec       q    Type
REMARK                         _______ _______ _______ _____ _____    ______ ____
ROOT
ATOM      1  C   UNL     1      -0.033  -4.764  -0.517  0.00  0.00    +0.307 A 
ATOM      2  N   UNL     1      -0.940  -3.824  -0.310  0.00  0.00    -0.189 NA
ATOM      3  C   UNL     1      -0.503  -2.627   0.066  0.00  0.00    +0.119 A 
ATOM      4  C   UNL     1       0.862  -2.309   0.252  0.00  0.00    +0.076 A 
ATOM      5  C   UNL     1       1.150  -0.945   0.665  0.00  0.00    -0.023 A 
ATOM      6  C   UNL     1       0.088  -0.123   0.828  0.00  0.00    -0.004 A 
ATOM      7  S   UNL     1      -1.332  -1.116   0.443  0.00  0.00    -0.073 S 
ATOM      8  C   UNL     1       0.110   1.315   1.244  0.00  0.00    +0.043 C 
ATOM      9  C   UNL     1       1.497   1.634   1.820  0.00  0.00    +0.005 C 
ATOM     10  C   UNL     1       2.562   1.091   0.863  0.00  0.00    +0.005 C 
ATOM     11  C   UNL     1       2.568  -0.437   0.908  0.00  0.00    +0.037 C 
ATOM     12  C   UNL     1       1.815  -3.353   0.018  0.00  0.00    +0.270 A 
ATOM     13  O   UNL     1       3.014  -3.177   0.153  0.00  0.00    -0.266 OA
ATOM     14  N   UNL     1       1.302  -4.546  -0.362  0.00  0.00    -0.230 N 
ENDROOT
BRANCH  14  15
ATOM     15  C   UNL     1       2.185  -5.607  -0.607  0.00  0.00    +0.054 A 
ATOM     16  C   UNL     1       2.545  -6.464   0.424  0.00  0.00    +0.026 A 
ATOM     17  C   UNL     1       3.410  -7.512   0.179  0.00  0.00    +0.002 A 
ATOM     18  C   UNL     1       3.928  -7.700  -1.090  0.00  0.00    +0.000 A 
ATOM     19  C   UNL     1       3.575  -6.845  -2.117  0.00  0.00    +0.002 A 
ATOM     20  C   UNL     1       2.705  -5.799  -1.879  0.00  0.00    +0.026 A 
ENDBRANCH  14  15
BRANCH   1  21
ATOM     21  O   UNL     1      -0.448  -5.990  -0.900  0.00  0.00    -0.450 OA
BRANCH  21  22
ATOM     22  C   UNL     1      -1.856  -6.180  -1.052  0.00  0.00    +0.320 C 
BRANCH  22  24
ATOM     23  C   UNL     1      -2.334  -8.672  -1.803  0.00  0.00    +0.007 C 
ATOM     24  C   UNL     1      -2.122  -7.566  -1.470  0.00  0.00    -0.065 C 
ENDBRANCH  22  24
ENDBRANCH  21  22
ENDBRANCH   1  21
TORSDOF 4
