REMARK  Name = ZINC02368583
REMARK  3 active torsions:
REMARK  status: ('A' for Active; 'I' for Inactive)
REMARK    1  A    between atoms: C_7  and  N_12
REMARK    2  A    between atoms: C_13  and  C_19
REMARK    3  A    between atoms: N_21  and  C_22
REMARK                            x       y       z     vdW  Elec       q    Type
REMARK                         _______ _______ _______ _____ _____    ______ ____
ROOT
ATOM      1  N   UNL     1       0.174   0.187   0.009  0.00  0.00    -0.251 N 
ATOM      2  C   UNL     1       1.107  -0.911  -0.272  0.00  0.00    +0.166 C 
ATOM      3  C   UNL     1       0.369  -2.198   0.165  0.00  0.00    +0.041 C 
ATOM      4  C   UNL     1      -1.111  -1.773   0.025  0.00  0.00    +0.098 C 
ATOM      5  C   UNL     1      -1.080  -0.268   0.171  0.00  0.00    +0.219 C 
ATOM      6  O   UNL     1      -2.047   0.428   0.401  0.00  0.00    -0.275 OA
ENDROOT
BRANCH   1  13
ATOM      7  C   UNL     1       0.515   2.409   3.868  0.00  0.00    +0.000 A 
ATOM      8  C   UNL     1       1.835   2.816   3.961  0.00  0.00    +0.001 A 
ATOM      9  C   UNL     1       2.646   2.810   2.845  0.00  0.00    +0.015 A 
ATOM     10  C   UNL     1       2.132   2.391   1.616  0.00  0.00    +0.067 A 
ATOM     11  C   UNL     1       0.798   1.982   1.534  0.00  0.00    +0.025 A 
ATOM     12  C   UNL     1      -0.002   1.992   2.653  0.00  0.00    +0.010 A 
ATOM     13  C   UNL     1       0.561   1.597   0.095  0.00  0.00    +0.301 C 
ATOM     14  O   UNL     1       1.818   1.814  -0.602  0.00  0.00    -0.435 OA
ATOM     15  C   UNL     1       2.729   2.272   0.274  0.00  0.00    +0.342 C 
ATOM     16  O   UNL     1       3.880   2.549  -0.002  0.00  0.00    -0.245 OA
ENDBRANCH   1  13
BRANCH   2  17
ATOM     17  C   UNL     1       1.424  -0.962  -1.745  0.00  0.00    +0.238 C 
ATOM     18  O   UNL     1       0.699  -0.403  -2.541  0.00  0.00    -0.273 OA
ATOM     19  N   UNL     1       2.513  -1.628  -2.177  0.00  0.00    -0.283 N 
ATOM     20  H   UNL     1       3.051  -2.137  -1.550  0.00  0.00    +0.155 HD
BRANCH  19  21
ATOM     21  C   UNL     1       2.868  -1.586  -3.530  0.00  0.00    +0.053 A 
ATOM     22  C   UNL     1       1.892  -1.400  -4.500  0.00  0.00    +0.044 A 
ATOM     23  C   UNL     1       2.246  -1.358  -5.835  0.00  0.00    +0.043 A 
ATOM     24  C   UNL     1       3.571  -1.502  -6.206  0.00  0.00    +0.021 A 
ATOM     25  C   UNL     1       4.546  -1.687  -5.243  0.00  0.00    +0.023 A 
ATOM     26  C   UNL     1       4.199  -1.724  -3.906  0.00  0.00    +0.062 A 
ATOM     27 CL   UNL     1       5.424  -1.950  -2.696  0.00  0.00    -0.082 Cl
ATOM     28 CL   UNL     1       1.026  -1.126  -7.049  0.00  0.00    -0.083 Cl
ENDBRANCH  19  21
ENDBRANCH   2  17
TORSDOF 3
