REMARK  Name = ZINC34868901
REMARK  14 active torsions:
REMARK  status: ('A' for Active; 'I' for Inactive)
REMARK    1  A    between atoms: C_1  and  C_2
REMARK    2  A    between atoms: C_2  and  C_3
REMARK    3  A    between atoms: C_3  and  C_4
REMARK    4  A    between atoms: C_4  and  N_5
REMARK    5  A    between atoms: C_13  and  C_15
REMARK    6  A    between atoms: C_16  and  C_18
REMARK    7  A    between atoms: C_18  and  C_20
REMARK    8  A    between atoms: C_18  and  N_25
REMARK    9  A    between atoms: C_20  and  C_22
REMARK   10  A    between atoms: C_20  and  C_23
REMARK   11  A    between atoms: C_23  and  C_24
REMARK   12  A    between atoms: N_25  and  S_26
REMARK   13  A    between atoms: S_26  and  C_29
REMARK   14  A    between atoms: C_33  and  N_35
REMARK                            x       y       z     vdW  Elec       q    Type
REMARK                         _______ _______ _______ _____ _____    ______ ____
ROOT
ATOM      1  C   UNL     1       5.852  -4.554   7.038  0.00  0.00    +0.165 C 
ENDROOT
BRANCH   1  12
ATOM      2  N   UNL     1      -0.132  -5.026   4.186  0.00  0.00    -0.299 N 
ATOM      3  C   UNL     1       0.613  -6.147   4.256  0.00  0.00    +0.303 C 
ATOM      4  O   UNL     1       0.255  -7.152   3.673  0.00  0.00    -0.253 OA
ATOM      5  N   UNL     1       1.755  -6.154   4.971  0.00  0.00    -0.280 N 
ATOM      6  C   UNL     1       2.114  -5.007   5.818  0.00  0.00    +0.128 C 
ATOM      7  C   UNL     1       3.509  -4.515   5.411  0.00  0.00    +0.127 C 
ATOM      8  N   UNL     1       4.417  -5.669   5.359  0.00  0.00    -0.297 N 
ATOM      9  C   UNL     1       4.058  -6.816   4.513  0.00  0.00    +0.130 C 
ATOM     10  C   UNL     1       2.661  -7.310   4.924  0.00  0.00    +0.092 C 
ATOM     11  C   UNL     1       2.149  -8.322   3.897  0.00  0.00    +0.030 C 
ATOM     12  C   UNL     1       5.559  -5.676   6.075  0.00  0.00    +0.235 C 
ATOM     13  O   UNL     1       6.352  -6.585   5.944  0.00  0.00    -0.274 OA
ATOM     14  H   UNL     1       0.113  -4.247   4.710  0.00  0.00    +0.150 HD
BRANCH   2  15
ATOM     15  C   UNL     1      -1.312  -4.984   3.319  0.00  0.00    +0.106 C 
BRANCH  15  16
ATOM     16  C   UNL     1      -1.972  -3.607   3.424  0.00  0.00    +0.018 C 
BRANCH  16  18
ATOM     17  C   UNL     1      -3.865  -2.187   2.623  0.00  0.00    +0.004 C 
ATOM     18  C   UNL     1      -3.205  -3.563   2.518  0.00  0.00    -0.002 C 
ENDBRANCH  16  18
ENDBRANCH  15  16
ENDBRANCH   2  15
ENDBRANCH   1  12
BRANCH   1  19
ATOM     19  C   UNL     1       5.348  -4.934   8.432  0.00  0.00    +0.013 C 
ATOM     20  C   UNL     1       3.822  -5.042   8.410  0.00  0.00    +0.009 C 
BRANCH  19  21
ATOM     21  C   UNL     1       5.948  -6.280   8.842  0.00  0.00    +0.002 C 
ATOM     22  C   UNL     1       5.545  -6.601  10.282  0.00  0.00    +0.004 C 
ENDBRANCH  19  21
ENDBRANCH   1  19
BRANCH   1  23
ATOM     23  N   UNL     1       7.297  -4.318   7.089  0.00  0.00    -0.178 NA
ATOM     24  H   UNL     1       7.913  -5.063   7.007  0.00  0.00    +0.149 HD
BRANCH  23  25
ATOM     25  S   UNL     1       7.878  -2.780   7.286  0.00  0.00    +0.059 S 
ATOM     26  O   UNL     1       9.295  -2.884   7.322  0.00  0.00    -0.153 OA
ATOM     27  O   UNL     1       7.198  -1.965   6.342  0.00  0.00    -0.153 OA
BRANCH  25  28
ATOM     28  C   UNL     1       7.372  -2.233   8.882  0.00  0.00    +0.108 A 
ATOM     29  C   UNL     1       6.163  -1.581   9.038  0.00  0.00    +0.030 A 
ATOM     30  C   UNL     1       5.765  -1.152  10.290  0.00  0.00    +0.024 A 
ATOM     31  C   UNL     1       6.578  -1.374  11.388  0.00  0.00    +0.071 A 
ATOM     32  C   UNL     1       7.788  -2.026  11.231  0.00  0.00    +0.146 A 
ATOM     33  C   UNL     1       8.182  -2.460   9.979  0.00  0.00    +0.062 A 
ATOM     34 CL   UNL     1       6.079  -0.835  12.960  0.00  0.00    -0.081 Cl
BRANCH  32  35
ATOM     35  N   UNL     1       8.658  -2.264  12.405  0.00  0.00    +0.058 N 
ATOM     36  O   UNL     1       9.715  -2.834  12.268  0.00  0.00    -0.126 OA
ATOM     37  O   UNL     1       8.311  -1.889  13.500  0.00  0.00    -0.126 OA
ENDBRANCH  32  35
ENDBRANCH  25  28
ENDBRANCH  23  25
ENDBRANCH   1  23
TORSDOF 10
