REMARK  Name = ZINC08821766
REMARK  7 active torsions:
REMARK  status: ('A' for Active; 'I' for Inactive)
REMARK    1  A    between atoms: C_1  and  C_2
REMARK    2  A    between atoms: C_2  and  C_3
REMARK    3  A    between atoms: C_6  and  N_9
REMARK    4  A    between atoms: C_15  and  C_16
REMARK    5  A    between atoms: C_19  and  O_22
REMARK    6  A    between atoms: O_22  and  C_23
REMARK    7  A    between atoms: C_23  and  C_24
REMARK                            x       y       z     vdW  Elec       q    Type
REMARK                         _______ _______ _______ _____ _____    ______ ____
ROOT
ATOM      1  N   UNL     1       3.504  -2.644  -3.871  0.00  0.00    -0.226 NA
ATOM      2  C   UNL     1       4.444  -1.905  -4.416  0.00  0.00    +0.166 C 
ATOM      3  N   UNL     1       5.202  -2.171  -5.536  0.00  0.00    -0.260 N 
ATOM      4  C   UNL     1       6.114  -1.310  -5.952  0.00  0.00    +0.256 C 
ATOM      5  O   UNL     1       6.792  -1.529  -6.939  0.00  0.00    -0.269 OA
ATOM      6  C   UNL     1       6.273  -0.071  -5.167  0.00  0.00    +0.078 C 
ATOM      7  C   UNL     1       7.121   0.971  -5.364  0.00  0.00    +0.028 C 
ATOM      8  S   UNL     1       5.044  -0.307  -3.892  0.00  0.00    -0.049 S 
ATOM      9  H   UNL     1       5.065  -2.999  -6.022  0.00  0.00    +0.157 HD
ENDROOT
BRANCH   1  13
ATOM     10  C   UNL     1       1.528  -1.315  -0.486  0.00  0.00    -0.047 A 
ATOM     11  C   UNL     1       0.809  -1.866  -1.532  0.00  0.00    +0.006 A 
ATOM     12  C   UNL     1       1.460  -2.310  -2.663  0.00  0.00    +0.028 A 
ATOM     13  C   UNL     1       2.850  -2.204  -2.752  0.00  0.00    +0.067 A 
ATOM     14  C   UNL     1       3.571  -1.647  -1.692  0.00  0.00    +0.028 A 
ATOM     15  C   UNL     1       2.905  -1.202  -0.569  0.00  0.00    +0.006 A 
BRANCH  10  17
ATOM     16  C   UNL     1       0.422   0.638   0.567  0.00  0.00    +0.009 C 
ATOM     17  C   UNL     1       0.809  -0.832   0.746  0.00  0.00    +0.032 C 
ENDBRANCH  10  17
ENDBRANCH   1  13
BRANCH   7  18
ATOM     18  C   UNL     1       7.223   2.034  -4.356  0.00  0.00    -0.024 A 
ATOM     19  C   UNL     1       6.737   1.824  -3.060  0.00  0.00    +0.011 A 
ATOM     20  C   UNL     1       6.836   2.824  -2.119  0.00  0.00    +0.046 A 
ATOM     21  C   UNL     1       7.418   4.041  -2.454  0.00  0.00    +0.121 A 
ATOM     22  C   UNL     1       7.902   4.256  -3.739  0.00  0.00    +0.046 A 
ATOM     23  C   UNL     1       7.814   3.261  -4.686  0.00  0.00    +0.011 A 
BRANCH  21  24
ATOM     24  O   UNL     1       7.513   5.024  -1.522  0.00  0.00    -0.487 OA
BRANCH  24  25
ATOM     25  C   UNL     1       8.122   6.250  -1.933  0.00  0.00    +0.264 C 
BRANCH  25  26
ATOM     26  C   UNL     1       8.140   7.215  -0.775  0.00  0.00    -0.010 A 
ATOM     27  C   UNL     1       7.075   8.073  -0.575  0.00  0.00    +0.008 A 
ATOM     28  C   UNL     1       7.090   8.958   0.487  0.00  0.00    +0.020 A 
ATOM     29  C   UNL     1       8.172   8.985   1.349  0.00  0.00    +0.041 A 
ATOM     30  C   UNL     1       9.237   8.125   1.149  0.00  0.00    +0.020 A 
ATOM     31  C   UNL     1       9.218   7.237   0.090  0.00  0.00    +0.008 A 
ATOM     32 CL   UNL     1       8.192  10.096   2.683  0.00  0.00    -0.084 Cl
ENDBRANCH  25  26
ENDBRANCH  24  25
ENDBRANCH  21  24
ENDBRANCH   7  18
TORSDOF 6
