REMARK  Name = ZINC41852468
REMARK  7 active torsions:
REMARK  status: ('A' for Active; 'I' for Inactive)
REMARK    1  A    between atoms: C_1  and  C_2
REMARK    2  A    between atoms: C_5  and  C_8
REMARK    3  A    between atoms: C_8  and  C_9
REMARK    4  A    between atoms: C_8  and  C_10
REMARK    5  A    between atoms: C_8  and  N_13
REMARK    6  A    between atoms: C_15  and  C_22
REMARK    7  A    between atoms: C_18  and  C_21
REMARK                            x       y       z     vdW  Elec       q    Type
REMARK                         _______ _______ _______ _____ _____    ______ ____
ROOT
ATOM      1  C   UNL     1       0.059  -4.275  -0.021  0.00  0.00    +0.061 C 
ATOM      2  C   UNL     1       1.247  -4.647  -0.911  0.00  0.00    +0.007 C 
ENDROOT
BRANCH   1   3
ATOM      3  N   UNL     1       0.237  -4.875   1.308  0.00  0.00    +0.394 N 
ATOM      4  C   UNL     1       1.414  -4.284   1.956  0.00  0.00    -0.074 C 
ATOM      5  C   UNL     1       1.556  -4.846   3.372  0.00  0.00    -0.031 C 
ATOM      6  C   UNL     1       1.722  -6.367   3.298  0.00  0.00    +0.003 C 
ATOM      7  C   UNL     1       0.525  -6.965   2.554  0.00  0.00    -0.031 C 
ATOM      8  C   UNL     1       0.420  -6.325   1.168  0.00  0.00    -0.074 C 
ATOM      9  C   UNL     1       0.718  -8.476   2.407  0.00  0.00    +0.005 C 
ATOM     10  C   UNL     1       2.784  -4.230   4.045  0.00  0.00    +0.005 C 
ATOM     11  H   UNL     1      -0.581  -4.693   1.870  0.00  0.00    -0.080 HD
ENDBRANCH   1   3
BRANCH   1  16
ATOM     12  C   UNL     1      -0.249   1.473   0.483  0.00  0.00    +0.044 C 
ATOM     13  C   UNL     1      -0.169  -0.026   0.351  0.00  0.00    -0.050 A 
ATOM     14  C   UNL     1       0.301  -0.593  -0.819  0.00  0.00    +0.003 A 
ATOM     15  C   UNL     1       0.374  -1.968  -0.940  0.00  0.00    +0.003 A 
ATOM     16  C   UNL     1      -0.020  -2.776   0.110  0.00  0.00    -0.047 A 
ATOM     17  C   UNL     1      -0.488  -2.209   1.281  0.00  0.00    +0.003 A 
ATOM     18  C   UNL     1      -0.558  -0.834   1.403  0.00  0.00    +0.003 A 
ENDBRANCH   1  16
BRANCH   1  19
ATOM     19  C   UNL     1      -1.213  -4.793  -0.640  0.00  0.00    +0.350 C 
ATOM     20  O   UNL     1      -1.464  -4.554  -1.810  0.00  0.00    -0.248 OA
ATOM     21  O   UNL     1      -1.992  -5.452   0.028  0.00  0.00    -0.248 OA
ENDBRANCH   1  19
TORSDOF 3
