REMARK  Name = ZINC06980644
REMARK  9 active torsions:
REMARK  status: ('A' for Active; 'I' for Inactive)
REMARK    1  A    between atoms: C_1  and  C_2
REMARK    2  A    between atoms: C_5  and  C_8
REMARK    3  A    between atoms: C_11  and  C_13
REMARK    4  A    between atoms: C_13  and  C_15
REMARK    5  A    between atoms: C_13  and  S_16
REMARK    6  A    between atoms: S_16  and  C_17
REMARK    7  A    between atoms: C_18  and  C_25
REMARK    8  A    between atoms: C_19  and  C_24
REMARK    9  A    between atoms: C_21  and  C_23
REMARK                            x       y       z     vdW  Elec       q    Type
REMARK                         _______ _______ _______ _____ _____    ______ ____
ROOT
ATOM      1  C   UNL     1       0.105  -7.574   1.424  0.00  0.00    +0.137 C 
ATOM      2  C   UNL     1      -1.280  -8.225   1.393  0.00  0.00    +0.029 C 
ENDROOT
BRANCH   1   6
ATOM      3  C   UNL     1       0.059  -4.251  -0.021  0.00  0.00    +0.248 A 
ATOM      4  N   UNL     1       0.070  -5.024  -1.082  0.00  0.00    -0.107 NA
ATOM      5  N   UNL     1       0.087  -6.255  -0.710  0.00  0.00    -0.111 NA
ATOM      6  C   UNL     1       0.087  -6.317   0.592  0.00  0.00    +0.231 A 
ATOM      7  O   UNL     1       0.075  -5.057   1.060  0.00  0.00    -0.419 OA
BRANCH   3  12
ATOM      8  C   UNL     1      -0.018   1.503   0.010  0.00  0.00    +0.044 C 
ATOM      9  C   UNL     1       0.002  -0.004   0.002  0.00  0.00    -0.050 A 
ATOM     10  C   UNL     1       0.006  -0.686  -1.202  0.00  0.00    +0.004 A 
ATOM     11  C   UNL     1       0.024  -2.066  -1.216  0.00  0.00    +0.013 A 
ATOM     12  C   UNL     1       0.040  -2.773  -0.013  0.00  0.00    +0.038 A 
ATOM     13  C   UNL     1       0.036  -2.079   1.198  0.00  0.00    +0.013 A 
ATOM     14  C   UNL     1       0.023  -0.699   1.198  0.00  0.00    +0.004 A 
ENDBRANCH   3  12
ENDBRANCH   1   6
BRANCH   1  15
ATOM     15  S   UNL     1       1.331  -8.728   0.749  0.00  0.00    -0.092 S 
BRANCH  15  16
ATOM     16  C   UNL     1       1.337 -10.063   1.899  0.00  0.00    +0.115 A 
ATOM     17  C   UNL     1       2.192 -11.161   1.692  0.00  0.00    +0.086 A 
ATOM     18  C   UNL     1       2.179 -12.208   2.620  0.00  0.00    -0.029 A 
ATOM     19  C   UNL     1       1.322 -12.118   3.703  0.00  0.00    +0.027 A 
ATOM     20  C   UNL     1       0.510 -11.006   3.838  0.00  0.00    +0.040 A 
ATOM     21  N   UNL     1       0.540 -10.026   2.956  0.00  0.00    -0.244 NA
ATOM     22  C   UNL     1      -0.422 -10.911   5.018  0.00  0.00    +0.065 C 
ATOM     23  C   UNL     1       3.077 -13.406   2.443  0.00  0.00    +0.045 C 
BRANCH  17  24
ATOM     24  C   UNL     1       3.060 -11.205   0.554  0.00  0.00    +0.102 C 
ATOM     25  N   UNL     1       3.748 -11.240  -0.349  0.00  0.00    -0.191 NA
ENDBRANCH  17  24
ENDBRANCH  15  16
ENDBRANCH   1  15
TORSDOF 5
