REMARK  Name = ZINC27467495
REMARK  8 active torsions:
REMARK  status: ('A' for Active; 'I' for Inactive)
REMARK    1  A    between atoms: C_4  and  N_34
REMARK    2  A    between atoms: C_5  and  C_7
REMARK    3  A    between atoms: N_9  and  C_10
REMARK    4  A    between atoms: C_10  and  C_11
REMARK    5  A    between atoms: C_18  and  C_21
REMARK    6  A    between atoms: C_21  and  N_22
REMARK    7  A    between atoms: C_23  and  C_25
REMARK    8  A    between atoms: C_30  and  N_31
REMARK                            x       y       z     vdW  Elec       q    Type
REMARK                         _______ _______ _______ _____ _____    ______ ____
ROOT
ATOM      1  C   UNL     1      -8.555  -0.773   0.364  0.00  0.00    -0.013 C 
ATOM      2  C   UNL     1      -8.773  -1.739  -0.802  0.00  0.00    +0.012 C 
ATOM      3  C   UNL     1      -7.515  -2.586  -1.005  0.00  0.00    -0.010 C 
ATOM      4  C   UNL     1      -7.225  -3.382   0.269  0.00  0.00    +0.007 C 
ATOM      5  C   UNL     1      -7.008  -2.416   1.436  0.00  0.00    -0.010 C 
ATOM      6  C   UNL     1      -8.266  -1.569   1.638  0.00  0.00    +0.012 C 
ATOM      7  C   UNL     1      -5.821  -1.501   1.126  0.00  0.00    +0.012 C 
ATOM      8  C   UNL     1      -6.111  -0.705  -0.148  0.00  0.00    -0.013 C 
ATOM      9  C   UNL     1      -6.328  -1.671  -1.315  0.00  0.00    +0.012 C 
ATOM     10  C   UNL     1      -7.369   0.142   0.054  0.00  0.00    +0.017 C 
ENDROOT
BRANCH   1  11
ATOM     11  C   UNL     1      -9.813   0.074   0.567  0.00  0.00    +0.111 C 
BRANCH  11  14
ATOM     12  C   UNL     1     -12.169  -0.273   1.080  0.00  0.00    +0.246 C 
ATOM     13  O   UNL     1     -12.328   0.931   1.030  0.00  0.00    -0.270 OA
ATOM     14  N   UNL     1     -10.949  -0.802   0.864  0.00  0.00    -0.311 N 
ATOM     15  H   UNL     1     -10.806  -1.892   0.910  0.00  0.00    +0.149 HD
BRANCH  12  20
ATOM     16  C   UNL     1     -14.187  -3.343   1.861  0.00  0.00    +0.001 A 
ATOM     17  C   UNL     1     -15.463  -2.814   1.940  0.00  0.00    +0.002 A 
ATOM     18  C   UNL     1     -15.671  -1.461   1.741  0.00  0.00    +0.033 A 
ATOM     19  C   UNL     1     -14.605  -0.630   1.462  0.00  0.00    +0.138 A 
ATOM     20  C   UNL     1     -13.316  -1.157   1.380  0.00  0.00    +0.067 A 
ATOM     21  C   UNL     1     -13.114  -2.525   1.577  0.00  0.00    +0.015 A 
BRANCH  19  22
ATOM     22  N   UNL     1     -14.829   0.818   1.249  0.00  0.00    +0.057 N 
ATOM     23  O   UNL     1     -15.470   1.461   2.061  0.00  0.00    -0.126 OA
ATOM     24  O   UNL     1     -14.373   1.365   0.261  0.00  0.00    -0.126 OA
ENDBRANCH  19  22
ENDBRANCH  12  20
ENDBRANCH  11  14
ENDBRANCH   1  11
BRANCH   8  25
ATOM     25  C   UNL     1      -4.924   0.210  -0.459  0.00  0.00    +0.111 C 
BRANCH  25  26
ATOM     26  N   UNL     1      -3.720  -0.601  -0.652  0.00  0.00    -0.311 N 
ATOM     27  C   UNL     1      -2.545  -0.005  -0.938  0.00  0.00    +0.246 C 
ATOM     28  O   UNL     1      -2.485   1.206  -1.034  0.00  0.00    -0.270 OA
ATOM     29  H   UNL     1      -3.774  -1.696  -0.565  0.00  0.00    +0.149 HD
BRANCH  27  30
ATOM     30  C   UNL     1      -1.329  -0.823  -1.133  0.00  0.00    +0.067 A 
ATOM     31  C   UNL     1      -0.918  -1.715  -0.142  0.00  0.00    +0.015 A 
ATOM     32  C   UNL     1       0.217  -2.476  -0.331  0.00  0.00    +0.001 A 
ATOM     33  C   UNL     1       0.947  -2.357  -1.500  0.00  0.00    +0.002 A 
ATOM     34  C   UNL     1       0.542  -1.478  -2.489  0.00  0.00    +0.033 A 
ATOM     35  C   UNL     1      -0.588  -0.707  -2.310  0.00  0.00    +0.138 A 
BRANCH  35  36
ATOM     36  N   UNL     1      -1.018   0.236  -3.367  0.00  0.00    +0.057 N 
ATOM     37  O   UNL     1      -0.312   0.419  -4.343  0.00  0.00    -0.126 OA
ATOM     38  O   UNL     1      -2.078   0.826  -3.263  0.00  0.00    -0.126 OA
ENDBRANCH  35  36
ENDBRANCH  27  30
ENDBRANCH  25  26
ENDBRANCH   8  25
TORSDOF 8
