REMARK  Name = ZINC16041587
REMARK  15 active torsions:
REMARK  status: ('A' for Active; 'I' for Inactive)
REMARK    1  A    between atoms: C_1  and  C_2
REMARK    2  A    between atoms: C_2  and  C_3
REMARK    3  A    between atoms: C_2  and  C_4
REMARK    4  A    between atoms: C_4  and  C_5
REMARK    5  A    between atoms: C_5  and  C_6
REMARK    6  A    between atoms: C_6  and  C_7
REMARK    7  A    between atoms: C_7  and  C_9
REMARK    8  A    between atoms: C_7  and  C_10
REMARK    9  A    between atoms: C_16  and  C_43
REMARK   10  A    between atoms: C_26  and  C_42
REMARK   11  A    between atoms: C_29  and  O_32
REMARK   12  A    between atoms: O_32  and  C_33
REMARK   13  A    between atoms: C_33  and  C_35
REMARK   14  A    between atoms: C_35  and  C_36
REMARK   15  A    between atoms: C_36  and  N_97
REMARK                            x       y       z     vdW  Elec       q    Type
REMARK                         _______ _______ _______ _____ _____    ______ ____
ROOT
ATOM      1  C   UNL     1      -5.158  -2.257   0.249  0.00  0.00    -0.002 C 
ATOM      2  C   UNL     1      -4.928  -3.746   0.621  0.00  0.00    +0.004 C 
ATOM      3  C   UNL     1      -3.390  -3.941   0.742  0.00  0.00    +0.004 C 
ATOM      4  C   UNL     1      -2.844  -2.718  -0.004  0.00  0.00    -0.001 C 
ATOM      5  C   UNL     1      -3.785  -1.604   0.486  0.00  0.00    -0.026 C 
ATOM      6  C   UNL     1      -3.498  -0.320  -0.244  0.00  0.00    +0.007 C 
ATOM      7  C   UNL     1      -2.008   0.049  -0.058  0.00  0.00    +0.005 C 
ATOM      8  C   UNL     1      -1.121  -1.056  -0.600  0.00  0.00    +0.003 C 
ATOM      9  C   UNL     1      -1.387  -2.394   0.114  0.00  0.00    +0.000 C 
ATOM     10  C   UNL     1      -0.856  -2.307   1.539  0.00  0.00    +0.031 C 
ATOM     11  C   UNL     1       0.625  -2.028   1.467  0.00  0.00    -0.027 C 
ATOM     12  C   UNL     1       1.137  -1.304   0.521  0.00  0.00    -0.064 C 
ATOM     13  C   UNL     1       0.358  -0.747  -0.639  0.00  0.00    -0.008 C 
ATOM     14  C   UNL     1       0.965  -1.311  -1.934  0.00  0.00    +0.015 C 
ATOM     15  C   UNL     1       2.241  -2.088  -1.623  0.00  0.00    +0.046 C 
ATOM     16  C   UNL     1       3.215  -1.243  -0.804  0.00  0.00    +0.180 C 
ATOM     17  C   UNL     1       2.621  -0.975   0.584  0.00  0.00    +0.075 C 
ATOM     18  C   UNL     1       0.575   0.769  -0.668  0.00  0.00    +0.016 C 
ATOM     19  C   UNL     1      -3.702  -1.370   1.999  0.00  0.00    +0.012 C 
ENDROOT
BRANCH   1  20
ATOM     20  C   UNL     1      -5.606  -2.128  -1.201  0.00  0.00    -0.010 C 
ATOM     21  C   UNL     1      -6.789  -3.064  -1.454  0.00  0.00    +0.008 C 
BRANCH  20  22
ATOM     22  C   UNL     1      -6.029  -0.684  -1.477  0.00  0.00    +0.003 C 
BRANCH  22  23
ATOM     23  C   UNL     1      -6.339  -0.519  -2.967  0.00  0.00    +0.001 C 
BRANCH  23  24
ATOM     24  C   UNL     1      -6.762   0.924  -3.243  0.00  0.00    +0.003 C 
BRANCH  24  26
ATOM     25  C   UNL     1      -8.286   0.234  -5.099  0.00  0.00    +0.007 C 
ATOM     26  C   UNL     1      -7.071   1.089  -4.732  0.00  0.00    -0.017 C 
ATOM     27  C   UNL     1      -7.374   2.559  -5.031  0.00  0.00    +0.007 C 
ENDBRANCH  24  26
ENDBRANCH  23  24
ENDBRANCH  22  23
ENDBRANCH  20  22
ENDBRANCH   1  20
BRANCH  16  28
ATOM     28  O   UNL     1       4.474  -1.955  -0.666  0.00  0.00    -0.461 OA
BRANCH  28  29
ATOM     29  C   UNL     1       5.586  -1.210  -0.559  0.00  0.00    +0.306 C 
ATOM     30  O   UNL     1       5.510  -0.005  -0.581  0.00  0.00    -0.251 OA
BRANCH  29  31
ATOM     31  C   UNL     1       6.929  -1.879  -0.413  0.00  0.00    +0.102 C 
BRANCH  31  32
ATOM     32  C   UNL     1       8.021  -0.812  -0.312  0.00  0.00    -0.068 C 
BRANCH  32  38
ATOM     33  C   UNL     1       9.421  -2.186   1.105  0.00  0.00    -0.079 C 
ATOM     34  C   UNL     1      10.736  -2.969   1.156  0.00  0.00    -0.019 C 
ATOM     35  C   UNL     1      11.909  -1.996   1.014  0.00  0.00    -0.004 C 
ATOM     36  C   UNL     1      11.764  -1.221  -0.299  0.00  0.00    -0.019 C 
ATOM     37  C   UNL     1      10.420  -0.489  -0.307  0.00  0.00    -0.079 C 
ATOM     38  N   UNL     1       9.331  -1.483  -0.192  0.00  0.00    +0.380 N 
ATOM     39  H   UNL     1       9.425  -2.169  -0.950  0.00  0.00    -0.082 HD
ENDBRANCH  32  38
ENDBRANCH  31  32
ENDBRANCH  29  31
ENDBRANCH  28  29
ENDBRANCH  16  28
TORSDOF 10
