REMARK  Name = ZINC05057219
REMARK  8 active torsions:
REMARK  status: ('A' for Active; 'I' for Inactive)
REMARK    1  A    between atoms: C_1  and  C_2
REMARK    2  A    between atoms: C_4  and  C_25
REMARK    3  A    between atoms: C_6  and  N_8
REMARK    4  A    between atoms: N_13  and  C_16
REMARK    5  A    between atoms: C_16  and  C_17
REMARK    6  A    between atoms: N_19  and  C_20
REMARK    7  A    between atoms: C_20  and  C_21
REMARK    8  A    between atoms: C_20  and  C_22
REMARK                            x       y       z     vdW  Elec       q    Type
REMARK                         _______ _______ _______ _____ _____    ______ ____
ROOT
ATOM      1  N   UNL     1      -4.117   2.447   2.352  0.00  0.00    -0.194 N 
ATOM      2  C   UNL     1      -4.856   2.912   1.303  0.00  0.00    +0.190 A 
ATOM      3  C   UNL     1      -6.181   2.960   1.755  0.00  0.00    +0.196 A 
ATOM      4  C   UNL     1      -7.205   3.430   0.818  0.00  0.00    +0.284 A 
ATOM      5  O   UNL     1      -8.377   3.497   1.146  0.00  0.00    -0.265 OA
ATOM      6  N   UNL     1      -6.803   3.788  -0.423  0.00  0.00    -0.288 N 
ATOM      7  C   UNL     1      -5.494   3.706  -0.769  0.00  0.00    +0.205 A 
ATOM      8  N   UNL     1      -4.571   3.291   0.049  0.00  0.00    -0.216 NA
ATOM      9  N   UNL     1      -6.203   2.536   3.026  0.00  0.00    -0.122 NA
ATOM     10  N   UNL     1      -5.014   2.221   3.407  0.00  0.00    -0.058 NA
ENDROOT
BRANCH   1  16
ATOM     11  C   UNL     1      -0.013   1.086   0.008  0.00  0.00    +0.044 C 
ATOM     12  C   UNL     1      -0.718   1.572   1.248  0.00  0.00    -0.048 A 
ATOM     13  C   UNL     1       0.002   1.806   2.405  0.00  0.00    +0.006 A 
ATOM     14  C   UNL     1      -0.642   2.252   3.545  0.00  0.00    -0.048 A 
ATOM     15  C   UNL     1      -2.006   2.465   3.530  0.00  0.00    +0.031 A 
ATOM     16  C   UNL     1      -2.732   2.231   2.370  0.00  0.00    +0.070 A 
ATOM     17  C   UNL     1      -2.082   1.789   1.225  0.00  0.00    +0.031 A 
ATOM     18  C   UNL     1       0.146   2.505   4.804  0.00  0.00    +0.044 C 
ENDBRANCH   1  16
BRANCH   6  19
ATOM     19  C   UNL     1      -7.786   4.265  -1.398  0.00  0.00    +0.222 C 
BRANCH  19  20
ATOM     20  C   UNL     1      -8.325   3.096  -2.182  0.00  0.00    +0.233 C 
ATOM     21  O   UNL     1      -7.927   1.974  -1.948  0.00  0.00    -0.274 OA
ATOM     22  N   UNL     1      -9.250   3.296  -3.142  0.00  0.00    -0.312 N 
ATOM     23  H   UNL     1      -9.568   4.193  -3.329  0.00  0.00    +0.149 HD
BRANCH  22  24
ATOM     24  C   UNL     1      -9.774   2.160  -3.903  0.00  0.00    +0.067 C 
ATOM     25  C   UNL     1     -10.928   1.517  -3.131  0.00  0.00    +0.027 C 
ATOM     26  C   UNL     1     -10.278   2.646  -5.263  0.00  0.00    +0.027 C 
ENDBRANCH  22  24
ENDBRANCH  19  20
ENDBRANCH   6  19
TORSDOF 4
