REMARK  Name = ZINC14889101
REMARK  8 active torsions:
REMARK  status: ('A' for Active; 'I' for Inactive)
REMARK    1  A    between atoms: C_1  and  O_2
REMARK    2  A    between atoms: O_2  and  C_3
REMARK    3  A    between atoms: C_8  and  C_9
REMARK    4  A    between atoms: C_9  and  C_10
REMARK    5  A    between atoms: C_10  and  N_11
REMARK    6  A    between atoms: C_12  and  C_14
REMARK    7  A    between atoms: C_22  and  C_23
REMARK    8  A    between atoms: C_22  and  N_61
REMARK                            x       y       z     vdW  Elec       q    Type
REMARK                         _______ _______ _______ _____ _____    ______ ____
ROOT
ATOM      1  C   UNL     1       4.585   7.878   5.210  0.00  0.00    +0.082 C 
ATOM      2  C   UNL     1       5.535   7.300   4.158  0.00  0.00    +0.020 C 
ATOM      3  C   UNL     1       4.063   7.525   3.818  0.00  0.00    -0.021 C 
ATOM      4  C   UNL     1       3.717   8.678   2.871  0.00  0.00    -0.011 C 
ATOM      5  C   UNL     1       3.632   8.130   1.442  0.00  0.00    -0.078 C 
ATOM      6  C   UNL     1       3.113   5.884   2.206  0.00  0.00    -0.078 C 
ATOM      7  C   UNL     1       3.165   6.291   3.682  0.00  0.00    -0.011 C 
ATOM      8  N   UNL     1       2.636   7.036   1.409  0.00  0.00    +0.384 N 
ATOM      9  H   UNL     1       1.756   7.377   1.813  0.00  0.00    -0.081 HD
ENDROOT
BRANCH   1  11
ATOM     10  N   UNL     1       4.615   7.244   7.601  0.00  0.00    -0.315 N 
ATOM     11  C   UNL     1       4.183   6.980   6.352  0.00  0.00    +0.217 C 
ATOM     12  O   UNL     1       3.471   6.020   6.147  0.00  0.00    -0.275 OA
ATOM     13  H   UNL     1       5.185   8.012   7.764  0.00  0.00    +0.149 HD
BRANCH  10  14
ATOM     14  C   UNL     1       4.225   6.372   8.711  0.00  0.00    +0.109 C 
BRANCH  14  15
ATOM     15  C   UNL     1       4.845   6.891  10.010  0.00  0.00    +0.057 C 
BRANCH  15  21
ATOM     16  C   UNL     1       5.167   4.841  11.417  0.00  0.00    +0.123 A 
ATOM     17  C   UNL     1       4.797   4.019  12.472  0.00  0.00    +0.046 A 
ATOM     18  C   UNL     1       3.704   4.346  13.250  0.00  0.00    +0.004 A 
ATOM     19  C   UNL     1       2.981   5.493  12.980  0.00  0.00    +0.000 A 
ATOM     20  C   UNL     1       3.350   6.316  11.933  0.00  0.00    +0.007 A 
ATOM     21  C   UNL     1       4.443   5.994  11.152  0.00  0.00    -0.004 A 
BRANCH  16  23
ATOM     22  C   UNL     1       6.939   3.317  10.977  0.00  0.00    +0.277 C 
ATOM     23  O   UNL     1       6.240   4.519  10.647  0.00  0.00    -0.495 OA
ENDBRANCH  16  23
ENDBRANCH  15  21
ENDBRANCH  14  15
ENDBRANCH  10  14
ENDBRANCH   1  11
BRANCH   8  24
ATOM     24  C   UNL     1       2.394   6.617   0.014  0.00  0.00    -0.003 C 
BRANCH  24  25
ATOM     25  C   UNL     1       1.599   5.337   0.014  0.00  0.00    +0.090 A 
ATOM     26  C   UNL     1       0.261   5.266   0.027  0.00  0.00    +0.051 A 
ATOM     27  C   UNL     1      -0.072   3.836   0.022  0.00  0.00    +0.020 A 
ATOM     28  C   UNL     1      -1.264   3.113   0.030  0.00  0.00    +0.011 A 
ATOM     29  C   UNL     1      -1.227   1.746   0.017  0.00  0.00    +0.001 A 
ATOM     30  C   UNL     1      -0.013   1.076   0.008  0.00  0.00    +0.004 A 
ATOM     31  C   UNL     1       1.176   1.774   0.000  0.00  0.00    +0.047 A 
ATOM     32  C   UNL     1       1.161   3.163   0.007  0.00  0.00    +0.135 A 
ATOM     33  O   UNL     1       2.129   4.102   0.003  0.00  0.00    -0.462 OA
ENDBRANCH  24  25
ENDBRANCH   8  24
TORSDOF 7
