REMARK  Name = ZINC09640858
REMARK  8 active torsions:
REMARK  status: ('A' for Active; 'I' for Inactive)
REMARK    1  A    between atoms: C_1  and  C_2
REMARK    2  A    between atoms: N_11  and  S_12
REMARK    3  A    between atoms: S_12  and  C_15
REMARK    4  A    between atoms: C_19  and  C_21
REMARK    5  A    between atoms: N_23  and  C_24
REMARK    6  A    between atoms: C_24  and  C_25
REMARK    7  A    between atoms: C_25  and  C_27
REMARK    8  A    between atoms: C_25  and  N_32
REMARK                            x       y       z     vdW  Elec       q    Type
REMARK                         _______ _______ _______ _____ _____    ______ ____
ROOT
ATOM      1  C   UNL     1       2.253   1.365   2.519  0.00  0.00    +0.109 A 
ATOM      2  C   UNL     1       2.200   2.612   1.922  0.00  0.00    +0.029 A 
ATOM      3  C   UNL     1       2.134   3.755   2.698  0.00  0.00    +0.003 A 
ATOM      4  C   UNL     1       2.123   3.658   4.075  0.00  0.00    +0.013 A 
ATOM      5  C   UNL     1       2.177   2.404   4.683  0.00  0.00    +0.039 A 
ATOM      6  C   UNL     1       2.237   1.254   3.894  0.00  0.00    +0.041 A 
ENDROOT
BRANCH   5   7
ATOM      7  C   UNL     1       2.165   2.292   6.157  0.00  0.00    +0.244 C 
ATOM      8  O   UNL     1       2.212   1.198   6.685  0.00  0.00    -0.270 OA
ATOM      9  N   UNL     1       2.103   3.404   6.917  0.00  0.00    -0.312 N 
ATOM     10  H   UNL     1       2.065   4.277   6.496  0.00  0.00    +0.149 HD
BRANCH   9  11
ATOM     11  C   UNL     1       2.091   3.294   8.377  0.00  0.00    +0.097 C 
BRANCH  11  12
ATOM     12  C   UNL     1       2.121   4.693   8.995  0.00  0.00    +0.016 C 
BRANCH  12  13
ATOM     13  N   UNL     1       2.244   4.582  10.454  0.00  0.00    +0.387 N 
ATOM     14  C   UNL     1       3.531   3.935  10.812  0.00  0.00    -0.078 C 
ATOM     15  C   UNL     1       3.764   4.392  12.274  0.00  0.00    -0.020 C 
ATOM     16  C   UNL     1       3.246   5.849  12.267  0.00  0.00    -0.020 C 
ATOM     17  C   UNL     1       2.285   5.928  11.067  0.00  0.00    -0.078 C 
ATOM     18  H   UNL     1       1.471   4.053  10.830  0.00  0.00    -0.081 HD
ENDBRANCH  12  13
BRANCH  12  19
ATOM     19  C   UNL     1       0.846   5.420   8.652  0.00  0.00    +0.093 A 
ATOM     20  C   UNL     1       0.699   6.332   7.673  0.00  0.00    +0.043 A 
ATOM     21  C   UNL     1      -0.650   6.753   7.706  0.00  0.00    +0.041 A 
ATOM     22  C   UNL     1      -1.247   6.074   8.702  0.00  0.00    +0.195 A 
ATOM     23  O   UNL     1      -0.337   5.264   9.268  0.00  0.00    -0.469 OA
ENDBRANCH  12  19
ENDBRANCH  11  12
ENDBRANCH   9  11
ENDBRANCH   5   7
BRANCH   1  24
ATOM     24  S   UNL     1       2.336  -0.085   1.521  0.00  0.00    +0.075 S 
ATOM     25  O   UNL     1       2.921  -1.099   2.325  0.00  0.00    -0.150 OA
ATOM     26  O   UNL     1       2.889   0.312   0.273  0.00  0.00    -0.150 OA
BRANCH  24  36
ATOM     27  C   UNL     1      -0.216   1.397   0.112  0.00  0.00    +0.030 C 
ATOM     28  C   UNL     1      -0.027  -0.121   0.076  0.00  0.00    +0.099 C 
ATOM     29  C   UNL     1      -1.381  -0.831   0.238  0.00  0.00    +0.061 C 
ATOM     30  C   UNL     1      -1.234  -1.645   1.504  0.00  0.00    -0.023 A 
ATOM     31  C   UNL     1      -2.121  -2.484   2.150  0.00  0.00    +0.005 A 
ATOM     32  C   UNL     1      -1.746  -3.127   3.315  0.00  0.00    +0.000 A 
ATOM     33  C   UNL     1      -0.480  -2.928   3.833  0.00  0.00    +0.002 A 
ATOM     34  C   UNL     1       0.409  -2.091   3.193  0.00  0.00    +0.025 A 
ATOM     35  C   UNL     1       0.038  -1.438   2.015  0.00  0.00    +0.055 A 
ATOM     36  N   UNL     1       0.778  -0.560   1.219  0.00  0.00    -0.200 N 
ENDBRANCH  24  36
ENDBRANCH   1  24
TORSDOF 7
