REMARK  Name = ZINC45696281
REMARK  7 active torsions:
REMARK  status: ('A' for Active; 'I' for Inactive)
REMARK    1  A    between atoms: C_1  and  C_2
REMARK    2  A    between atoms: C_2  and  C_4
REMARK    3  A    between atoms: C_2  and  N_12
REMARK    4  A    between atoms: N_15  and  C_16
REMARK    5  A    between atoms: C_21  and  S_22
REMARK    6  A    between atoms: S_22  and  C_23
REMARK    7  A    between atoms: C_23  and  C_24
REMARK                            x       y       z     vdW  Elec       q    Type
REMARK                         _______ _______ _______ _____ _____    ______ ____
ROOT
ATOM      1  N   UNL     1       0.684  -0.493  -1.199  0.00  0.00    -0.293 N 
ATOM      2  C   UNL     1       0.005  -0.612  -2.357  0.00  0.00    +0.304 C 
ATOM      3  O   UNL     1      -1.177  -0.332  -2.401  0.00  0.00    -0.252 OA
ATOM      4  N   UNL     1       0.637  -1.043  -3.467  0.00  0.00    -0.268 N 
ATOM      5  H   UNL     1       1.628  -0.717  -1.165  0.00  0.00    +0.151 HD
ATOM      6  H   UNL     1       1.596  -1.189  -3.454  0.00  0.00    +0.156 HD
ENDROOT
BRANCH   4   7
ATOM      7  C   UNL     1      -0.092  -1.280  -4.641  0.00  0.00    +0.048 A 
ATOM      8  C   UNL     1      -1.444  -1.579  -4.572  0.00  0.00    +0.024 A 
ATOM      9  C   UNL     1      -2.161  -1.813  -5.730  0.00  0.00    +0.002 A 
ATOM     10  C   UNL     1      -1.534  -1.750  -6.961  0.00  0.00    +0.001 A 
ATOM     11  C   UNL     1      -0.187  -1.452  -7.041  0.00  0.00    +0.016 A 
ATOM     12  C   UNL     1       0.540  -1.210  -5.883  0.00  0.00    +0.030 A 
BRANCH  12  13
ATOM     13  S   UNL     1       2.256  -0.824  -5.981  0.00  0.00    -0.114 S 
BRANCH  13  14
ATOM     14  C   UNL     1       2.611  -0.850  -7.760  0.00  0.00    +0.169 C 
BRANCH  14  15
ATOM     15  C   UNL     1       4.066  -0.530  -7.987  0.00  0.00    +0.221 C 
ATOM     16  O   UNL     1       4.792  -0.307  -7.042  0.00  0.00    -0.275 OA
ATOM     17  N   UNL     1       4.560  -0.493  -9.240  0.00  0.00    -0.329 N 
ATOM     18  H   UNL     1       3.979  -0.672  -9.996  0.00  0.00    +0.145 HD
ATOM     19  H   UNL     1       5.497  -0.287  -9.386  0.00  0.00    +0.145 HD
ENDBRANCH  14  15
ENDBRANCH  13  14
ENDBRANCH  12  13
ENDBRANCH   4   7
BRANCH   1  21
ATOM     20  C   UNL     1      -0.014   1.505   0.027  0.00  0.00    +0.033 C 
ATOM     21  C   UNL     1      -0.002  -0.025   0.007  0.00  0.00    +0.102 C 
BRANCH  21  22
ATOM     22  C   UNL     1       0.720  -0.537   1.227  0.00  0.00    -0.026 A 
ATOM     23  C   UNL     1       2.103  -0.556   1.254  0.00  0.00    +0.007 A 
ATOM     24  C   UNL     1       2.766  -1.026   2.372  0.00  0.00    +0.022 A 
ATOM     25  C   UNL     1       2.048  -1.477   3.464  0.00  0.00    +0.059 A 
ATOM     26  C   UNL     1       0.664  -1.458   3.437  0.00  0.00    +0.060 A 
ATOM     27  C   UNL     1       0.001  -0.983   2.320  0.00  0.00    +0.027 A 
ATOM     28 CL   UNL     1      -0.240  -2.025   4.807  0.00  0.00    -0.082 Cl
ATOM     29 CL   UNL     1       2.881  -2.068   4.868  0.00  0.00    -0.082 Cl
ENDBRANCH  21  22
ENDBRANCH   1  21
TORSDOF 6
