REMARK  Name = ZINC36091457
REMARK  9 active torsions:
REMARK  status: ('A' for Active; 'I' for Inactive)
REMARK    1  A    between atoms: C_1  and  C_2
REMARK    2  A    between atoms: C_5  and  C_39
REMARK    3  A    between atoms: C_6  and  C_8
REMARK    4  A    between atoms: C_8  and  N_9
REMARK    5  A    between atoms: C_12  and  C_26
REMARK    6  A    between atoms: N_28  and  C_29
REMARK    7  A    between atoms: C_29  and  C_30
REMARK    8  A    between atoms: C_30  and  N_31
REMARK    9  A    between atoms: C_36  and  C_38
REMARK                            x       y       z     vdW  Elec       q    Type
REMARK                         _______ _______ _______ _____ _____    ______ ____
ROOT
ATOM      1  N   UNL     1       1.578  -3.664   3.097  0.00  0.00    -0.262 N 
ATOM      2  C   UNL     1       1.836  -4.887   2.505  0.00  0.00    +0.054 A 
ATOM      3  C   UNL     1       1.625  -5.017   1.133  0.00  0.00    +0.037 A 
ATOM      4  C   UNL     1       1.869  -6.231   0.497  0.00  0.00    +0.039 A 
ATOM      5  C   UNL     1       2.326  -7.322   1.238  0.00  0.00    +0.014 A 
ATOM      6  C   UNL     1       2.534  -7.188   2.594  0.00  0.00    +0.020 A 
ATOM      7  C   UNL     1       2.293  -5.979   3.225  0.00  0.00    +0.065 A 
ATOM      8  S   UNL     1       2.578  -5.844   4.960  0.00  0.00    +0.088 S 
ATOM      9  O   UNL     1       1.401  -5.218   5.453  0.00  0.00    -0.247 OA
ATOM     10  C   UNL     1       3.810  -4.591   5.083  0.00  0.00    +0.056 A 
ATOM     11  C   UNL     1       5.026  -4.881   5.667  0.00  0.00    +0.018 A 
ATOM     12  C   UNL     1       5.999  -3.903   5.770  0.00  0.00    +0.001 A 
ATOM     13  C   UNL     1       5.754  -2.629   5.289  0.00  0.00    +0.001 A 
ATOM     14  C   UNL     1       4.544  -2.329   4.704  0.00  0.00    +0.014 A 
ATOM     15  C   UNL     1       3.552  -3.312   4.593  0.00  0.00    +0.053 A 
ATOM     16  C   UNL     1       2.277  -2.972   3.957  0.00  0.00    +0.252 C 
ATOM     17  O   UNL     1       1.802  -1.899   4.277  0.00  0.00    -0.270 OA
ENDROOT
BRANCH   4  18
ATOM     18  C   UNL     1       1.644  -6.364  -0.958  0.00  0.00    +0.244 C 
ATOM     19  O   UNL     1       1.157  -5.443  -1.585  0.00  0.00    -0.270 OA
ATOM     20  N   UNL     1       1.979  -7.507  -1.590  0.00  0.00    -0.313 N 
ATOM     21  H   UNL     1       2.367  -8.242  -1.089  0.00  0.00    +0.149 HD
BRANCH  20  22
ATOM     22  C   UNL     1       1.756  -7.639  -3.031  0.00  0.00    +0.086 C 
BRANCH  22  23
ATOM     23  C   UNL     1       2.219  -9.022  -3.494  0.00  0.00    -0.059 C 
BRANCH  23  24
ATOM     24  N   UNL     1       1.996  -9.154  -4.940  0.00  0.00    +0.382 N 
ATOM     25  C   UNL     1       2.844  -8.192  -5.655  0.00  0.00    -0.078 C 
ATOM     26  C   UNL     1       2.556  -8.270  -7.156  0.00  0.00    -0.019 C 
ATOM     27  C   UNL     1       2.856  -9.686  -7.655  0.00  0.00    -0.003 C 
ATOM     28  C   UNL     1       2.020 -10.687  -6.852  0.00  0.00    -0.016 C 
ATOM     29  C   UNL     1       2.328 -10.520  -5.362  0.00  0.00    -0.072 C 
ATOM     30  C   UNL     1       1.496 -11.519  -4.555  0.00  0.00    -0.013 C 
ATOM     31  H   UNL     1       1.027  -8.965  -5.149  0.00  0.00    -0.081 HD
ENDBRANCH  23  24
ENDBRANCH  22  23
ENDBRANCH  20  22
ENDBRANCH   4  18
BRANCH   1  32
ATOM     32  C   UNL     1       0.317  -3.039   2.689  0.00  0.00    +0.149 C 
BRANCH  32  38
ATOM     33  C   UNL     1      -3.374  -6.393   3.105  0.00  0.00    +0.044 C 
ATOM     34  C   UNL     1      -2.585  -5.243   3.676  0.00  0.00    -0.050 A 
ATOM     35  C   UNL     1      -2.903  -4.739   4.923  0.00  0.00    +0.003 A 
ATOM     36  C   UNL     1      -2.179  -3.684   5.447  0.00  0.00    +0.004 A 
ATOM     37  C   UNL     1      -1.137  -3.134   4.724  0.00  0.00    -0.046 A 
ATOM     38  C   UNL     1      -0.818  -3.639   3.478  0.00  0.00    -0.027 A 
ATOM     39  C   UNL     1      -1.540  -4.697   2.956  0.00  0.00    +0.008 A 
ATOM     40  C   UNL     1      -0.349  -1.983   5.295  0.00  0.00    +0.044 C 
ENDBRANCH  32  38
ENDBRANCH   1  32
TORSDOF 6
