REMARK  Name = ZINC04848540
REMARK  7 active torsions:
REMARK  status: ('A' for Active; 'I' for Inactive)
REMARK    1  A    between atoms: C_1  and  C_2
REMARK    2  A    between atoms: C_14  and  S_21
REMARK    3  A    between atoms: C_16  and  C_18
REMARK    4  A    between atoms: C_18  and  C_19
REMARK    5  A    between atoms: C_18  and  C_20
REMARK    6  A    between atoms: S_21  and  C_22
REMARK    7  A    between atoms: C_22  and  C_23
REMARK                            x       y       z     vdW  Elec       q    Type
REMARK                         _______ _______ _______ _____ _____    ______ ____
ROOT
ATOM      1  C   UNL     1       4.860  -2.427   0.057  0.00  0.00    +0.008 C 
ATOM      2  C   UNL     1       3.998  -1.199   0.356  0.00  0.00    -0.009 C 
ATOM      3  C   UNL     1       4.450  -0.028  -0.522  0.00  0.00    +0.008 C 
ATOM      4  C   UNL     1       3.772   1.262  -0.061  0.00  0.00    +0.037 C 
ATOM      5  C   UNL     1       2.263   1.032  -0.005  0.00  0.00    -0.024 A 
ATOM      6  C   UNL     1       1.763  -0.225   0.038  0.00  0.00    -0.004 A 
ATOM      7  S   UNL     1       0.004  -0.003   0.091  0.00  0.00    -0.073 S 
ATOM      8  C   UNL     1      -0.021   1.772   0.054  0.00  0.00    +0.114 A 
ATOM      9  C   UNL     1       1.340   2.108   0.003  0.00  0.00    +0.056 A 
ATOM     10  C   UNL     1       1.620   3.560  -0.037  0.00  0.00    +0.173 A 
ATOM     11  N   UNL     1       2.716   4.276  -0.086  0.00  0.00    -0.128 NA
ATOM     12  N   UNL     1       2.416   5.528  -0.104  0.00  0.00    -0.122 NA
ATOM     13  C   UNL     1       1.112   5.684  -0.067  0.00  0.00    +0.198 A 
ATOM     14  N   UNL     1       0.556   4.435  -0.022  0.00  0.00    -0.257 N 
ATOM     15  C   UNL     1      -0.725   3.969   0.029  0.00  0.00    +0.121 A 
ATOM     16  N   UNL     1      -0.982   2.692   0.061  0.00  0.00    -0.226 NA
ATOM     17  C   UNL     1       2.528  -1.511   0.041  0.00  0.00    +0.046 C 
ENDROOT
BRANCH  15  18
ATOM     18  C   UNL     1      -1.868   4.951   0.045  0.00  0.00    +0.049 C 
ATOM     19  C   UNL     1      -2.664   4.829  -1.256  0.00  0.00    +0.015 C 
ATOM     20  C   UNL     1      -2.783   4.650   1.233  0.00  0.00    +0.015 C 
ENDBRANCH  15  18
BRANCH  13  21
ATOM     21  S   UNL     1       0.242   7.216  -0.072  0.00  0.00    -0.074 S 
BRANCH  21  22
ATOM     22  C   UNL     1       1.555   8.466  -0.141  0.00  0.00    +0.202 C 
BRANCH  22  23
ATOM     23  C   UNL     1       0.939   9.841  -0.151  0.00  0.00    +0.366 C 
ATOM     24  O   UNL     1      -0.263   9.965  -0.116  0.00  0.00    -0.245 OA
ATOM     25  O   UNL     1       1.725  10.928  -0.200  0.00  0.00    -0.245 OA
ENDBRANCH  22  23
ENDBRANCH  21  22
ENDBRANCH  13  21
TORSDOF 4
