REMARK  Name = ZINC52627912
REMARK  8 active torsions:
REMARK  status: ('A' for Active; 'I' for Inactive)
REMARK    1  A    between atoms: C_7  and  C_10
REMARK    2  A    between atoms: C_10  and  C_11
REMARK    3  A    between atoms: C_11  and  C_13
REMARK    4  A    between atoms: C_11  and  N_37
REMARK    5  A    between atoms: C_13  and  O_14
REMARK    6  A    between atoms: O_14  and  C_15
REMARK    7  A    between atoms: C_17  and  C_21
REMARK    8  A    between atoms: C_27  and  C_31
REMARK                            x       y       z     vdW  Elec       q    Type
REMARK                         _______ _______ _______ _____ _____    ______ ____
ROOT
ATOM      1  C   UNL     1      -1.252  -6.557  -2.953  0.00  0.00    +0.139 A 
ATOM      2  C   UNL     1      -1.412  -7.110  -4.217  0.00  0.00    +0.057 A 
ATOM      3  C   UNL     1      -2.174  -8.274  -4.339  0.00  0.00    +0.004 A 
ATOM      4  C   UNL     1      -2.742  -8.832  -3.194  0.00  0.00    +0.119 A 
ATOM      5  N   UNL     1      -2.565  -8.273  -2.015  0.00  0.00    -0.259 NA
ATOM      6  C   UNL     1      -1.846  -7.178  -1.863  0.00  0.00    +0.156 A 
ENDROOT
BRANCH   3   7
ATOM      7  C   UNL     1      -2.377  -8.906  -5.665  0.00  0.00    -0.016 A 
ATOM      8  C   UNL     1      -1.793  -8.333  -6.806  0.00  0.00    +0.009 A 
ATOM      9  C   UNL     1      -1.963  -8.891  -8.034  0.00  0.00    +0.010 A 
ATOM     10  C   UNL     1      -2.731 -10.058  -8.172  0.00  0.00    +0.000 A 
ATOM     11  C   UNL     1      -2.930 -10.667  -9.424  0.00  0.00    +0.120 A 
ATOM     12  N   UNL     1      -3.653 -11.756  -9.521  0.00  0.00    -0.254 NA
ATOM     13  C   UNL     1      -4.227 -12.336  -8.466  0.00  0.00    +0.072 A 
ATOM     14  C   UNL     1      -4.091 -11.814  -7.193  0.00  0.00    +0.037 A 
ATOM     15  C   UNL     1      -3.326 -10.646  -7.024  0.00  0.00    -0.014 A 
ATOM     16  C   UNL     1      -3.135 -10.059  -5.766  0.00  0.00    +0.017 A 
BRANCH  13  17
ATOM     17  C   UNL     1      -5.029 -13.568  -8.662  0.00  0.00    +0.003 A 
ATOM     18  C   UNL     1      -5.650 -14.201  -7.582  0.00  0.00    +0.030 A 
ATOM     19  C   UNL     1      -6.388 -15.345  -7.809  0.00  0.00    +0.111 A 
ATOM     20  N   UNL     1      -6.509 -15.841  -9.026  0.00  0.00    -0.263 NA
ATOM     21  C   UNL     1      -5.940 -15.275 -10.072  0.00  0.00    +0.111 A 
ATOM     22  C   UNL     1      -5.189 -14.125  -9.935  0.00  0.00    +0.030 A 
ENDBRANCH  13  17
ENDBRANCH   3   7
BRANCH   1  23
ATOM     23  O   UNL     1      -0.519  -5.425  -2.785  0.00  0.00    -0.492 OA
BRANCH  23  24
ATOM     24  C   UNL     1      -0.398  -4.923  -1.452  0.00  0.00    +0.213 C 
BRANCH  24  25
ATOM     25  C   UNL     1       0.457  -3.653  -1.462  0.00  0.00    -0.033 C 
BRANCH  25  26
ATOM     26  N   UNL     1      -0.240  -2.600  -2.212  0.00  0.00    +0.382 N 
ATOM     27  H   UNL     1      -0.394  -2.909  -3.160  0.00  0.00    -0.089 HD
ATOM     28  H   UNL     1      -1.127  -2.405  -1.773  0.00  0.00    -0.089 HD
ATOM     29  H   UNL     1       0.323  -1.763  -2.218  0.00  0.00    -0.089 HD
ENDBRANCH  25  26
BRANCH  25  30
ATOM     30  C   UNL     1       0.691  -3.186  -0.024  0.00  0.00    +0.020 C 
BRANCH  30  37
ATOM     31  C   UNL     1      -0.016   1.348   0.009  0.00  0.00    +0.001 A 
ATOM     32  C   UNL     1       1.166   2.101   0.002  0.00  0.00    +0.002 A 
ATOM     33  C   UNL     1       2.391   1.535  -0.013  0.00  0.00    +0.026 A 
ATOM     34  C   UNL     1       2.529   0.120  -0.022  0.00  0.00    +0.043 A 
ATOM     35  N   UNL     1       3.587  -0.654  -0.037  0.00  0.00    -0.380 N 
ATOM     36  C   UNL     1       3.143  -2.053  -0.041  0.00  0.00    +0.144 C 
ATOM     37  C   UNL     1       1.631  -2.008  -0.025  0.00  0.00    -0.043 C 
ATOM     38  C   UNL     1       1.295  -0.698  -0.014  0.00  0.00    -0.001 A 
ATOM     39  C   UNL     1       0.002  -0.004   0.002  0.00  0.00    +0.010 A 
ATOM     40  H   UNL     1       4.509  -0.353  -0.045  0.00  0.00    +0.160 HD
ENDBRANCH  30  37
ENDBRANCH  25  30
ENDBRANCH  24  25
ENDBRANCH  23  24
ENDBRANCH   1  23
TORSDOF 8
