REMARK  Name = ZINC39467304
REMARK  5 active torsions:
REMARK  status: ('A' for Active; 'I' for Inactive)
REMARK    1  A    between atoms: C_4  and  C_7
REMARK    2  A    between atoms: C_7  and  C_8
REMARK    3  A    between atoms: C_20  and  O_21
REMARK    4  A    between atoms: P_24  and  C_27
REMARK    5  A    between atoms: C_32  and  O_33
REMARK                            x       y       z     vdW  Elec       q    Type
REMARK                         _______ _______ _______ _____ _____    ______ ____
ROOT
ATOM      1  C   UNL     1       4.164  -0.959   1.377  0.00  0.00    -0.006 C 
ATOM      2  C   UNL     1       3.892  -2.122   1.970  0.00  0.00    -0.017 C 
ATOM      3  C   UNL     1       4.370  -2.346   3.378  0.00  0.00    +0.005 C 
ATOM      4  C   UNL     1       4.483  -3.830   3.705  0.00  0.00    -0.046 C 
ATOM      5  N   UNL     1       4.910  -4.002   5.104  0.00  0.00    +0.398 N 
ATOM      6  C   UNL     1       6.211  -3.380   5.347  0.00  0.00    -0.020 C 
ATOM      7  C   UNL     1       6.186  -1.886   4.993  0.00  0.00    -0.002 C 
ATOM      8  C   UNL     1       5.761  -1.720   3.537  0.00  0.00    +0.019 C 
ATOM      9  C   UNL     1       5.688  -0.270   3.147  0.00  0.00    +0.022 C 
ATOM     10  C   UNL     1       4.917   0.077   2.111  0.00  0.00    +0.116 C 
ATOM     11  C   UNL     1       6.610  -3.470   6.825  0.00  0.00    +0.157 C 
ATOM     12  O   UNL     1       6.728  -4.854   7.203  0.00  0.00    -0.316 OA
ATOM     13  P   UNL     1       5.494  -5.848   6.833  0.00  0.00    +0.291 P 
ATOM     14  O   UNL     1       4.407  -5.709   7.828  0.00  0.00    -0.269 OA
ATOM     15  N   UNL     1       4.979  -5.361   5.324  0.00  0.00    -0.288 NA
ATOM     16  H   UNL     1       4.723  -5.995   4.636  0.00  0.00    +0.111 HD
ATOM     17  H   UNL     1       4.221  -3.595   5.719  0.00  0.00    -0.055 HD
ENDROOT
BRANCH  13  18
ATOM     18  C   UNL     1       6.069  -7.567   6.768  0.00  0.00    +0.091 A 
ATOM     19  C   UNL     1       6.540  -8.094   5.580  0.00  0.00    +0.018 A 
ATOM     20  C   UNL     1       6.978  -9.404   5.530  0.00  0.00    +0.001 A 
ATOM     21  C   UNL     1       6.946 -10.191   6.667  0.00  0.00    +0.004 A 
ATOM     22  C   UNL     1       6.476  -9.669   7.856  0.00  0.00    +0.046 A 
ATOM     23  C   UNL     1       6.041  -8.352   7.911  0.00  0.00    +0.131 A 
BRANCH  23  24
ATOM     24  O   UNL     1       5.583  -7.835   9.081  0.00  0.00    -0.506 OA
ATOM     25  H   UNL     1       4.633  -7.950   9.217  0.00  0.00    +0.292 HD
ENDBRANCH  23  24
ENDBRANCH  13  18
BRANCH  10  26
ATOM     26  O   UNL     1       4.824   1.381   1.738  0.00  0.00    -0.507 OA
ATOM     27  H   UNL     1       5.354   1.983   2.279  0.00  0.00    +0.292 HD
ENDBRANCH  10  26
BRANCH   1  28
ATOM     28  C   UNL     1       3.711  -0.707  -0.038  0.00  0.00    +0.073 C 
BRANCH  28  32
ATOM     29  C   UNL     1      -0.017   1.378   0.010  0.00  0.00    +0.000 A 
ATOM     30  C   UNL     1       1.171   2.086   0.002  0.00  0.00    +0.000 A 
ATOM     31  C   UNL     1       2.377   1.411  -0.013  0.00  0.00    +0.004 A 
ATOM     32  C   UNL     1       2.396   0.029  -0.020  0.00  0.00    -0.043 A 
ATOM     33  C   UNL     1       1.208  -0.679  -0.012  0.00  0.00    +0.004 A 
ATOM     34  C   UNL     1       0.002  -0.004   0.002  0.00  0.00    +0.000 A 
ENDBRANCH  28  32
ENDBRANCH   1  28
TORSDOF 5
