REMARK  Name = ZINC36398807
REMARK  10 active torsions:
REMARK  status: ('A' for Active; 'I' for Inactive)
REMARK    1  A    between atoms: C_1  and  C_2
REMARK    2  A    between atoms: C_8  and  C_29
REMARK    3  A    between atoms: C_12  and  C_13
REMARK    4  A    between atoms: C_13  and  O_15
REMARK    5  A    between atoms: O_15  and  C_16
REMARK    6  A    between atoms: C_16  and  C_17
REMARK    7  A    between atoms: C_16  and  C_18
REMARK    8  A    between atoms: N_20  and  C_21
REMARK    9  A    between atoms: C_25  and  C_28
REMARK   10  A    between atoms: C_26  and  C_27
REMARK                            x       y       z     vdW  Elec       q    Type
REMARK                         _______ _______ _______ _____ _____    ______ ____
ROOT
ATOM      1  C   UNL     1       0.030  -0.170   2.547  0.00  0.00    +0.347 C 
ATOM      2  O   UNL     1       0.015   1.031   2.737  0.00  0.00    -0.244 OA
ENDROOT
BRANCH   1  14
ATOM      3  C   UNL     1      -0.018   1.503   0.010  0.00  0.00    +0.046 C 
ATOM      4  C   UNL     1       0.002  -0.004   0.002  0.00  0.00    -0.015 A 
ATOM      5  C   UNL     1       0.005  -0.697  -1.210  0.00  0.00    +0.076 A 
ATOM      6  C   UNL     1      -0.009  -0.166  -2.592  0.00  0.00    +0.260 A 
ATOM      7  O   UNL     1      -0.025   1.034  -2.800  0.00  0.00    -0.267 OA
ATOM      8  N   UNL     1      -0.002  -1.044  -3.614  0.00  0.00    -0.311 N 
ATOM      9  H   UNL     1      -0.010  -0.712  -4.525  0.00  0.00    +0.170 HD
ATOM     10  C   UNL     1       0.018  -2.382  -3.394  0.00  0.00    +0.108 A 
ATOM     11  N   UNL     1       0.030  -2.883  -2.189  0.00  0.00    -0.227 NA
ATOM     12  C   UNL     1       0.025  -2.108  -1.113  0.00  0.00    +0.116 A 
ATOM     13  S   UNL     1       0.037  -2.396   0.639  0.00  0.00    -0.062 S 
ATOM     14  C   UNL     1       0.023  -0.695   1.179  0.00  0.00    +0.102 A 
ATOM     15  C   UNL     1       0.024  -3.317  -4.576  0.00  0.00    +0.086 C 
ENDBRANCH   1  14
BRANCH   1  16
ATOM     16  O   UNL     1       0.051  -1.019   3.595  0.00  0.00    -0.448 OA
BRANCH  16  17
ATOM     17  C   UNL     1       0.057  -0.438   4.900  0.00  0.00    +0.259 C 
ATOM     18  C   UNL     1      -1.384  -0.250   5.380  0.00  0.00    +0.062 C 
BRANCH  17  19
ATOM     19  C   UNL     1       0.789  -1.348   5.852  0.00  0.00    +0.254 C 
ATOM     20  O   UNL     1       1.260  -2.392   5.452  0.00  0.00    -0.272 OA
ATOM     21  N   UNL     1       0.920  -1.002   7.148  0.00  0.00    -0.309 N 
ATOM     22  H   UNL     1       0.543  -0.168   7.468  0.00  0.00    +0.149 HD
BRANCH  21  23
ATOM     23  C   UNL     1       1.632  -1.887   8.074  0.00  0.00    +0.076 C 
ATOM     24  C   UNL     1       0.669  -2.950   8.607  0.00  0.00    +0.022 C 
ATOM     25  C   UNL     1       1.412  -3.874   9.573  0.00  0.00    +0.002 C 
ATOM     26  C   UNL     1       1.963  -3.053  10.741  0.00  0.00    +0.003 C 
ATOM     27  C   UNL     1       2.927  -1.991  10.208  0.00  0.00    -0.009 C 
ATOM     28  C   UNL     1       2.183  -1.067   9.242  0.00  0.00    +0.009 C 
ATOM     29  C   UNL     1       3.147  -0.004   8.709  0.00  0.00    +0.009 C 
ATOM     30  C   UNL     1       3.478  -1.170  11.376  0.00  0.00    +0.008 C 
ENDBRANCH  21  23
ENDBRANCH  17  19
ENDBRANCH  16  17
ENDBRANCH   1  16
TORSDOF 5
