REMARK  Name = ZINC23340413
REMARK  9 active torsions:
REMARK  status: ('A' for Active; 'I' for Inactive)
REMARK    1  A    between atoms: C_1  and  C_2
REMARK    2  A    between atoms: C_2  and  C_3
REMARK    3  A    between atoms: C_2  and  N_4
REMARK    4  A    between atoms: C_7  and  N_23
REMARK    5  A    between atoms: C_9  and  C_12
REMARK    6  A    between atoms: C_12  and  C_13
REMARK    7  A    between atoms: C_13  and  C_14
REMARK    8  A    between atoms: N_26  and  C_29
REMARK    9  A    between atoms: C_33  and  C_35
REMARK                            x       y       z     vdW  Elec       q    Type
REMARK                         _______ _______ _______ _____ _____    ______ ____
ROOT
ATOM      1  N   UNL     1      -2.653  -0.298  -5.948  0.00  0.00    -0.300 NA
ATOM      2  C   UNL     1      -3.588  -1.367  -6.322  0.00  0.00    +0.083 C 
ATOM      3  C   UNL     1      -4.575  -1.607  -5.177  0.00  0.00    +0.000 C 
ATOM      4  C   UNL     1      -5.340  -0.311  -4.889  0.00  0.00    -0.063 C 
ATOM      5  C   UNL     1      -4.340   0.797  -4.549  0.00  0.00    -0.010 C 
ATOM      6  C   UNL     1      -3.360   0.968  -5.712  0.00  0.00    +0.086 C 
ENDROOT
BRANCH   4   7
ATOM      7  N   UNL     1      -6.247  -0.520  -3.753  0.00  0.00    +0.384 N 
ATOM      8  C   UNL     1      -7.150  -1.652  -4.001  0.00  0.00    -0.059 C 
ATOM      9  C   UNL     1      -8.023  -1.885  -2.765  0.00  0.00    +0.086 C 
ATOM     10  N   UNL     1      -8.784  -0.664  -2.468  0.00  0.00    -0.333 N 
ATOM     11  C   UNL     1      -7.880   0.469  -2.220  0.00  0.00    +0.086 C 
ATOM     12  C   UNL     1      -7.008   0.702  -3.456  0.00  0.00    -0.059 C 
ATOM     13  H   UNL     1      -5.634  -0.760  -2.872  0.00  0.00    -0.081 HD
BRANCH  10  14
ATOM     14  C   UNL     1      -9.646  -0.862  -1.388  0.00  0.00    +0.030 A 
ATOM     15  C   UNL     1      -9.566  -0.037  -0.273  0.00  0.00    +0.023 A 
ATOM     16  C   UNL     1     -10.424  -0.232   0.792  0.00  0.00    +0.002 A 
ATOM     17  C   UNL     1     -11.355  -1.254   0.753  0.00  0.00    +0.012 A 
ATOM     18  C   UNL     1     -11.434  -2.080  -0.353  0.00  0.00    +0.057 A 
ATOM     19  C   UNL     1     -10.582  -1.887  -1.423  0.00  0.00    +0.035 A 
BRANCH  18  20
ATOM     20  C   UNL     1     -12.450  -3.192  -0.391  0.00  0.00    +0.417 C 
ATOM     21  F   UNL     1     -11.888  -4.355   0.147  0.00  0.00    -0.166 F 
ATOM     22  F   UNL     1     -13.571  -2.825   0.361  0.00  0.00    -0.166 F 
ATOM     23  F   UNL     1     -12.834  -3.429  -1.715  0.00  0.00    -0.166 F 
ENDBRANCH  18  20
ENDBRANCH  10  14
ENDBRANCH   4   7
BRANCH   1  25
ATOM     24  C   UNL     1      -0.893  -1.471  -7.182  0.00  0.00    +0.024 C 
ATOM     25  C   UNL     1      -1.606  -0.135  -6.965  0.00  0.00    +0.050 C 
ATOM     26  C   UNL     1      -2.239   0.326  -8.279  0.00  0.00    +0.024 C 
ENDBRANCH   1  25
BRANCH   5  27
ATOM     27  C   UNL     1      -3.569   0.419  -3.283  0.00  0.00    +0.012 C 
BRANCH  27  28
ATOM     28  C   UNL     1      -2.673   1.587  -2.864  0.00  0.00    +0.096 C 
BRANCH  28  29
ATOM     29  C   UNL     1      -1.914   1.214  -1.616  0.00  0.00    +0.216 C 
ATOM     30  O   UNL     1      -2.074   0.123  -1.112  0.00  0.00    -0.276 OA
ATOM     31  N   UNL     1      -1.057   2.094  -1.061  0.00  0.00    -0.301 N 
ATOM     32  C   UNL     1      -0.344   1.707   0.136  0.00  0.00    +0.108 C 
ATOM     33  C   UNL     1      -1.179   2.088   1.383  0.00  0.00    +0.019 C 
ATOM     34  C   UNL     1      -1.188   3.548   1.565  0.00  0.00    +0.002 C 
ATOM     35  C   UNL     1      -1.844   4.319   0.422  0.00  0.00    +0.002 C 
ATOM     36  C   UNL     1      -0.828   4.555  -0.669  0.00  0.00    +0.019 C 
ATOM     37  C   UNL     1      -0.885   3.414  -1.700  0.00  0.00    +0.108 C 
ENDBRANCH  28  29
ENDBRANCH  27  28
ENDBRANCH   5  27
TORSDOF 7
