REMARK  Name = ZINC43301624
REMARK  5 active torsions:
REMARK  status: ('A' for Active; 'I' for Inactive)
REMARK    1  A    between atoms: C_1  and  C_2
REMARK    2  A    between atoms: C_2  and  C_3
REMARK    3  A    between atoms: C_3  and  N_4
REMARK    4  A    between atoms: N_7  and  C_10
REMARK    5  A    between atoms: C_10  and  C_11
REMARK                            x       y       z     vdW  Elec       q    Type
REMARK                         _______ _______ _______ _____ _____    ______ ____
ROOT
ATOM      1  C   UNL     1       2.974  -6.388  -2.622  0.00  0.00    +0.125 A 
ATOM      2  N   UNL     1       3.163  -7.715  -2.834  0.00  0.00    -0.309 N 
ATOM      3  H   UNL     1       2.787  -8.355  -2.210  0.00  0.00    +0.170 HD
ATOM      4  C   UNL     1       3.863  -8.162  -3.894  0.00  0.00    +0.260 A 
ATOM      5  O   UNL     1       4.024  -9.357  -4.071  0.00  0.00    -0.267 OA
ATOM      6  C   UNL     1       4.415  -7.208  -4.811  0.00  0.00    +0.075 A 
ATOM      7  C   UNL     1       5.203  -7.459  -6.017  0.00  0.00    -0.023 A 
ATOM      8  C   UNL     1       5.610  -6.380  -6.718  0.00  0.00    -0.004 A 
ATOM      9  S   UNL     1       4.977  -4.986  -5.823  0.00  0.00    -0.073 S 
ATOM     10  C   UNL     1       4.167  -5.860  -4.508  0.00  0.00    +0.116 A 
ATOM     11  N   UNL     1       3.460  -5.495  -3.442  0.00  0.00    -0.225 NA
ATOM     12  C   UNL     1       6.422  -6.368  -7.977  0.00  0.00    +0.043 C 
ATOM     13  C   UNL     1       7.047  -7.758  -8.162  0.00  0.00    +0.005 C 
ATOM     14  C   UNL     1       5.960  -8.817  -7.956  0.00  0.00    +0.005 C 
ATOM     15  C   UNL     1       5.559  -8.869  -6.481  0.00  0.00    +0.037 C 
ENDROOT
BRANCH   1  16
ATOM     16  C   UNL     1       2.183  -5.936  -1.421  0.00  0.00    +0.158 C 
BRANCH  16  20
ATOM     17  N   UNL     1       0.738  -1.966  -1.265  0.00  0.00    +0.381 N 
ATOM     18  C   UNL     1       1.548  -2.451  -0.140  0.00  0.00    -0.063 C 
ATOM     19  C   UNL     1       1.554  -3.981  -0.137  0.00  0.00    +0.066 C 
ATOM     20  N   UNL     1       2.108  -4.469  -1.407  0.00  0.00    -0.299 NA
ATOM     21  C   UNL     1       1.322  -3.971  -2.545  0.00  0.00    +0.066 C 
ATOM     22  C   UNL     1       1.318  -2.441  -2.528  0.00  0.00    -0.063 C 
ATOM     23  H   UNL     1      -0.204  -2.316  -1.175  0.00  0.00    -0.082 HD
BRANCH  17  24
ATOM     24  C   UNL     1       0.718  -0.497  -1.257  0.00  0.00    -0.079 C 
BRANCH  24  26
ATOM     25  C   UNL     1      -0.019   1.526   0.010  0.00  0.00    +0.002 C 
ATOM     26  C   UNL     1       0.002  -0.004   0.002  0.00  0.00    -0.022 C 
ENDBRANCH  24  26
ENDBRANCH  17  24
ENDBRANCH  16  20
ENDBRANCH   1  16
TORSDOF 4
