REMARK  Name = ZINC41584637
REMARK  7 active torsions:
REMARK  status: ('A' for Active; 'I' for Inactive)
REMARK    1  A    between atoms: C_1  and  C_2
REMARK    2  A    between atoms: C_2  and  C_3
REMARK    3  A    between atoms: C_6  and  C_9
REMARK    4  A    between atoms: C_16  and  O_34
REMARK    5  A    between atoms: C_17  and  C_20
REMARK    6  A    between atoms: C_20  and  N_21
REMARK    7  A    between atoms: C_26  and  C_28
REMARK                            x       y       z     vdW  Elec       q    Type
REMARK                         _______ _______ _______ _____ _____    ______ ____
ROOT
ATOM      1  C   UNL     1      -4.089  -0.857   0.103  0.00  0.00    +0.058 C 
ATOM      2  C   UNL     1      -4.986  -1.048  -0.896  0.00  0.00    +0.176 C 
ATOM      3  C   UNL     1      -6.435  -1.252  -0.737  0.00  0.00    +0.231 C 
ATOM      4  O   UNL     1      -7.074  -1.284   0.299  0.00  0.00    -0.283 OA
ATOM      5  C   UNL     1      -6.939  -1.407  -2.114  0.00  0.00    +0.068 A 
ATOM      6  C   UNL     1      -8.210  -1.626  -2.645  0.00  0.00    +0.019 A 
ATOM      7  C   UNL     1      -8.374  -1.730  -3.998  0.00  0.00    +0.046 A 
ATOM      8  C   UNL     1      -7.276  -1.619  -4.846  0.00  0.00    +0.122 A 
ATOM      9  C   UNL     1      -6.008  -1.402  -4.332  0.00  0.00    +0.020 A 
ATOM     10  C   UNL     1      -5.824  -1.293  -2.959  0.00  0.00    +0.144 A 
ATOM     11  O   UNL     1      -4.712  -1.081  -2.221  0.00  0.00    -0.451 OA
ENDROOT
BRANCH   1  15
ATOM     12  C   UNL     1      -0.053   0.062  -0.818  0.00  0.00    -0.048 A 
ATOM     13  C   UNL     1      -0.938  -0.247  -1.837  0.00  0.00    +0.004 A 
ATOM     14  C   UNL     1      -2.252  -0.547  -1.546  0.00  0.00    +0.008 A 
ATOM     15  C   UNL     1      -2.690  -0.539  -0.216  0.00  0.00    -0.021 A 
ATOM     16  C   UNL     1      -1.788  -0.225   0.807  0.00  0.00    +0.008 A 
ATOM     17  C   UNL     1      -0.476   0.067   0.499  0.00  0.00    +0.004 A 
BRANCH  12  19
ATOM     18  C   UNL     1       2.211  -0.897  -1.140  0.00  0.00    +0.009 C 
ATOM     19  C   UNL     1       1.381   0.388  -1.146  0.00  0.00    +0.032 C 
ENDBRANCH  12  19
ENDBRANCH   1  15
BRANCH   8  20
ATOM     20  O   UNL     1      -7.449  -1.725  -6.188  0.00  0.00    -0.506 OA
ATOM     21  H   UNL     1      -7.628  -0.883  -6.629  0.00  0.00    +0.292 HD
ENDBRANCH   8  20
BRANCH   9  22
ATOM     22  C   UNL     1      -4.828  -1.284  -5.262  0.00  0.00    -0.035 C 
BRANCH  22  23
ATOM     23  N   UNL     1      -4.352  -2.627  -5.622  0.00  0.00    +0.387 N 
ATOM     24  C   UNL     1      -3.844  -3.302  -4.422  0.00  0.00    -0.078 C 
ATOM     25  C   UNL     1      -3.422  -4.730  -4.776  0.00  0.00    -0.019 C 
ATOM     26  C   UNL     1      -2.323  -4.682  -5.841  0.00  0.00    -0.003 C 
ATOM     27  C   UNL     1      -2.838  -3.911  -7.059  0.00  0.00    -0.011 C 
ATOM     28  C   UNL     1      -3.282  -2.514  -6.620  0.00  0.00    -0.036 C 
ATOM     29  H   UNL     1      -5.116  -3.161  -6.008  0.00  0.00    -0.080 HD
BRANCH  28  30
ATOM     30  C   UNL     1      -3.791  -1.750  -7.816  0.00  0.00    -0.043 A 
ATOM     31  C   UNL     1      -3.039  -0.722  -8.364  0.00  0.00    +0.005 A 
ATOM     32  C   UNL     1      -3.546  -0.047  -9.464  0.00  0.00    +0.020 A 
ATOM     33  C   UNL     1      -4.776  -0.420  -9.974  0.00  0.00    +0.111 A 
ATOM     34  N   UNL     1      -5.463  -1.403  -9.427  0.00  0.00    -0.263 NA
ATOM     35  C   UNL     1      -5.009  -2.070  -8.384  0.00  0.00    +0.112 A 
ENDBRANCH  28  30
ENDBRANCH  22  23
ENDBRANCH   9  22
TORSDOF 6
