REMARK  Name = ZINC33272539
REMARK  11 active torsions:
REMARK  status: ('A' for Active; 'I' for Inactive)
REMARK    1  A    between atoms: C_1  and  C_2
REMARK    2  A    between atoms: C_5  and  C_8
REMARK    3  A    between atoms: C_8  and  N_9
REMARK    4  A    between atoms: N_16  and  C_21
REMARK    5  A    between atoms: C_21  and  C_22
REMARK    6  A    between atoms: C_22  and  C_23
REMARK    7  A    between atoms: N_25  and  C_26
REMARK    8  A    between atoms: C_26  and  C_27
REMARK    9  A    between atoms: C_27  and  C_28
REMARK   10  A    between atoms: C_28  and  C_30
REMARK   11  A    between atoms: C_28  and  N_31
REMARK                            x       y       z     vdW  Elec       q    Type
REMARK                         _______ _______ _______ _____ _____    ______ ____
ROOT
ATOM      1  N   UNL     1       0.043   5.375   0.164  0.00  0.00    -0.298 N 
ATOM      2  C   UNL     1       0.000   3.990   0.030  0.00  0.00    +0.069 A 
ATOM      3  C   UNL     1      -1.227   3.345  -0.069  0.00  0.00    +0.028 A 
ATOM      4  C   UNL     1      -1.277   1.973  -0.205  0.00  0.00    +0.002 A 
ATOM      5  C   UNL     1      -0.108   1.232  -0.236  0.00  0.00    +0.002 A 
ATOM      6  C   UNL     1       1.116   1.861  -0.139  0.00  0.00    +0.028 A 
ATOM      7  C   UNL     1       1.179   3.244  -0.006  0.00  0.00    +0.069 A 
ATOM      8  N   UNL     1       2.418   3.872   0.091  0.00  0.00    -0.302 N 
ATOM      9  C   UNL     1       2.489   5.212   0.221  0.00  0.00    +0.317 A 
ATOM     10  O   UNL     1       3.567   5.764   0.305  0.00  0.00    -0.262 OA
ATOM     11  C   UNL     1       1.229   6.009   0.259  0.00  0.00    +0.317 A 
ATOM     12  O   UNL     1       1.271   7.218   0.376  0.00  0.00    -0.262 OA
ENDROOT
BRANCH   1  13
ATOM     13  C   UNL     1      -1.204   6.145   0.199  0.00  0.00    +0.160 C 
BRANCH  13  18
ATOM     14  C   UNL     1      -2.679   7.672  -5.175  0.00  0.00    +0.044 C 
ATOM     15  C   UNL     1      -2.294   7.274  -3.773  0.00  0.00    -0.050 A 
ATOM     16  C   UNL     1      -2.746   6.079  -3.246  0.00  0.00    +0.004 A 
ATOM     17  C   UNL     1      -2.393   5.713  -1.960  0.00  0.00    +0.005 A 
ATOM     18  C   UNL     1      -1.588   6.543  -1.202  0.00  0.00    -0.028 A 
ATOM     19  C   UNL     1      -1.141   7.740  -1.728  0.00  0.00    +0.005 A 
ATOM     20  C   UNL     1      -1.490   8.104  -3.015  0.00  0.00    +0.004 A 
ENDBRANCH  13  18
ENDBRANCH   1  13
BRANCH   8  21
ATOM     21  C   UNL     1       3.647   3.075   0.052  0.00  0.00    +0.135 C 
BRANCH  21  22
ATOM     22  C   UNL     1       4.118   2.934  -1.397  0.00  0.00    +0.117 C 
BRANCH  22  23
ATOM     23  C   UNL     1       5.382   2.114  -1.436  0.00  0.00    +0.215 C 
ATOM     24  O   UNL     1       5.859   1.685  -0.407  0.00  0.00    -0.276 OA
ATOM     25  N   UNL     1       5.982   1.858  -2.616  0.00  0.00    -0.315 N 
ATOM     26  H   UNL     1       5.549   2.247  -3.549  0.00  0.00    +0.149 HD
BRANCH  25  27
ATOM     27  C   UNL     1       7.211   1.061  -2.655  0.00  0.00    +0.102 C 
BRANCH  27  28
ATOM     28  C   UNL     1       7.682   0.920  -4.103  0.00  0.00    +0.003 C 
BRANCH  28  29
ATOM     29  C   UNL     1       9.034   0.205  -4.133  0.00  0.00    -0.070 C 
ATOM     30  C   UNL     1       8.862  -1.231  -3.634  0.00  0.00    -0.013 C 
BRANCH  29  31
ATOM     31  N   UNL     1       9.548   0.187  -5.509  0.00  0.00    +0.381 N 
ATOM     32  C   UNL     1       9.717   1.567  -6.032  0.00  0.00    -0.079 C 
ATOM     33  C   UNL     1      10.716   1.383  -7.202  0.00  0.00    -0.020 C 
ATOM     34  C   UNL     1      11.680   0.299  -6.666  0.00  0.00    -0.020 C 
ATOM     35  C   UNL     1      10.890  -0.432  -5.565  0.00  0.00    -0.079 C 
ATOM     36  H   UNL     1       8.815  -0.386  -6.095  0.00  0.00    -0.081 HD
ENDBRANCH  29  31
ENDBRANCH  28  29
ENDBRANCH  27  28
ENDBRANCH  25  27
ENDBRANCH  22  23
ENDBRANCH  21  22
ENDBRANCH   8  21
TORSDOF 9
