REMARK  Name = ZINC14547761
REMARK  2 active torsions:
REMARK  status: ('A' for Active; 'I' for Inactive)
REMARK    1  A    between atoms: C_9  and  O_27
REMARK    2  A    between atoms: C_10  and  C_11
REMARK                            x       y       z     vdW  Elec       q    Type
REMARK                         _______ _______ _______ _____ _____    ______ ____
ROOT
ATOM      1  C   UNL     1       2.391   1.427  -0.436  0.00  0.00    +0.109 C 
ATOM      2  C   UNL     1       2.518   0.079   0.278  0.00  0.00    +0.029 C 
ATOM      3  C   UNL     1       3.596  -0.763  -0.466  0.00  0.00    +0.033 C 
ATOM      4  C   UNL     1       2.830  -1.369  -1.626  0.00  0.00    -0.030 C 
ATOM      5  C   UNL     1       1.545  -1.385  -1.369  0.00  0.00    -0.023 C 
ATOM      6  C   UNL     1       1.276  -0.788  -0.008  0.00  0.00    +0.049 C 
ATOM      7  C   UNL     1       0.002  -0.004   0.002  0.00  0.00    -0.019 A 
ATOM      8  C   UNL     1      -1.204  -0.693   0.004  0.00  0.00    +0.006 A 
ATOM      9  C   UNL     1      -2.402  -0.008   0.014  0.00  0.00    +0.000 A 
ATOM     10  C   UNL     1      -2.416   1.375   0.024  0.00  0.00    +0.002 A 
ATOM     11  C   UNL     1      -1.223   2.071   0.019  0.00  0.00    +0.023 A 
ATOM     12  C   UNL     1      -0.017   1.382   0.010  0.00  0.00    +0.031 A 
ATOM     13  N   UNL     1       1.183   2.101   0.002  0.00  0.00    -0.336 N 
ATOM     14  H   UNL     1       1.210   3.027   0.290  0.00  0.00    +0.147 HD
ENDROOT
BRANCH   1  24
ATOM     15  C   UNL     1       6.598   2.861  -2.974  0.00  0.00    +0.001 A 
ATOM     16  C   UNL     1       5.491   2.070  -3.277  0.00  0.00    +0.001 A 
ATOM     17  C   UNL     1       4.503   1.867  -2.364  0.00  0.00    +0.009 A 
ATOM     18  C   UNL     1       4.599   2.459  -1.092  0.00  0.00    -0.009 A 
ATOM     19  C   UNL     1       5.722   3.268  -0.785  0.00  0.00    -0.017 A 
ATOM     20  C   UNL     1       6.723   3.454  -1.755  0.00  0.00    +0.008 A 
ATOM     21  C   UNL     1       5.818   3.865   0.484  0.00  0.00    +0.012 A 
ATOM     22  C   UNL     1       4.832   3.665   1.399  0.00  0.00    +0.046 A 
ATOM     23  C   UNL     1       3.721   2.872   1.097  0.00  0.00    +0.122 A 
ATOM     24  C   UNL     1       3.596   2.278  -0.127  0.00  0.00    +0.022 A 
BRANCH  23  25
ATOM     25  O   UNL     1       2.752   2.691   2.032  0.00  0.00    -0.506 OA
ATOM     26  H   UNL     1       2.897   1.926   2.606  0.00  0.00    +0.292 HD
ENDBRANCH  23  25
ENDBRANCH   1  24
TORSDOF 2
