REMARK  Name = ZINC63362166
REMARK  11 active torsions:
REMARK  status: ('A' for Active; 'I' for Inactive)
REMARK    1  A    between atoms: C_1  and  C_2
REMARK    2  A    between atoms: C_2  and  C_4
REMARK    3  A    between atoms: C_2  and  N_10
REMARK    4  A    between atoms: C_4  and  C_5
REMARK    5  A    between atoms: C_5  and  C_6
REMARK    6  A    between atoms: C_6  and  C_7
REMARK    7  A    between atoms: C_7  and  C_8
REMARK    8  A    between atoms: C_7  and  C_9
REMARK    9  A    between atoms: C_11  and  C_13
REMARK   10  A    between atoms: C_17  and  N_19
REMARK   11  A    between atoms: C_22  and  C_38
REMARK                            x       y       z     vdW  Elec       q    Type
REMARK                         _______ _______ _______ _____ _____    ______ ____
ROOT
ATOM      1  N   UNL     1       6.220  -1.770   3.481  0.00  0.00    -0.192 N 
ATOM      2  C   UNL     1       6.994  -1.542   2.399  0.00  0.00    +0.253 C 
ATOM      3  O   UNL     1       6.625  -1.248   1.283  0.00  0.00    -0.272 OA
ATOM      4  C   UNL     1       8.419  -1.729   2.871  0.00  0.00    +0.137 C 
ATOM      5  C   UNL     1       9.112  -2.832   2.072  0.00  0.00    +0.139 C 
ATOM      6  C   UNL     1       9.329  -4.006   3.015  0.00  0.00    -0.034 C 
ATOM      7  C   UNL     1       8.749  -5.057   2.439  0.00  0.00    -0.001 A 
ATOM      8  C   UNL     1       8.681  -6.473   2.834  0.00  0.00    +0.010 A 
ATOM      9  C   UNL     1       7.983  -7.293   2.005  0.00  0.00    +0.001 A 
ATOM     10  C   UNL     1       7.355  -6.851   0.836  0.00  0.00    +0.002 A 
ATOM     11  C   UNL     1       7.370  -5.568   0.395  0.00  0.00    +0.026 A 
ATOM     12  C   UNL     1       8.077  -4.612   1.181  0.00  0.00    +0.043 A 
ATOM     13  N   UNL     1       8.270  -3.327   0.982  0.00  0.00    -0.375 N 
ATOM     14  C   UNL     1      10.015  -3.889   4.354  0.00  0.00    +0.052 C 
ATOM     15  C   UNL     1       9.335  -2.728   5.107  0.00  0.00    +0.115 C 
ATOM     16  N   UNL     1       8.258  -2.209   4.259  0.00  0.00    -0.268 N 
ATOM     17  C   UNL     1       6.953  -2.112   4.550  0.00  0.00    +0.316 C 
ATOM     18  O   UNL     1       6.488  -2.313   5.654  0.00  0.00    -0.252 OA
ATOM     19  C   UNL     1       9.199  -0.413   2.823  0.00  0.00    +0.044 C 
ATOM     20  H   UNL     1       7.918  -2.796   0.250  0.00  0.00    +0.160 HD
ENDROOT
BRANCH   1  25
ATOM     21  C   UNL     1       2.771  -1.067   2.380  0.00  0.00    +0.038 A 
ATOM     22  C   UNL     1       2.055  -1.444   3.518  0.00  0.00    +0.013 A 
ATOM     23  C   UNL     1       2.723  -1.923   4.626  0.00  0.00    +0.003 A 
ATOM     24  C   UNL     1       4.101  -2.031   4.614  0.00  0.00    +0.024 A 
ATOM     25  C   UNL     1       4.823  -1.659   3.487  0.00  0.00    +0.046 A 
ATOM     26  C   UNL     1       4.161  -1.182   2.367  0.00  0.00    +0.037 A 
BRANCH  21  28
ATOM     27  N   UNL     1       0.714  -0.443   1.206  0.00  0.00    -0.309 N 
ATOM     28  C   UNL     1       2.058  -0.553   1.191  0.00  0.00    +0.244 C 
ATOM     29  O   UNL     1       2.683  -0.230   0.200  0.00  0.00    -0.270 OA
ATOM     30  H   UNL     1       0.216  -0.701   1.997  0.00  0.00    +0.149 HD
BRANCH  27  32
ATOM     31  C   UNL     1      -0.013   1.595   0.067  0.00  0.00    +0.028 C 
ATOM     32  C   UNL     1       0.008   0.066   0.028  0.00  0.00    +0.070 C 
BRANCH  32  33
ATOM     33  C   UNL     1      -1.428  -0.463   0.026  0.00  0.00    +0.022 C 
BRANCH  33  34
ATOM     34  C   UNL     1      -1.410  -1.984  -0.139  0.00  0.00    +0.002 C 
BRANCH  34  35
ATOM     35  C   UNL     1      -2.845  -2.514  -0.141  0.00  0.00    +0.003 C 
BRANCH  35  36
ATOM     36  C   UNL     1      -2.828  -4.035  -0.305  0.00  0.00    -0.017 C 
ATOM     37  C   UNL     1      -4.253  -4.578  -0.183  0.00  0.00    +0.007 C 
ATOM     38  C   UNL     1      -2.262  -4.392  -1.681  0.00  0.00    +0.007 C 
ENDBRANCH  35  36
ENDBRANCH  34  35
ENDBRANCH  33  34
ENDBRANCH  32  33
ENDBRANCH  27  32
ENDBRANCH  21  28
ENDBRANCH   1  25
TORSDOF 7
