REMARK  Name = ZINC39469603
REMARK  7 active torsions:
REMARK  status: ('A' for Active; 'I' for Inactive)
REMARK    1  A    between atoms: C_1  and  S_2
REMARK    2  A    between atoms: S_2  and  C_3
REMARK    3  A    between atoms: C_15  and  C_16
REMARK    4  A    between atoms: C_16  and  C_17
REMARK    5  A    between atoms: P_25  and  S_28
REMARK    6  A    between atoms: S_28  and  O_31
REMARK    7  A    between atoms: O_31  and  C_32
REMARK                            x       y       z     vdW  Elec       q    Type
REMARK                         _______ _______ _______ _____ _____    ______ ____
ROOT
ATOM      1  C   UNL     1       0.848  -0.411  -1.489  0.00  0.00    +0.007 C 
ATOM      2  C   UNL     1       1.300   0.562  -2.296  0.00  0.00    -0.010 C 
ATOM      3  C   UNL     1       2.029   0.175  -3.553  0.00  0.00    +0.005 C 
ATOM      4  C   UNL     1       2.933   1.298  -4.049  0.00  0.00    -0.046 C 
ATOM      5  N   UNL     1       3.592   0.891  -5.302  0.00  0.00    +0.398 N 
ATOM      6  C   UNL     1       4.412  -0.305  -5.111  0.00  0.00    -0.020 C 
ATOM      7  C   UNL     1       3.574  -1.470  -4.566  0.00  0.00    -0.003 C 
ATOM      8  C   UNL     1       2.910  -1.047  -3.260  0.00  0.00    +0.016 C 
ATOM      9  C   UNL     1       2.049  -2.144  -2.699  0.00  0.00    -0.018 C 
ATOM     10  C   UNL     1       1.071  -1.825  -1.856  0.00  0.00    -0.034 C 
ATOM     11  C   UNL     1       5.019  -0.786  -6.435  0.00  0.00    +0.158 C 
ATOM     12  O   UNL     1       5.883   0.237  -6.964  0.00  0.00    -0.301 OA
ATOM     13  P   UNL     1       5.290   1.748  -7.068  0.00  0.00    +0.431 P 
ATOM     14  O   UNL     1       4.449   1.887  -8.278  0.00  0.00    -0.246 OA
ATOM     15  N   UNL     1       4.378   1.956  -5.689  0.00  0.00    -0.271 NA
ATOM     16  H   UNL     1       4.381   2.786  -5.187  0.00  0.00    +0.113 HD
ATOM     17  H   UNL     1       2.894   0.713  -6.008  0.00  0.00    -0.055 HD
ENDROOT
BRANCH  13  18
ATOM     18  S   UNL     1       6.873   3.157  -7.109  0.00  0.00    +0.209 S 
ATOM     19  O   UNL     1       6.281   4.427  -7.346  0.00  0.00    -0.126 OA
ATOM     20  O   UNL     1       7.682   2.894  -5.971  0.00  0.00    -0.126 OA
BRANCH  18  21
ATOM     21  O   UNL     1       7.725   2.841  -8.331  0.00  0.00    -0.339 OA
BRANCH  21  22
ATOM     22  C   UNL     1       7.165   3.220  -9.509  0.00  0.00    +0.157 A 
ATOM     23  C   UNL     1       6.342   2.344 -10.201  0.00  0.00    +0.048 A 
ATOM     24  C   UNL     1       5.773   2.732 -11.399  0.00  0.00    +0.004 A 
ATOM     25  C   UNL     1       6.023   3.993 -11.908  0.00  0.00    +0.000 A 
ATOM     26  C   UNL     1       6.843   4.869 -11.220  0.00  0.00    +0.004 A 
ATOM     27  C   UNL     1       7.409   4.487 -10.019  0.00  0.00    +0.048 A 
ENDBRANCH  21  22
ENDBRANCH  18  21
ENDBRANCH  13  18
BRANCH   1  29
ATOM     28  C   UNL     1      -0.022   1.810   0.012  0.00  0.00    +0.090 C 
ATOM     29  S   UNL     1       0.002  -0.004   0.002  0.00  0.00    -0.129 S 
ENDBRANCH   1  29
BRANCH  10  30
ATOM     30  C   UNL     1       0.188  -2.903  -1.282  0.00  0.00    +0.071 C 
BRANCH  30  31
ATOM     31  C   UNL     1       0.717  -3.321   0.065  0.00  0.00    -0.043 A 
ATOM     32  C   UNL     1       1.643  -4.344   0.157  0.00  0.00    +0.004 A 
ATOM     33  C   UNL     1       2.128  -4.728   1.393  0.00  0.00    +0.000 A 
ATOM     34  C   UNL     1       1.689  -4.088   2.538  0.00  0.00    +0.000 A 
ATOM     35  C   UNL     1       0.764  -3.065   2.446  0.00  0.00    +0.000 A 
ATOM     36  C   UNL     1       0.282  -2.678   1.209  0.00  0.00    +0.004 A 
ENDBRANCH  30  31
ENDBRANCH  10  30
TORSDOF 6
