REMARK  Name = ZINC41107180
REMARK  7 active torsions:
REMARK  status: ('A' for Active; 'I' for Inactive)
REMARK    1  A    between atoms: C_1  and  C_2
REMARK    2  A    between atoms: C_7  and  N_8
REMARK    3  A    between atoms: C_9  and  C_11
REMARK    4  A    between atoms: C_12  and  C_29
REMARK    5  A    between atoms: N_13  and  C_28
REMARK    6  A    between atoms: C_17  and  C_19
REMARK    7  A    between atoms: C_22  and  N_25
REMARK                            x       y       z     vdW  Elec       q    Type
REMARK                         _______ _______ _______ _____ _____    ______ ____
ROOT
ATOM      1  C   UNL     1      -0.012   0.371   4.774  0.00  0.00    +0.056 C 
ATOM      2  C   UNL     1      -0.236  -0.137   6.004  0.00  0.00    +0.019 C 
ATOM      3  N   UNL     1      -0.429   0.682   7.080  0.00  0.00    -0.289 N 
ATOM      4  C   UNL     1      -0.412   2.019   7.008  0.00  0.00    +0.137 C 
ATOM      5  S   UNL     1      -0.667   2.929   8.436  0.00  0.00    -0.018 S 
ATOM      6  N   UNL     1      -0.199   2.672   5.848  0.00  0.00    -0.315 N 
ATOM      7  C   UNL     1       0.025   1.879   4.628  0.00  0.00    +0.139 C 
ATOM      8  C   UNL     1      -0.668   0.063   8.386  0.00  0.00    +0.137 C 
ATOM      9  C   UNL     1      -0.276  -1.631   6.194  0.00  0.00    +0.061 C 
ATOM     10  H   UNL     1      -0.191   3.642   5.819  0.00  0.00    +0.149 HD
ENDROOT
BRANCH   7  11
ATOM     11  C   UNL     1      -1.025   2.275   3.623  0.00  0.00    -0.023 A 
ATOM     12  C   UNL     1      -2.361   2.255   3.975  0.00  0.00    +0.008 A 
ATOM     13  C   UNL     1      -3.324   2.618   3.052  0.00  0.00    +0.033 A 
ATOM     14  C   UNL     1      -2.951   3.002   1.778  0.00  0.00    +0.126 A 
ATOM     15  C   UNL     1      -1.614   3.023   1.426  0.00  0.00    +0.033 A 
ATOM     16  C   UNL     1      -0.651   2.663   2.350  0.00  0.00    +0.008 A 
BRANCH  14  17
ATOM     17  N   UNL     1      -3.982   3.390   0.790  0.00  0.00    +0.056 N 
ATOM     18  O   UNL     1      -5.152   3.371   1.097  0.00  0.00    -0.126 OA
ATOM     19  O   UNL     1      -3.656   3.725  -0.325  0.00  0.00    -0.126 OA
ENDBRANCH  14  17
ENDBRANCH   7  11
BRANCH   1  21
ATOM     20  N   UNL     1      -0.865  -1.086   3.076  0.00  0.00    -0.281 N 
ATOM     21  C   UNL     1       0.188  -0.477   3.657  0.00  0.00    +0.248 C 
ATOM     22  O   UNL     1       1.311  -0.657   3.222  0.00  0.00    -0.270 OA
ATOM     23  H   UNL     1      -1.766  -0.888   3.377  0.00  0.00    +0.155 HD
BRANCH  20  30
ATOM     24  C   UNL     1      -3.063  -1.714   1.383  0.00  0.00    +0.045 C 
ATOM     25  C   UNL     1      -1.705  -2.337   1.190  0.00  0.00    -0.029 A 
ATOM     26  C   UNL     1      -1.497  -3.238   0.164  0.00  0.00    +0.005 A 
ATOM     27  C   UNL     1      -0.250  -3.810  -0.014  0.00  0.00    +0.000 A 
ATOM     28  C   UNL     1       0.792  -3.482   0.834  0.00  0.00    +0.002 A 
ATOM     29  C   UNL     1       0.590  -2.582   1.862  0.00  0.00    +0.023 A 
ATOM     30  C   UNL     1      -0.659  -2.002   2.040  0.00  0.00    +0.037 A 
ENDBRANCH  20  30
ENDBRANCH   1  21
TORSDOF 4
