REMARK  Name = ZINC02309871
REMARK  10 active torsions:
REMARK  status: ('A' for Active; 'I' for Inactive)
REMARK    1  A    between atoms: C_1  and  C_2
REMARK    2  A    between atoms: C_2  and  O_3
REMARK    3  A    between atoms: O_3  and  C_4
REMARK    4  A    between atoms: C_4  and  C_6
REMARK    5  A    between atoms: C_7  and  N_17
REMARK    6  A    between atoms: C_18  and  C_20
REMARK    7  A    between atoms: C_20  and  C_22
REMARK    8  A    between atoms: C_20  and  N_56
REMARK    9  A    between atoms: C_24  and  C_31
REMARK   10  A    between atoms: C_27  and  C_30
REMARK                            x       y       z     vdW  Elec       q    Type
REMARK                         _______ _______ _______ _____ _____    ______ ____
ROOT
ATOM      1  C   UNL     1       2.914  -6.873   4.126  0.00  0.00    +0.147 A 
ATOM      2  C   UNL     1       2.143  -6.085   3.297  0.00  0.00    +0.073 A 
ATOM      3  C   UNL     1       1.610  -6.968   2.256  0.00  0.00    +0.024 A 
ATOM      4  C   UNL     1       0.782  -6.758   1.149  0.00  0.00    +0.050 A 
ATOM      5  C   UNL     1       0.450  -7.819   0.336  0.00  0.00    +0.124 A 
ATOM      6  C   UNL     1       0.934  -9.094   0.612  0.00  0.00    +0.040 A 
ATOM      7  C   UNL     1       1.750  -9.315   1.697  0.00  0.00    +0.029 A 
ATOM      8  C   UNL     1       2.100  -8.257   2.534  0.00  0.00    +0.049 A 
ATOM      9  N   UNL     1       2.880  -8.181   3.665  0.00  0.00    -0.348 N 
ATOM     10  H   UNL     1       3.340  -8.929   4.077  0.00  0.00    +0.166 HD
ATOM     11  F   UNL     1      -0.350  -7.621  -0.735  0.00  0.00    -0.205 F 
ENDROOT
BRANCH   2  12
ATOM     12  N   UNL     1       1.920  -4.718   3.421  0.00  0.00    -0.284 N 
ATOM     13  C   UNL     1       1.868  -3.941   2.321  0.00  0.00    +0.203 C 
ATOM     14  O   UNL     1       1.924  -4.445   1.219  0.00  0.00    -0.277 OA
ATOM     15  H   UNL     1       1.802  -4.323   4.299  0.00  0.00    +0.155 HD
BRANCH  13  16
ATOM     16  C   UNL     1       1.741  -2.445   2.460  0.00  0.00    +0.016 C 
ATOM     17  C   UNL     1       0.262  -2.054   2.428  0.00  0.00    -0.004 C 
BRANCH  16  25
ATOM     18  C   UNL     1       1.742  -2.007   0.079  0.00  0.00    -0.075 C 
ATOM     19  C   UNL     1       2.420  -1.192  -1.026  0.00  0.00    -0.031 C 
ATOM     20  C   UNL     1       3.883  -1.626  -1.149  0.00  0.00    +0.003 C 
ATOM     21  C   UNL     1       4.579  -1.435   0.201  0.00  0.00    -0.031 C 
ATOM     22  C   UNL     1       3.840  -2.242   1.270  0.00  0.00    -0.075 C 
ATOM     23  C   UNL     1       6.026  -1.921   0.103  0.00  0.00    +0.005 C 
ATOM     24  C   UNL     1       1.700  -1.436  -2.354  0.00  0.00    +0.005 C 
ATOM     25  N   UNL     1       2.445  -1.760   1.356  0.00  0.00    +0.387 N 
ATOM     26  H   UNL     1       2.453  -0.750   1.542  0.00  0.00    -0.081 HD
ENDBRANCH  16  25
ENDBRANCH  13  16
ENDBRANCH   2  12
BRANCH   1  27
ATOM     27  C   UNL     1       3.624  -6.420   5.267  0.00  0.00    +0.358 C 
ATOM     28  O   UNL     1       3.508  -5.267   5.638  0.00  0.00    -0.243 OA
BRANCH  27  29
ATOM     29  O   UNL     1       4.429  -7.267   5.942  0.00  0.00    -0.460 OA
BRANCH  29  31
ATOM     30  C   UNL     1       5.972  -7.843   7.711  0.00  0.00    +0.048 C 
ATOM     31  C   UNL     1       5.114  -6.743   7.081  0.00  0.00    +0.229 C 
ENDBRANCH  29  31
ENDBRANCH  27  29
ENDBRANCH   1  27
TORSDOF 6
