REMARK  Name = ZINC16319324
REMARK  9 active torsions:
REMARK  status: ('A' for Active; 'I' for Inactive)
REMARK    1  A    between atoms: C_1  and  C_2
REMARK    2  A    between atoms: C_2  and  O_3
REMARK    3  A    between atoms: O_3  and  C_4
REMARK    4  A    between atoms: C_7  and  N_10
REMARK    5  A    between atoms: C_14  and  C_26
REMARK    6  A    between atoms: N_15  and  C_16
REMARK    7  A    between atoms: C_16  and  C_17
REMARK    8  A    between atoms: C_20  and  N_23
REMARK    9  A    between atoms: C_29  and  C_32
REMARK                            x       y       z     vdW  Elec       q    Type
REMARK                         _______ _______ _______ _____ _____    ______ ____
ROOT
ATOM      1  N   UNL     1       3.760  -6.460   0.931  0.00  0.00    -0.335 N 
ATOM      2  C   UNL     1       2.559  -6.790   1.510  0.00  0.00    +0.157 C 
ATOM      3  S   UNL     1       1.224  -5.838   1.251  0.00  0.00    -0.013 SA
ATOM      4  N   UNL     1       2.465  -7.881   2.285  0.00  0.00    -0.323 N 
ATOM      5  C   UNL     1       3.531  -8.335   2.918  0.00  0.00    +0.106 C 
ATOM      6  N   UNL     1       3.526  -9.596   3.450  0.00  0.00    -0.326 N 
ATOM      7  H   UNL     1       4.309  -9.930   3.914  0.00  0.00    +0.148 HD
ATOM      8  H   UNL     1       1.614  -8.336   2.382  0.00  0.00    +0.169 HD
ATOM      9  H   UNL     1       4.520  -7.057   1.016  0.00  0.00    +0.168 HD
ENDROOT
BRANCH   5  10
ATOM     10  C   UNL     1       4.730  -7.484   3.050  0.00  0.00    +0.013 A 
ATOM     11  C   UNL     1       4.601  -6.145   3.428  0.00  0.00    +0.011 A 
ATOM     12  C   UNL     1       5.725  -5.355   3.550  0.00  0.00    +0.004 A 
ATOM     13  C   UNL     1       6.979  -5.886   3.299  0.00  0.00    -0.050 A 
ATOM     14  C   UNL     1       7.114  -7.211   2.924  0.00  0.00    +0.004 A 
ATOM     15  C   UNL     1       5.999  -8.014   2.804  0.00  0.00    +0.011 A 
ATOM     16  C   UNL     1       8.202  -5.016   3.434  0.00  0.00    +0.044 C 
ENDBRANCH   5  10
BRANCH   1  20
ATOM     17  C   UNL     1       4.142  -2.893  -1.193  0.00  0.00    +0.121 A 
ATOM     18  C   UNL     1       5.021  -3.182  -0.160  0.00  0.00    +0.047 A 
ATOM     19  C   UNL     1       4.895  -4.363   0.544  0.00  0.00    +0.029 A 
ATOM     20  C   UNL     1       3.888  -5.262   0.217  0.00  0.00    +0.041 A 
ATOM     21  C   UNL     1       3.009  -4.971  -0.817  0.00  0.00    +0.029 A 
ATOM     22  C   UNL     1       3.132  -3.787  -1.517  0.00  0.00    +0.047 A 
BRANCH  17  23
ATOM     23  O   UNL     1       4.266  -1.729  -1.886  0.00  0.00    -0.492 OA
BRANCH  23  25
ATOM     24  C   UNL     1       5.309   0.393  -2.385  0.00  0.00    +0.048 C 
ATOM     25  C   UNL     1       5.328  -0.854  -1.499  0.00  0.00    +0.225 C 
ENDBRANCH  23  25
ENDBRANCH  17  23
ENDBRANCH   1  20
BRANCH   6  26
ATOM     26  C   UNL     1       2.336 -10.441   3.319  0.00  0.00    +0.138 C 
BRANCH  26  27
ATOM     27  C   UNL     1       2.588 -11.769   3.986  0.00  0.00    -0.030 A 
ATOM     28  C   UNL     1       3.133 -12.813   3.262  0.00  0.00    +0.007 A 
ATOM     29  C   UNL     1       3.363 -14.031   3.874  0.00  0.00    +0.033 A 
ATOM     30  C   UNL     1       3.049 -14.205   5.209  0.00  0.00    +0.126 A 
ATOM     31  C   UNL     1       2.505 -13.160   5.933  0.00  0.00    +0.033 A 
ATOM     32  C   UNL     1       2.278 -11.941   5.322  0.00  0.00    +0.007 A 
BRANCH  30  33
ATOM     33  N   UNL     1       3.295 -15.509   5.864  0.00  0.00    +0.056 N 
ATOM     34  O   UNL     1       3.771 -16.423   5.231  0.00  0.00    -0.126 OA
ATOM     35  O   UNL     1       3.020 -15.661   7.032  0.00  0.00    -0.126 OA
ENDBRANCH  30  33
ENDBRANCH  26  27
ENDBRANCH   6  26
TORSDOF 7
