REMARK  Name = ZINC03600776
REMARK  5 active torsions:
REMARK  status: ('A' for Active; 'I' for Inactive)
REMARK    1  A    between atoms: C_1  and  C_2
REMARK    2  A    between atoms: C_5  and  N_9
REMARK    3  A    between atoms: C_6  and  C_8
REMARK    4  A    between atoms: C_10  and  C_12
REMARK    5  A    between atoms: C_12  and  N_13
REMARK                            x       y       z     vdW  Elec       q    Type
REMARK                         _______ _______ _______ _____ _____    ______ ____
ROOT
ATOM      1  N   UNL     1      -0.232  -6.826  -2.567  0.00  0.00    -0.215 N 
ATOM      2  C   UNL     1      -1.395  -7.001  -3.228  0.00  0.00    +0.251 C 
ATOM      3  O   UNL     1      -2.514  -6.797  -2.809  0.00  0.00    -0.272 OA
ATOM      4  C   UNL     1      -1.008  -7.505  -4.600  0.00  0.00    +0.138 C 
ATOM      5  C   UNL     1      -1.469  -6.526  -5.672  0.00  0.00    +0.040 C 
ATOM      6  C   UNL     1      -2.995  -6.628  -5.796  0.00  0.00    +0.008 C 
ATOM      7  C   UNL     1      -3.341  -7.984  -6.406  0.00  0.00    +0.035 C 
ATOM      8  C   UNL     1      -2.656  -9.097  -5.657  0.00  0.00    -0.042 A 
ATOM      9  C   UNL     1      -1.578  -8.877  -4.828  0.00  0.00    -0.012 A 
ATOM     10  C   UNL     1      -0.985  -9.948  -4.173  0.00  0.00    +0.006 A 
ATOM     11  C   UNL     1      -1.470 -11.229  -4.340  0.00  0.00    +0.000 A 
ATOM     12  C   UNL     1      -2.556 -11.448  -5.167  0.00  0.00    +0.000 A 
ATOM     13  C   UNL     1      -3.145 -10.386  -5.822  0.00  0.00    +0.004 A 
ATOM     14  N   UNL     1       0.460  -7.563  -4.556  0.00  0.00    -0.281 N 
ATOM     15  C   UNL     1       0.822  -7.142  -3.329  0.00  0.00    +0.310 C 
ATOM     16  O   UNL     1       1.975  -7.061  -2.956  0.00  0.00    -0.252 OA
ATOM     17  H   UNL     1       1.051  -7.846  -5.271  0.00  0.00    +0.152 HD
ENDROOT
BRANCH   1  18
ATOM     18  C   UNL     1      -0.134  -6.343  -1.187  0.00  0.00    +0.214 C 
BRANCH  18  20
ATOM     19  N   UNL     1       0.059  -4.170  -0.021  0.00  0.00    -0.284 N 
ATOM     20  C   UNL     1      -0.040  -4.839  -1.187  0.00  0.00    +0.235 C 
ATOM     21  O   UNL     1      -0.054  -4.230  -2.236  0.00  0.00    -0.274 OA
ATOM     22  H   UNL     1       0.135  -4.658   0.814  0.00  0.00    +0.155 HD
BRANCH  19  27
ATOM     23  C   UNL     1       0.025   1.503   0.005  0.00  0.00    +0.044 C 
ATOM     24  C   UNL     1       0.034  -0.004  -0.002  0.00  0.00    -0.050 A 
ATOM     25  C   UNL     1       0.632  -0.685  -1.046  0.00  0.00    +0.005 A 
ATOM     26  C   UNL     1       0.641  -2.066  -1.055  0.00  0.00    +0.024 A 
ATOM     27  C   UNL     1       0.051  -2.771  -0.014  0.00  0.00    +0.036 A 
ATOM     28  C   UNL     1      -0.548  -2.083   1.033  0.00  0.00    -0.029 A 
ATOM     29  C   UNL     1      -0.550  -0.702   1.039  0.00  0.00    +0.008 A 
ATOM     30  C   UNL     1      -1.190  -2.843   2.165  0.00  0.00    +0.045 C 
ENDBRANCH  19  27
ENDBRANCH  18  20
ENDBRANCH   1  18
TORSDOF 3
