REMARK  Name = ZINC38891213
REMARK  10 active torsions:
REMARK  status: ('A' for Active; 'I' for Inactive)
REMARK    1  A    between atoms: C_1  and  C_2
REMARK    2  A    between atoms: C_2  and  C_3
REMARK    3  A    between atoms: C_3  and  C_4
REMARK    4  A    between atoms: C_4  and  C_5
REMARK    5  A    between atoms: C_4  and  C_8
REMARK    6  A    between atoms: C_5  and  C_6
REMARK    7  A    between atoms: C_6  and  C_7
REMARK    8  A    between atoms: N_13  and  C_16
REMARK    9  A    between atoms: C_16  and  C_17
REMARK   10  A    between atoms: C_19  and  C_22
REMARK                            x       y       z     vdW  Elec       q    Type
REMARK                         _______ _______ _______ _____ _____    ______ ____
ROOT
ATOM      1  C   UNL     1       1.268  -2.624  -2.201  0.00  0.00    +0.219 C 
ATOM      2  O   UNL     1       1.914  -1.874  -2.902  0.00  0.00    -0.275 OA
ATOM      3  N   UNL     1       1.267  -3.948  -2.455  0.00  0.00    -0.299 N 
ATOM      4  C   UNL     1       0.577  -4.887  -1.558  0.00  0.00    +0.123 C 
ATOM      5  C   UNL     1      -0.346  -5.775  -2.400  0.00  0.00    +0.104 C 
ATOM      6  N   UNL     1       0.431  -6.402  -3.477  0.00  0.00    -0.293 NA
ATOM      7  C   UNL     1       0.977  -5.394  -4.396  0.00  0.00    +0.104 C 
ATOM      8  C   UNL     1       1.949  -4.491  -3.639  0.00  0.00    +0.123 C 
ENDROOT
BRANCH   1   9
ATOM      9  C   UNL     1       0.468  -2.077  -1.048  0.00  0.00    +0.075 C 
BRANCH   9  10
ATOM     10  C   UNL     1       1.298  -2.162   0.235  0.00  0.00    +0.012 C 
BRANCH  10  12
ATOM     11  C   UNL     1       1.274  -1.809   2.708  0.00  0.00    +0.004 C 
ATOM     12  C   UNL     1       0.444  -1.723   1.425  0.00  0.00    -0.003 C 
ENDBRANCH  10  12
ENDBRANCH   9  10
BRANCH   9  13
ATOM     13  C   UNL     1       0.107  -0.616  -1.325  0.00  0.00    +0.012 C 
BRANCH  13  14
ATOM     14  C   UNL     1      -0.827  -0.543  -2.535  0.00  0.00    -0.003 C 
ATOM     15  C   UNL     1      -1.290   0.901  -2.735  0.00  0.00    +0.004 C 
ENDBRANCH  13  14
ENDBRANCH   9  13
ENDBRANCH   1   9
BRANCH   6  16
ATOM     16  C   UNL     1      -0.377  -7.393  -4.201  0.00  0.00    +0.147 C 
BRANCH  16  17
ATOM     17  C   UNL     1       0.511  -8.184  -5.127  0.00  0.00    +0.093 A 
ATOM     18  N   UNL     1       1.152  -9.296  -4.878  0.00  0.00    -0.242 NA
ATOM     19  C   UNL     1       1.902  -9.882  -5.803  0.00  0.00    +0.085 A 
ATOM     20  C   UNL     1       1.964  -9.259  -7.022  0.00  0.00    +0.075 A 
ATOM     21  S   UNL     1       0.906  -7.851  -6.728  0.00  0.00    -0.079 S 
BRANCH  19  22
ATOM     22  C   UNL     1       2.631 -11.140  -5.532  0.00  0.00    +0.038 A 
ATOM     23  C   UNL     1       3.515 -11.814  -6.331  0.00  0.00    +0.017 A 
ATOM     24  C   UNL     1       4.077 -12.981  -5.859  0.00  0.00    +0.008 A 
ATOM     25  C   UNL     1       3.740 -13.425  -4.622  0.00  0.00    +0.046 A 
ATOM     26  S   UNL     1       2.595 -12.170  -4.074  0.00  0.00    -0.095 S 
ENDBRANCH  19  22
ENDBRANCH  16  17
ENDBRANCH   6  16
TORSDOF 8
