REMARK  Name = ZINC12151008
REMARK  11 active torsions:
REMARK  status: ('A' for Active; 'I' for Inactive)
REMARK    1  A    between atoms: C_1  and  N_2
REMARK    2  A    between atoms: C_10  and  C_11
REMARK    3  A    between atoms: C_11  and  N_12
REMARK    4  A    between atoms: C_13  and  C_15
REMARK    5  A    between atoms: C_18  and  C_30
REMARK    6  A    between atoms: C_19  and  N_20
REMARK    7  A    between atoms: N_20  and  C_21
REMARK    8  A    between atoms: N_20  and  C_22
REMARK    9  A    between atoms: C_22  and  C_23
REMARK   10  A    between atoms: C_33  and  S_36
REMARK   11  A    between atoms: S_36  and  C_37
REMARK                            x       y       z     vdW  Elec       q    Type
REMARK                         _______ _______ _______ _____ _____    ______ ____
ROOT
ATOM      1  C   UNL     1      -3.404   8.816  -3.119  0.00  0.00    +0.075 A 
ATOM      2  C   UNL     1      -2.988   8.114  -4.259  0.00  0.00    +0.018 A 
ATOM      3  C   UNL     1      -3.549   8.442  -5.475  0.00  0.00    +0.027 A 
ATOM      4  C   UNL     1      -4.498   9.464  -5.539  0.00  0.00    +0.048 A 
ATOM      5  C   UNL     1      -4.366   9.832  -3.258  0.00  0.00    +0.111 A 
ATOM      6  N   UNL     1      -4.927  10.176  -4.452  0.00  0.00    -0.342 N 
ATOM      7  H   UNL     1      -5.628  10.922  -4.530  0.00  0.00    +0.167 HD
ENDROOT
BRANCH   4   8
ATOM      8  C   UNL     1      -5.097   9.823  -6.845  0.00  0.00    -0.002 A 
ATOM      9  C   UNL     1      -4.707   9.146  -8.002  0.00  0.00    +0.011 A 
ATOM     10  C   UNL     1      -5.270   9.478  -9.214  0.00  0.00    +0.015 A 
ATOM     11  C   UNL     1      -6.217  10.495  -9.288  0.00  0.00    +0.008 A 
ATOM     12  C   UNL     1      -6.604  11.174  -8.137  0.00  0.00    +0.015 A 
ATOM     13  C   UNL     1      -6.048  10.842  -6.921  0.00  0.00    +0.011 A 
BRANCH  11  14
ATOM     14  S   UNL     1      -6.929  10.923 -10.842  0.00  0.00    -0.129 S 
ATOM     15  C   UNL     1      -6.133   9.791 -12.016  0.00  0.00    +0.090 C 
ENDBRANCH  11  14
ENDBRANCH   4   8
BRANCH   1  17
ATOM     16  N   UNL     1      -1.974   7.473  -1.663  0.00  0.00    -0.304 N 
ATOM     17  C   UNL     1      -2.840   8.497  -1.797  0.00  0.00    +0.248 C 
ATOM     18  O   UNL     1      -3.154   9.159  -0.826  0.00  0.00    -0.270 OA
ATOM     19  H   UNL     1      -1.724   6.945  -2.438  0.00  0.00    +0.149 HD
BRANCH  16  20
ATOM     20  C   UNL     1      -1.412   7.156  -0.348  0.00  0.00    +0.179 C 
BRANCH  20  30
ATOM     21  C   UNL     1      -2.199   4.180  -0.053  0.00  0.00    +0.150 C 
ATOM     22  N   UNL     1      -0.850   4.675  -0.337  0.00  0.00    -0.329 N 
ATOM     23  C   UNL     1       0.282   3.906  -0.518  0.00  0.00    +0.069 A 
ATOM     24  C   UNL     1       0.536   2.542  -0.508  0.00  0.00    +0.028 A 
ATOM     25  C   UNL     1       1.818   2.084  -0.728  0.00  0.00    +0.002 A 
ATOM     26  C   UNL     1       2.852   2.978  -0.969  0.00  0.00    +0.002 A 
ATOM     27  C   UNL     1       2.620   4.324  -0.988  0.00  0.00    +0.030 A 
ATOM     28  C   UNL     1       1.330   4.811  -0.763  0.00  0.00    +0.089 A 
ATOM     29  N   UNL     1       0.794   6.058  -0.719  0.00  0.00    -0.231 NA
ATOM     30  C   UNL     1      -0.481   5.977  -0.470  0.00  0.00    +0.128 A 
ENDBRANCH  20  30
ENDBRANCH  16  20
ENDBRANCH   1  17
BRANCH   5  31
ATOM     31  N   UNL     1      -4.784  10.539  -2.146  0.00  0.00    -0.317 N 
ATOM     32  C   UNL     1      -4.367  11.945  -2.228  0.00  0.00    +0.130 C 
BRANCH  31  33
ATOM     33  C   UNL     1      -6.238  10.431  -1.969  0.00  0.00    +0.140 C 
BRANCH  33  34
ATOM     34  C   UNL     1      -6.605   8.982  -1.639  0.00  0.00    +0.161 C 
ATOM     35  C   UNL     1      -8.129   8.844  -1.570  0.00  0.00    +0.193 C 
ATOM     36  O   UNL     1      -8.461   7.516  -1.153  0.00  0.00    -0.375 OA
ATOM     37  C   UNL     1      -7.899   7.156   0.113  0.00  0.00    +0.188 C 
ATOM     38  C   UNL     1      -6.375   7.295   0.043  0.00  0.00    +0.188 C 
ATOM     39  O   UNL     1      -6.043   8.622  -0.374  0.00  0.00    -0.370 OA
ENDBRANCH  33  34
ENDBRANCH  31  33
ENDBRANCH   5  31
TORSDOF 8
