REMARK  Name = ZINC58950915
REMARK  4 active torsions:
REMARK  status: ('A' for Active; 'I' for Inactive)
REMARK    1  A    between atoms: C_1  and  C_2
REMARK    2  A    between atoms: C_9  and  N_26
REMARK    3  A    between atoms: C_10  and  C_23
REMARK    4  A    between atoms: C_11  and  C_13
REMARK                            x       y       z     vdW  Elec       q    Type
REMARK                         _______ _______ _______ _____ _____    ______ ____
ROOT
ATOM      1  C   UNL     1       0.515   1.530  -0.093  0.00  0.00    +0.068 C 
ATOM      2  C   UNL     1       0.295   0.039  -0.055  0.00  0.00    +0.068 A 
ATOM      3  C   UNL     1       0.169  -0.795  -1.157  0.00  0.00    +0.049 A 
ATOM      4  C   UNL     1      -0.019  -2.071  -0.704  0.00  0.00    +0.222 A 
ATOM      5  N   UNL     1      -0.009  -2.030   0.638  0.00  0.00    -0.246 N 
ATOM      6  H   UNL     1      -0.119  -2.789   1.233  0.00  0.00    +0.192 HD
ATOM      7  N   UNL     1       0.195  -0.697   1.026  0.00  0.00    -0.176 NA
ATOM      8  O   UNL     1      -0.180  -3.128  -1.538  0.00  0.00    -0.424 OA
ATOM      9  C   UNL     1      -0.427  -2.867  -2.837  0.00  0.00    +0.195 C 
ATOM     10  C   UNL     1      -0.266  -1.649  -3.404  0.00  0.00    +0.083 C 
ATOM     11  C   UNL     1       0.217  -0.452  -2.624  0.00  0.00    +0.096 C 
ENDROOT
BRANCH  11  12
ATOM     12  C   UNL     1       1.633  -0.122  -3.023  0.00  0.00    -0.034 A 
ATOM     13  C   UNL     1       2.630  -1.083  -2.871  0.00  0.00    +0.005 A 
ATOM     14  C   UNL     1       3.918  -0.818  -3.221  0.00  0.00    +0.009 A 
ATOM     15  C   UNL     1       4.251   0.444  -3.744  0.00  0.00    -0.018 A 
ATOM     16  C   UNL     1       5.570   0.754  -4.116  0.00  0.00    +0.008 A 
ATOM     17  C   UNL     1       5.855   1.986  -4.620  0.00  0.00    +0.001 A 
ATOM     18  C   UNL     1       4.857   2.948  -4.771  0.00  0.00    +0.001 A 
ATOM     19  C   UNL     1       3.569   2.682  -4.421  0.00  0.00    +0.008 A 
ATOM     20  C   UNL     1       3.236   1.421  -3.898  0.00  0.00    -0.018 A 
ATOM     21  C   UNL     1       1.917   1.108  -3.530  0.00  0.00    +0.013 A 
ENDBRANCH  11  12
BRANCH  10  22
ATOM     22  C   UNL     1      -0.559  -1.494  -4.769  0.00  0.00    +0.243 C 
ATOM     23  O   UNL     1      -1.613  -0.987  -5.112  0.00  0.00    -0.271 OA
ATOM     24  N   UNL     1       0.325  -1.905  -5.699  0.00  0.00    -0.325 N 
ATOM     25  H   UNL     1       1.164  -2.309  -5.426  0.00  0.00    +0.145 HD
ATOM     26  H   UNL     1       0.123  -1.798  -6.642  0.00  0.00    +0.145 HD
ENDBRANCH  10  22
BRANCH   9  27
ATOM     27  N   UNL     1      -0.866  -3.895  -3.630  0.00  0.00    -0.329 N 
ATOM     28  H   UNL     1      -0.908  -4.797  -3.276  0.00  0.00    +0.145 HD
ATOM     29  H   UNL     1      -1.136  -3.720  -4.545  0.00  0.00    +0.145 HD
ENDBRANCH   9  27
TORSDOF 3
