REMARK  Name = ZINC28225739
REMARK  3 active torsions:
REMARK  status: ('A' for Active; 'I' for Inactive)
REMARK    1  A    between atoms: C_5  and  N_7
REMARK    2  A    between atoms: N_10  and  C_11
REMARK    3  A    between atoms: C_12  and  C_19
REMARK                            x       y       z     vdW  Elec       q    Type
REMARK                         _______ _______ _______ _____ _____    ______ ____
ROOT
ATOM      1  N   UNL     1      -3.434   2.884   0.035  0.00  0.00    -0.268 N 
ATOM      2  C   UNL     1      -2.367   2.061   0.032  0.00  0.00    +0.309 C 
ATOM      3  O   UNL     1      -2.529   0.856   0.023  0.00  0.00    -0.252 OA
ATOM      4  N   UNL     1      -1.121   2.573   0.038  0.00  0.00    -0.262 N 
ATOM      5  H   UNL     1      -3.289   3.972   0.118  0.00  0.00    +0.156 HD
ATOM      6  H   UNL     1      -0.974   3.663   0.047  0.00  0.00    +0.157 HD
ENDROOT
BRANCH   4   7
ATOM      7  C   UNL     1      -0.022   1.725   0.035  0.00  0.00    +0.091 A 
ATOM      8  C   UNL     1       1.321   2.058   0.035  0.00  0.00    +0.084 A 
ATOM      9  C   UNL     1       2.291   0.963   0.024  0.00  0.00    -0.018 A 
ATOM     10  C   UNL     1       1.757  -0.272   0.016  0.00  0.00    -0.004 A 
ATOM     11  S   UNL     1       0.001  -0.005   0.022  0.00  0.00    -0.077 S 
ATOM     12  C   UNL     1       2.814  -1.343   0.009  0.00  0.00    +0.043 C 
ATOM     13  C   UNL     1       4.105  -0.618   0.450  0.00  0.00    +0.010 C 
ATOM     14  C   UNL     1       3.814   0.833   0.018  0.00  0.00    +0.037 C 
BRANCH   8  15
ATOM     15  C   UNL     1       1.746   3.425   0.044  0.00  0.00    +0.102 C 
ATOM     16  N   UNL     1       2.084   4.510   0.052  0.00  0.00    -0.191 NA
ENDBRANCH   8  15
ENDBRANCH   4   7
BRANCH   1  21
ATOM     17  C   UNL     1      -6.304   0.617   0.422  0.00  0.00    +0.002 A 
ATOM     18  C   UNL     1      -7.281   1.311  -0.267  0.00  0.00    +0.002 A 
ATOM     19  C   UNL     1      -6.985   2.526  -0.857  0.00  0.00    +0.022 A 
ATOM     20  C   UNL     1      -5.710   3.051  -0.759  0.00  0.00    +0.062 A 
ATOM     21  C   UNL     1      -4.726   2.356  -0.066  0.00  0.00    +0.053 A 
ATOM     22  C   UNL     1      -5.027   1.134   0.520  0.00  0.00    +0.025 A 
ATOM     23 CL   UNL     1      -5.338   4.576  -1.501  0.00  0.00    -0.082 Cl
ENDBRANCH   1  21
TORSDOF 3
