REMARK  Name = ZINC49726794
REMARK  10 active torsions:
REMARK  status: ('A' for Active; 'I' for Inactive)
REMARK    1  A    between atoms: C_1  and  C_2
REMARK    2  A    between atoms: C_2  and  C_4
REMARK    3  A    between atoms: C_2  and  N_9
REMARK    4  A    between atoms: N_9  and  C_10
REMARK    5  A    between atoms: N_9  and  C_11
REMARK    6  A    between atoms: C_11  and  C_12
REMARK    7  A    between atoms: C_12  and  O_13
REMARK    8  A    between atoms: O_13  and  C_14
REMARK    9  A    between atoms: C_17  and  C_20
REMARK   10  A    between atoms: C_20  and  C_21
REMARK                            x       y       z     vdW  Elec       q    Type
REMARK                         _______ _______ _______ _____ _____    ______ ____
ROOT
ATOM      1  C   UNL     1      -3.072  -0.810   1.730  0.00  0.00    +0.244 C 
ENDROOT
BRANCH   1   2
ATOM      2  C   UNL     1      -1.708  -0.195   1.407  0.00  0.00    +0.125 C 
BRANCH   2   3
ATOM      3  N   UNL     1      -1.335  -0.528   0.026  0.00  0.00    -0.295 NA
ATOM      4  C   UNL     1      -0.957  -1.943  -0.090  0.00  0.00    +0.105 C 
BRANCH   3   6
ATOM      5  C   UNL     1      -0.724   1.803  -0.409  0.00  0.00    +0.030 C 
ATOM      6  C   UNL     1      -0.257   0.346  -0.454  0.00  0.00    +0.090 C 
BRANCH   6   7
ATOM      7  C   UNL     1       0.097  -0.024  -1.871  0.00  0.00    +0.007 A 
ATOM      8  C   UNL     1       1.319  -0.100  -2.453  0.00  0.00    +0.013 A 
ATOM      9  C   UNL     1       1.406  -0.466  -3.783  0.00  0.00    +0.008 A 
ATOM     10  C   UNL     1       0.268  -0.739  -4.465  0.00  0.00    +0.045 A 
ATOM     11  S   UNL     1      -0.982  -0.485  -3.216  0.00  0.00    -0.100 S 
ENDBRANCH   6   7
ENDBRANCH   3   6
ENDBRANCH   2   3
ENDBRANCH   1   2
BRANCH   1  12
ATOM     12  O   UNL     1      -2.954  -2.233   1.775  0.00  0.00    -0.491 OA
BRANCH  12  13
ATOM     13  C   UNL     1      -4.083  -2.937   2.051  0.00  0.00    +0.121 A 
ATOM     14  C   UNL     1      -5.281  -2.272   2.269  0.00  0.00    +0.046 A 
ATOM     15  C   UNL     1      -6.428  -2.990   2.550  0.00  0.00    +0.008 A 
ATOM     16  C   UNL     1      -6.382  -4.370   2.614  0.00  0.00    -0.033 A 
ATOM     17  C   UNL     1      -5.189  -5.035   2.398  0.00  0.00    +0.008 A 
ATOM     18  C   UNL     1      -4.042  -4.322   2.111  0.00  0.00    +0.046 A 
BRANCH  16  19
ATOM     19  C   UNL     1      -7.634  -5.151   2.921  0.00  0.00    +0.153 C 
BRANCH  19  20
ATOM     20  C   UNL     1      -8.329  -5.477   1.665  0.00  0.00    +0.067 C 
ATOM     21  N   UNL     1      -8.865  -5.729   0.696  0.00  0.00    -0.196 NA
ENDBRANCH  19  20
ENDBRANCH  16  19
ENDBRANCH  12  13
ENDBRANCH   1  12
TORSDOF 8
