REMARK  Name = ZINC02368123
REMARK  5 active torsions:
REMARK  status: ('A' for Active; 'I' for Inactive)
REMARK    1  A    between atoms: C_9  and  S_21
REMARK    2  A    between atoms: C_10  and  N_20
REMARK    3  A    between atoms: N_11  and  C_14
REMARK    4  A    between atoms: C_14  and  C_15
REMARK    5  A    between atoms: S_21  and  C_24
REMARK                            x       y       z     vdW  Elec       q    Type
REMARK                         _______ _______ _______ _____ _____    ______ ____
ROOT
ATOM      1  C   UNL     1       2.407  -2.701  -0.036  0.00  0.00    +0.002 A 
ATOM      2  C   UNL     1       3.605  -1.989  -0.044  0.00  0.00    +0.002 A 
ATOM      3  C   UNL     1       3.610  -0.628  -0.037  0.00  0.00    +0.030 A 
ATOM      4  C   UNL     1       2.393   0.076  -0.021  0.00  0.00    +0.092 A 
ATOM      5  C   UNL     1       1.174  -0.648  -0.013  0.00  0.00    +0.090 A 
ATOM      6  C   UNL     1       1.210  -2.056  -0.021  0.00  0.00    +0.030 A 
ATOM      7  N   UNL     1       0.002  -0.004   0.002  0.00  0.00    -0.240 NA
ATOM      8  C   UNL     1      -0.016   1.319   0.009  0.00  0.00    +0.135 A 
ATOM      9  C   UNL     1      -1.042   2.294   0.019  0.00  0.00    +0.160 A 
ATOM     10  C   UNL     1      -0.461   3.516   0.025  0.00  0.00    +0.126 A 
ATOM     11  N   UNL     1       0.906   3.402   0.011  0.00  0.00    -0.304 N 
ATOM     12  C   UNL     1       1.248   2.067   0.001  0.00  0.00    +0.164 A 
ATOM     13  N   UNL     1       2.389   1.415  -0.014  0.00  0.00    -0.226 NA
ENDROOT
BRANCH  10  14
ATOM     14  N   UNL     1      -1.151   4.715   0.038  0.00  0.00    -0.343 N 
ATOM     15  H   UNL     1      -0.664   5.554   0.038  0.00  0.00    +0.144 HD
ATOM     16  H   UNL     1      -2.121   4.717   0.047  0.00  0.00    +0.144 HD
ENDBRANCH  10  14
BRANCH   9  17
ATOM     17  S   UNL     1      -2.775   1.971   0.024  0.00  0.00    +0.030 S 
ATOM     18  O   UNL     1      -3.404   3.124  -0.518  0.00  0.00    -0.164 OA
ATOM     19  O   UNL     1      -2.949   0.675  -0.532  0.00  0.00    -0.164 OA
BRANCH  17  20
ATOM     20  C   UNL     1      -3.280   1.868   1.709  0.00  0.00    +0.094 A 
ATOM     21  C   UNL     1      -3.264   0.649   2.362  0.00  0.00    +0.029 A 
ATOM     22  C   UNL     1      -3.655   0.569   3.685  0.00  0.00    +0.022 A 
ATOM     23  C   UNL     1      -4.073   1.706   4.353  0.00  0.00    +0.041 A 
ATOM     24  C   UNL     1      -4.093   2.924   3.698  0.00  0.00    +0.022 A 
ATOM     25  C   UNL     1      -3.697   3.005   2.376  0.00  0.00    +0.029 A 
ATOM     26 CL   UNL     1      -4.570   1.605   6.013  0.00  0.00    -0.084 Cl
ENDBRANCH  17  20
ENDBRANCH   9  17
BRANCH  11  27
ATOM     27  C   UNL     1       1.852   4.521   0.007  0.00  0.00    +0.199 C 
BRANCH  27  28
ATOM     28  C   UNL     1       2.163   4.912  -1.415  0.00  0.00    +0.125 A 
ATOM     29  C   UNL     1       1.488   5.816  -2.148  0.00  0.00    +0.046 A 
ATOM     30  C   UNL     1       2.118   5.869  -3.413  0.00  0.00    +0.041 A 
ATOM     31  C   UNL     1       3.134   4.988  -3.380  0.00  0.00    +0.195 A 
ATOM     32  O   UNL     1       3.156   4.411  -2.167  0.00  0.00    -0.466 OA
ENDBRANCH  27  28
ENDBRANCH  11  27
TORSDOF 5
