REMARK  Name = ZINC37034241
REMARK  3 active torsions:
REMARK  status: ('A' for Active; 'I' for Inactive)
REMARK    1  A    between atoms: C_6  and  C_7
REMARK    2  A    between atoms: C_7  and  C_9
REMARK    3  A    between atoms: C_7  and  N_17
REMARK                            x       y       z     vdW  Elec       q    Type
REMARK                         _______ _______ _______ _____ _____    ______ ____
ROOT
ATOM      1  C   UNL     1      -1.293  -0.774   0.009  0.00  0.00    -0.013 C 
ENDROOT
BRANCH   1   7
ATOM      2  C   UNL     1      -0.017   1.378   0.010  0.00  0.00    +0.006 A 
ATOM      3  C   UNL     1       1.170   2.088   0.002  0.00  0.00    +0.049 A 
ATOM      4  C   UNL     1       2.382   1.415  -0.013  0.00  0.00    +0.162 A 
ATOM      5  C   UNL     1       2.401   0.025  -0.018  0.00  0.00    +0.162 A 
ATOM      6  C   UNL     1       1.207  -0.681  -0.011  0.00  0.00    +0.051 A 
ATOM      7  C   UNL     1       0.002  -0.004   0.002  0.00  0.00    -0.054 A 
ATOM      8  O   UNL     1       3.579  -0.656  -0.024  0.00  0.00    -0.485 OA
ATOM      9  C   UNL     1       4.746   0.081  -0.406  0.00  0.00    +0.270 C 
ATOM     10  C   UNL     1       4.733   1.422   0.340  0.00  0.00    +0.270 C 
ATOM     11  O   UNL     1       3.542   2.127  -0.024  0.00  0.00    -0.485 OA
ENDBRANCH   1   7
BRANCH   1  12
ATOM     12  C   UNL     1      -1.863  -0.811  -1.386  0.00  0.00    -0.054 A 
ATOM     13  C   UNL     1      -2.549   0.282  -1.881  0.00  0.00    +0.040 A 
ATOM     14  C   UNL     1      -3.072   0.248  -3.163  0.00  0.00    +0.125 A 
ATOM     15  C   UNL     1      -2.908  -0.881  -3.947  0.00  0.00    +0.053 A 
ATOM     16  C   UNL     1      -2.222  -1.973  -3.450  0.00  0.00    +0.021 A 
ATOM     17  C   UNL     1      -1.694  -1.936  -2.171  0.00  0.00    +0.017 A 
ATOM     18 BR   UNL     1      -1.997  -3.516  -4.521  0.00  0.00    -0.050 Br
ATOM     19  F   UNL     1      -3.743   1.316  -3.647  0.00  0.00    -0.205 F 
ENDBRANCH   1  12
BRANCH   1  20
ATOM     20  N   UNL     1      -2.249  -0.117   0.910  0.00  0.00    +0.385 N 
ATOM     21  H   UNL     1      -2.419   0.825   0.592  0.00  0.00    -0.089 HD
ATOM     22  H   UNL     1      -3.116  -0.632   0.915  0.00  0.00    -0.089 HD
ATOM     23  H   UNL     1      -1.868  -0.092   1.844  0.00  0.00    -0.089 HD
ENDBRANCH   1  20
TORSDOF 3
