REMARK  Name = ZINC13070729
REMARK  6 active torsions:
REMARK  status: ('A' for Active; 'I' for Inactive)
REMARK    1  A    between atoms: C_1  and  C_2
REMARK    2  A    between atoms: C_7  and  C_9
REMARK    3  A    between atoms: C_7  and  C_30
REMARK    4  A    between atoms: C_7  and  N_60
REMARK    5  A    between atoms: C_9  and  N_10
REMARK    6  A    between atoms: C_11  and  C_13
REMARK                            x       y       z     vdW  Elec       q    Type
REMARK                         _______ _______ _______ _____ _____    ______ ____
ROOT
ATOM      1  N   UNL     1       4.355   9.662  -2.288  0.00  0.00    -0.313 N 
ATOM      2  C   UNL     1       3.157   9.127  -1.978  0.00  0.00    +0.244 C 
ATOM      3  O   UNL     1       2.176   9.839  -1.901  0.00  0.00    -0.270 OA
ATOM      4  H   UNL     1       5.139   9.093  -2.349  0.00  0.00    +0.149 HD
ENDROOT
BRANCH   2   5
ATOM      5  C   UNL     1       3.038   7.672  -1.731  0.00  0.00    +0.039 A 
ATOM      6  C   UNL     1       4.164   6.852  -1.818  0.00  0.00    +0.014 A 
ATOM      7  C   UNL     1       4.051   5.501  -1.587  0.00  0.00    +0.014 A 
ATOM      8  C   UNL     1       2.808   4.939  -1.264  0.00  0.00    +0.048 A 
ATOM      9  C   UNL     1       1.686   5.762  -1.179  0.00  0.00    +0.105 A 
ATOM     10  C   UNL     1       1.799   7.117  -1.410  0.00  0.00    +0.041 A 
ATOM     11  S   UNL     1       0.112   5.079  -0.777  0.00  0.00    +0.026 S 
ATOM     12  O   UNL     1      -0.078   5.288   0.615  0.00  0.00    -0.164 OA
ATOM     13  O   UNL     1      -0.801   5.562  -1.752  0.00  0.00    -0.164 OA
ATOM     14  C   UNL     1       0.227   3.337  -1.014  0.00  0.00    +0.104 A 
ATOM     15  C   UNL     1      -0.926   2.583  -1.101  0.00  0.00    +0.028 A 
ATOM     16  C   UNL     1      -0.852   1.215  -1.294  0.00  0.00    +0.002 A 
ATOM     17  C   UNL     1       0.381   0.593  -1.391  0.00  0.00    +0.001 A 
ATOM     18  C   UNL     1       1.539   1.334  -1.305  0.00  0.00    +0.013 A 
ATOM     19  C   UNL     1       1.474   2.721  -1.114  0.00  0.00    +0.047 A 
ATOM     20  C   UNL     1       2.723   3.490  -1.021  0.00  0.00    +0.197 C 
ATOM     21  O   UNL     1       3.741   2.896  -0.727  0.00  0.00    -0.287 OA
ENDBRANCH   2   5
BRANCH   1  22
ATOM     22  C   UNL     1       4.474  11.101  -2.532  0.00  0.00    +0.094 C 
BRANCH  22  23
ATOM     23  C   UNL     1       5.946  11.464  -2.738  0.00  0.00    -0.013 C 
BRANCH  23  30
ATOM     24  C   UNL     1       9.090  10.646   1.964  0.00  0.00    +0.007 C 
ATOM     25  C   UNL     1       8.312  11.298   0.819  0.00  0.00    -0.018 C 
ATOM     26  C   UNL     1       6.854  10.832   0.861  0.00  0.00    -0.015 C 
ATOM     27  C   UNL     1       6.096  11.438  -0.322  0.00  0.00    -0.078 C 
ATOM     28  C   UNL     1       8.114  11.492  -1.662  0.00  0.00    -0.078 C 
ATOM     29  C   UNL     1       8.932  10.887  -0.519  0.00  0.00    -0.015 C 
ATOM     30  N   UNL     1       6.727  10.985  -1.580  0.00  0.00    +0.386 N 
ATOM     31  H   UNL     1       6.747   9.959  -1.592  0.00  0.00    -0.081 HD
ENDBRANCH  23  30
BRANCH  23  32
ATOM     32  C   UNL     1       6.079  12.958  -2.886  0.00  0.00    -0.022 A 
ATOM     33  C   UNL     1       6.219  13.695  -4.015  0.00  0.00    +0.009 A 
ATOM     34  C   UNL     1       6.321  15.069  -3.910  0.00  0.00    +0.008 A 
ATOM     35  C   UNL     1       6.288  15.639  -2.680  0.00  0.00    +0.045 A 
ATOM     36  S   UNL     1       6.100  14.215  -1.619  0.00  0.00    -0.103 S 
ENDBRANCH  23  32
ENDBRANCH  22  23
ENDBRANCH   1  22
TORSDOF 5
