REMARK  Name = ZINC15905857
REMARK  18 active torsions:
REMARK  status: ('A' for Active; 'I' for Inactive)
REMARK    1  A    between atoms: C_1  and  C_2
REMARK    2  A    between atoms: C_2  and  C_3
REMARK    3  A    between atoms: C_3  and  C_4
REMARK    4  A    between atoms: C_4  and  C_5
REMARK    5  A    between atoms: C_5  and  C_6
REMARK    6  A    between atoms: C_6  and  N_65
REMARK    7  A    between atoms: C_7  and  C_8
REMARK    8  A    between atoms: C_7  and  N_65
REMARK    9  A    between atoms: C_8  and  C_9
REMARK   10  A    between atoms: C_9  and  C_10
REMARK   11  A    between atoms: C_10  and  C_11
REMARK   12  A    between atoms: C_11  and  C_12
REMARK   13  A    between atoms: C_13  and  C_14
REMARK   14  A    between atoms: C_13  and  N_65
REMARK   15  A    between atoms: C_14  and  C_16
REMARK   16  A    between atoms: C_16  and  C_18
REMARK   17  A    between atoms: C_16  and  C_20
REMARK   18  A    between atoms: C_22  and  C_25
REMARK                            x       y       z     vdW  Elec       q    Type
REMARK                         _______ _______ _______ _____ _____    ______ ____
ROOT
ATOM      1  C   UNL     1      -1.357  -0.813  -0.938  0.00  0.00    +0.140 C 
ATOM      2  O   UNL     1      -2.115  -0.116  -1.569  0.00  0.00    -0.298 OA
ENDROOT
BRANCH   1   3
ATOM      3  C   UNL     1      -0.991  -0.440   0.476  0.00  0.00    +0.210 C 
BRANCH   3   4
ATOM      4  C   UNL     1      -1.156   1.047   0.662  0.00  0.00    +0.103 A 
ATOM      5  N   UNL     1      -0.255   1.937   0.999  0.00  0.00    -0.242 NA
ATOM      6  C   UNL     1      -0.561   3.219   1.121  0.00  0.00    +0.078 A 
ATOM      7  C   UNL     1      -1.857   3.593   0.885  0.00  0.00    +0.075 A 
ATOM      8  S   UNL     1      -2.586   2.014   0.476  0.00  0.00    -0.078 S 
BRANCH   6   9
ATOM      9  C   UNL     1       0.466   4.218   1.503  0.00  0.00    +0.001 A 
ATOM     10  C   UNL     1       1.798   3.833   1.643  0.00  0.00    +0.011 A 
ATOM     11  C   UNL     1       2.751   4.768   1.993  0.00  0.00    +0.016 A 
ATOM     12  C   UNL     1       2.385   6.084   2.215  0.00  0.00    +0.018 A 
ATOM     13  C   UNL     1       1.062   6.470   2.082  0.00  0.00    +0.016 A 
ATOM     14  C   UNL     1       0.102   5.545   1.728  0.00  0.00    +0.011 A 
ATOM     15 BR   UNL     1       3.695   7.357   2.702  0.00  0.00    -0.050 Br
ENDBRANCH   6   9
ENDBRANCH   3   4
BRANCH   3  16
ATOM     16  C   UNL     1      -1.873  -1.152   1.415  0.00  0.00    +0.080 C 
ATOM     17  N   UNL     1      -2.553  -1.702   2.140  0.00  0.00    -0.195 NA
ENDBRANCH   3  16
ENDBRANCH   1   3
BRANCH   1  18
ATOM     18  C   UNL     1      -0.778  -2.056  -1.563  0.00  0.00    -0.001 C 
BRANCH  18  19
ATOM     19  N   UNL     1      -1.315  -2.194  -2.933  0.00  0.00    +0.384 N 
ATOM     20  H   UNL     1      -2.339  -2.128  -2.899  0.00  0.00    -0.081 HD
BRANCH  19  21
ATOM     21  C   UNL     1      -0.937  -3.509  -3.493  0.00  0.00    -0.078 C 
BRANCH  21  22
ATOM     22  C   UNL     1      -1.790  -3.778  -4.734  0.00  0.00    -0.019 C 
BRANCH  22  23
ATOM     23  C   UNL     1      -1.426  -5.145  -5.317  0.00  0.00    -0.002 C 
BRANCH  23  24
ATOM     24  C   UNL     1      -2.279  -5.414  -6.558  0.00  0.00    -0.000 C 
BRANCH  24  25
ATOM     25  C   UNL     1      -1.915  -6.782  -7.140  0.00  0.00    -0.003 C 
ATOM     26  C   UNL     1      -2.768  -7.051  -8.382  0.00  0.00    +0.004 C 
ENDBRANCH  24  25
ENDBRANCH  23  24
ENDBRANCH  22  23
ENDBRANCH  21  22
ENDBRANCH  19  21
BRANCH  19  27
ATOM     27  C   UNL     1      -0.792  -1.111  -3.792  0.00  0.00    -0.078 C 
BRANCH  27  28
ATOM     28  C   UNL     1       0.736  -1.168  -3.858  0.00  0.00    -0.019 C 
BRANCH  28  29
ATOM     29  C   UNL     1       1.252  -0.019  -4.727  0.00  0.00    -0.002 C 
BRANCH  29  30
ATOM     30  C   UNL     1       2.779  -0.076  -4.793  0.00  0.00    -0.000 C 
BRANCH  30  32
ATOM     31  C   UNL     1       4.823   1.015  -5.728  0.00  0.00    +0.004 C 
ATOM     32  C   UNL     1       3.296   1.072  -5.662  0.00  0.00    -0.003 C 
ENDBRANCH  30  32
ENDBRANCH  29  30
ENDBRANCH  28  29
ENDBRANCH  27  28
ENDBRANCH  19  27
ENDBRANCH  18  19
ENDBRANCH   1  18
TORSDOF 16
