REMARK  Name = ZINC39667536
REMARK  12 active torsions:
REMARK  status: ('A' for Active; 'I' for Inactive)
REMARK    1  A    between atoms: C_1  and  C_2
REMARK    2  A    between atoms: C_6  and  C_9
REMARK    3  A    between atoms: C_7  and  C_8
REMARK    4  A    between atoms: C_9  and  N_10
REMARK    5  A    between atoms: C_11  and  C_13
REMARK    6  A    between atoms: C_24  and  C_26
REMARK    7  A    between atoms: C_28  and  O_36
REMARK    8  A    between atoms: C_29  and  O_34
REMARK    9  A    between atoms: C_30  and  O_32
REMARK   10  A    between atoms: O_32  and  C_33
REMARK   11  A    between atoms: O_34  and  C_35
REMARK   12  A    between atoms: O_36  and  C_37
REMARK                            x       y       z     vdW  Elec       q    Type
REMARK                         _______ _______ _______ _____ _____    ______ ____
ROOT
ATOM      1  C   UNL     1      -2.469  -3.159   5.036  0.00  0.00    +0.100 C 
ATOM      2  C   UNL     1      -3.245  -1.861   5.351  0.00  0.00    +0.121 C 
ATOM      3  N   UNL     1      -4.045  -2.185   6.556  0.00  0.00    -0.296 N 
ATOM      4  C   UNL     1      -3.139  -3.014   7.387  0.00  0.00    +0.115 C 
ATOM      5  C   UNL     1      -2.401  -3.913   6.375  0.00  0.00    -0.004 C 
ATOM      6  C   UNL     1      -0.949  -4.104   6.801  0.00  0.00    -0.010 C 
ATOM      7  C   UNL     1      -0.905  -4.907   8.104  0.00  0.00    -0.082 C 
ATOM      8  N   UNL     1      -1.551  -6.209   7.901  0.00  0.00    +0.379 N 
ATOM      9  C   UNL     1      -2.971  -6.019   7.582  0.00  0.00    -0.082 C 
ATOM     10  C   UNL     1      -3.103  -5.263   6.257  0.00  0.00    -0.010 C 
ATOM     11  C   UNL     1      -5.309  -1.811   6.833  0.00  0.00    +0.247 C 
ATOM     12  O   UNL     1      -5.971  -1.235   5.992  0.00  0.00    -0.270 OA
ATOM     13  H   UNL     1      -1.099  -6.692   7.139  0.00  0.00    -0.086 HD
ATOM     14  H   UNL     1      -1.467  -6.760   8.742  0.00  0.00    -0.086 HD
ENDROOT
BRANCH  11  15
ATOM     15  C   UNL     1      -5.891  -2.101   8.159  0.00  0.00    +0.044 A 
ATOM     16  C   UNL     1      -5.055  -2.347   9.251  0.00  0.00    +0.062 A 
ATOM     17  C   UNL     1      -5.603  -2.617  10.491  0.00  0.00    +0.166 A 
ATOM     18  C   UNL     1      -6.985  -2.646  10.652  0.00  0.00    +0.204 A 
ATOM     19  C   UNL     1      -7.820  -2.402   9.565  0.00  0.00    +0.166 A 
ATOM     20  C   UNL     1      -7.278  -2.125   8.324  0.00  0.00    +0.062 A 
BRANCH  19  21
ATOM     21  O   UNL     1      -9.170  -2.431   9.725  0.00  0.00    -0.491 OA
ATOM     22  C   UNL     1      -9.967  -2.172   8.568  0.00  0.00    +0.277 C 
ENDBRANCH  19  21
BRANCH  18  23
ATOM     23  O   UNL     1      -7.521  -2.913  11.872  0.00  0.00    -0.488 OA
ATOM     24  C   UNL     1      -7.770  -1.797  12.729  0.00  0.00    +0.277 C 
ENDBRANCH  18  23
BRANCH  17  25
ATOM     25  O   UNL     1      -4.790  -2.857  11.555  0.00  0.00    -0.491 OA
ATOM     26  C   UNL     1      -3.381  -2.812  11.318  0.00  0.00    +0.277 C 
ENDBRANCH  17  25
ENDBRANCH  11  15
BRANCH   1  28
ATOM     27  N   UNL     1      -0.463  -3.663   3.680  0.00  0.00    -0.311 N 
ATOM     28  C   UNL     1      -1.081  -2.835   4.545  0.00  0.00    +0.218 C 
ATOM     29  O   UNL     1      -0.522  -1.830   4.929  0.00  0.00    -0.275 OA
ATOM     30  H   UNL     1      -0.910  -4.466   3.373  0.00  0.00    +0.149 HD
BRANCH  27  31
ATOM     31  C   UNL     1       0.886  -3.348   3.203  0.00  0.00    +0.139 C 
BRANCH  31  37
ATOM     32  C   UNL     1       0.869  -5.394  -1.364  0.00  0.00    +0.044 C 
ATOM     33  C   UNL     1       1.338  -5.402   0.068  0.00  0.00    -0.047 A 
ATOM     34  C   UNL     1       2.191  -6.397   0.510  0.00  0.00    +0.003 A 
ATOM     35  C   UNL     1       2.620  -6.405   1.824  0.00  0.00    +0.001 A 
ATOM     36  C   UNL     1       2.198  -5.418   2.695  0.00  0.00    +0.005 A 
ATOM     37  C   UNL     1       1.347  -4.423   2.253  0.00  0.00    -0.027 A 
ATOM     38  C   UNL     1       0.920  -4.413   0.938  0.00  0.00    -0.043 A 
ATOM     39  C   UNL     1      -0.004  -3.326   0.454  0.00  0.00    +0.044 C 
ENDBRANCH  31  37
ENDBRANCH  27  31
ENDBRANCH   1  28
TORSDOF 7
