REMARK  Name = ZINC36539591
REMARK  17 active torsions:
REMARK  status: ('A' for Active; 'I' for Inactive)
REMARK    1  A    between atoms: C_1  and  C_2
REMARK    2  A    between atoms: C_2  and  C_3
REMARK    3  A    between atoms: C_2  and  C_4
REMARK    4  A    between atoms: C_2  and  C_5
REMARK    5  A    between atoms: C_5  and  C_6
REMARK    6  A    between atoms: C_6  and  C_7
REMARK    7  A    between atoms: C_6  and  C_8
REMARK    8  A    between atoms: C_6  and  N_9
REMARK    9  A    between atoms: C_10  and  C_12
REMARK   10  A    between atoms: C_12  and  C_14
REMARK   11  A    between atoms: C_12  and  N_23
REMARK   12  A    between atoms: C_17  and  O_22
REMARK   13  A    between atoms: C_18  and  O_20
REMARK   14  A    between atoms: O_20  and  C_21
REMARK   15  A    between atoms: N_23  and  C_24
REMARK   16  A    between atoms: C_25  and  C_27
REMARK   17  A    between atoms: C_30  and  N_33
REMARK                            x       y       z     vdW  Elec       q    Type
REMARK                         _______ _______ _______ _____ _____    ______ ____
ROOT
ATOM      1  C   UNL     1       5.294  -0.436  -4.296  0.00  0.00    +0.192 C 
ENDROOT
BRANCH   1   2
ATOM      2  C   UNL     1       4.643   0.449  -5.328  0.00  0.00    -0.015 A 
ATOM      3  C   UNL     1       3.963  -0.117  -6.391  0.00  0.00    +0.010 A 
ATOM      4  C   UNL     1       3.365   0.691  -7.340  0.00  0.00    +0.049 A 
ATOM      5  C   UNL     1       3.445   2.069  -7.227  0.00  0.00    +0.158 A 
ATOM      6  C   UNL     1       4.130   2.638  -6.157  0.00  0.00    +0.162 A 
ATOM      7  C   UNL     1       4.723   1.823  -5.207  0.00  0.00    +0.055 A 
BRANCH   6   8
ATOM      8  O   UNL     1       4.212   3.991  -6.043  0.00  0.00    -0.491 OA
ATOM      9  C   UNL     1       4.930   4.504  -4.919  0.00  0.00    +0.277 C 
ENDBRANCH   6   8
BRANCH   5  10
ATOM     10  O   UNL     1       2.857   2.865  -8.161  0.00  0.00    -0.503 OA
ATOM     11  H   UNL     1       1.942   3.100  -7.957  0.00  0.00    +0.292 HD
ENDBRANCH   5  10
ENDBRANCH   1   2
BRANCH   1  13
ATOM     12  N   UNL     1       3.353  -0.378  -2.764  0.00  0.00    -0.308 N 
ATOM     13  C   UNL     1       4.673  -0.176  -2.948  0.00  0.00    +0.238 C 
ATOM     14  O   UNL     1       5.360   0.214  -2.028  0.00  0.00    -0.273 OA
ATOM     15  H   UNL     1       2.803  -0.690  -3.500  0.00  0.00    +0.149 HD
BRANCH  12  16
ATOM     16  C   UNL     1       2.748  -0.125  -1.454  0.00  0.00    +0.030 C 
ATOM     17  C   UNL     1       3.118   1.284  -0.985  0.00  0.00    +0.031 C 
ATOM     18  C   UNL     1       3.270  -1.151  -0.445  0.00  0.00    +0.031 C 
BRANCH  16  19
ATOM     19  C   UNL     1       1.227  -0.244  -1.562  0.00  0.00    +0.031 C 
BRANCH  19  21
ATOM     20  C   UNL     1       0.938  -0.452  -4.035  0.00  0.00    +0.010 C 
ATOM     21  C   UNL     1       0.748   0.469  -2.828  0.00  0.00    -0.036 C 
ATOM     22  C   UNL     1       1.562   1.749  -3.031  0.00  0.00    +0.010 C 
ATOM     23  C   UNL     1      -0.733   0.823  -2.685  0.00  0.00    +0.010 C 
ENDBRANCH  19  21
ENDBRANCH  16  19
ENDBRANCH  12  16
ENDBRANCH   1  13
BRANCH   1  24
ATOM     24  N   UNL     1       6.728  -0.144  -4.237  0.00  0.00    -0.285 N 
ATOM     25  C   UNL     1       7.289   0.939  -5.048  0.00  0.00    +0.133 C 
ATOM     26  C   UNL     1       7.532  -0.872  -3.436  0.00  0.00    +0.247 C 
ATOM     27  O   UNL     1       7.073  -1.797  -2.794  0.00  0.00    -0.270 OA
BRANCH  26  28
ATOM     28  C   UNL     1       8.970  -0.546  -3.339  0.00  0.00    +0.037 A 
ATOM     29  C   UNL     1       9.405   0.768  -3.519  0.00  0.00    +0.015 A 
ATOM     30  C   UNL     1      10.749   1.066  -3.426  0.00  0.00    +0.033 A 
ATOM     31  C   UNL     1      11.665   0.066  -3.156  0.00  0.00    +0.126 A 
ATOM     32  C   UNL     1      11.241  -1.239  -2.977  0.00  0.00    +0.033 A 
ATOM     33  C   UNL     1       9.900  -1.550  -3.061  0.00  0.00    +0.015 A 
BRANCH  31  34
ATOM     34  N   UNL     1      13.105   0.392  -3.059  0.00  0.00    +0.056 N 
ATOM     35  O   UNL     1      13.479   1.532  -3.215  0.00  0.00    -0.126 OA
ATOM     36  O   UNL     1      13.909  -0.480  -2.823  0.00  0.00    -0.126 OA
ENDBRANCH  31  34
ENDBRANCH  26  28
ENDBRANCH   1  24
TORSDOF 10
