REMARK  Name = ZINC46914025
REMARK  5 active torsions:
REMARK  status: ('A' for Active; 'I' for Inactive)
REMARK    1  A    between atoms: C_4  and  C_7
REMARK    2  A    between atoms: C_7  and  N_8
REMARK    3  A    between atoms: C_17  and  C_19
REMARK    4  A    between atoms: C_19  and  N_20
REMARK    5  A    between atoms: C_21  and  C_23
REMARK                            x       y       z     vdW  Elec       q    Type
REMARK                         _______ _______ _______ _____ _____    ______ ____
ROOT
ATOM      1  N   UNL     1       4.164  -1.041   1.304  0.00  0.00    +0.386 N 
ATOM      2  C   UNL     1       5.501  -1.650   1.295  0.00  0.00    -0.072 C 
ATOM      3  C   UNL     1       6.112  -1.618   2.700  0.00  0.00    +0.038 C 
ATOM      4  C   UNL     1       5.105  -2.235   3.662  0.00  0.00    +0.050 A 
ATOM      5  C   UNL     1       3.806  -2.361   3.279  0.00  0.00    -0.002 A 
ATOM      6  S   UNL     1       3.060  -3.113   4.696  0.00  0.00    -0.059 S 
ATOM      7  C   UNL     1       4.445  -3.203   5.652  0.00  0.00    +0.165 A 
ATOM      8  N   UNL     1       5.376  -2.680   4.883  0.00  0.00    -0.229 NA
ATOM      9  N   UNL     1       4.574  -3.707   6.941  0.00  0.00    -0.263 N 
ATOM     10  C   UNL     1       5.774  -3.695   7.553  0.00  0.00    +0.236 C 
ATOM     11  O   UNL     1       6.743  -3.245   6.979  0.00  0.00    -0.274 OA
ATOM     12  C   UNL     1       3.213  -1.947   1.977  0.00  0.00    -0.033 C 
ATOM     13  H   UNL     1       3.799  -4.067   7.400  0.00  0.00    +0.157 HD
ATOM     14  H   UNL     1       4.199  -0.163   1.798  0.00  0.00    -0.081 HD
ENDROOT
BRANCH   1  15
ATOM     15  C   UNL     1       3.724  -0.809  -0.078  0.00  0.00    -0.043 C 
BRANCH  15  19
ATOM     16  C   UNL     1      -0.002   1.281  -0.055  0.00  0.00    +0.000 A 
ATOM     17  C   UNL     1       1.187   1.987  -0.069  0.00  0.00    +0.000 A 
ATOM     18  C   UNL     1       2.392   1.311  -0.076  0.00  0.00    +0.002 A 
ATOM     19  C   UNL     1       2.410  -0.071  -0.069  0.00  0.00    -0.064 A 
ATOM     20  C   UNL     1       1.221  -0.778  -0.055  0.00  0.00    +0.002 A 
ATOM     21  C   UNL     1       0.016  -0.101  -0.049  0.00  0.00    +0.000 A 
ENDBRANCH  15  19
ENDBRANCH   1  15
BRANCH  10  22
ATOM     22  C   UNL     1       5.913  -4.242   8.950  0.00  0.00    +0.200 C 
BRANCH  22  23
ATOM     23  N   UNL     1       7.306  -4.116   9.388  0.00  0.00    -0.303 N 
ATOM     24  C   UNL     1       7.668  -4.542  10.614  0.00  0.00    +0.250 C 
ATOM     25  O   UNL     1       6.825  -4.945  11.392  0.00  0.00    -0.270 OA
ATOM     26  H   UNL     1       7.967  -3.726   8.795  0.00  0.00    +0.150 HD
BRANCH  24  27
ATOM     27  C   UNL     1       9.085  -4.520  11.011  0.00  0.00    +0.100 A 
ATOM     28  C   UNL     1       9.483  -5.060  12.217  0.00  0.00    +0.100 A 
ATOM     29  N   UNL     1      10.763  -5.058  12.612  0.00  0.00    -0.360 N 
ATOM     30  C   UNL     1      11.779  -4.520  11.851  0.00  0.00    +0.050 A 
ATOM     31  C   UNL     1      13.094  -4.544  12.307  0.00  0.00    +0.026 A 
ATOM     32  C   UNL     1      14.100  -4.003  11.537  0.00  0.00    +0.002 A 
ATOM     33  C   UNL     1      13.819  -3.431  10.304  0.00  0.00    +0.001 A 
ATOM     34  C   UNL     1      12.526  -3.397   9.832  0.00  0.00    +0.014 A 
ATOM     35  C   UNL     1      11.497  -3.941  10.602  0.00  0.00    +0.046 A 
ATOM     36  C   UNL     1      10.101  -3.928  10.127  0.00  0.00    +0.201 A 
ATOM     37  O   UNL     1       9.801  -3.443   9.050  0.00  0.00    -0.286 OA
ATOM     38  H   UNL     1      10.985  -5.451  13.470  0.00  0.00    +0.165 HD
ENDBRANCH  24  27
ENDBRANCH  22  23
ENDBRANCH  10  22
TORSDOF 5
