REMARK  Name = ZINC62541546
REMARK  2 active torsions:
REMARK  status: ('A' for Active; 'I' for Inactive)
REMARK    1  A    between atoms: C_2  and  N_17
REMARK    2  A    between atoms: C_9  and  C_11
REMARK                            x       y       z     vdW  Elec       q    Type
REMARK                         _______ _______ _______ _____ _____    ______ ____
ROOT
ATOM      1  C   UNL     1      -0.017   1.373   0.010  0.00  0.00    +0.046 A 
ATOM      2  C   UNL     1       1.176   2.093   0.002  0.00  0.00    +0.048 A 
ATOM      3  C   UNL     1       2.393   1.430  -0.014  0.00  0.00    +0.106 A 
ATOM      4  C   UNL     1       2.424   0.044  -0.021  0.00  0.00    +0.177 A 
ATOM      5  C   UNL     1       1.224  -0.682  -0.013  0.00  0.00    +0.129 A 
ATOM      6  C   UNL     1       0.002  -0.004   0.002  0.00  0.00    +0.072 A 
ATOM      7 CL   UNL     1      -1.488  -0.895   0.012  0.00  0.00    -0.081 Cl
ATOM      8  N   UNL     1       1.568  -2.000  -0.024  0.00  0.00    -0.212 NA
ATOM      9  C   UNL     1       2.863  -2.094  -0.037  0.00  0.00    +0.200 A 
ATOM     10  O   UNL     1       3.419  -0.871  -0.036  0.00  0.00    -0.438 OA
ATOM     11 CL   UNL     1       3.876   2.334  -0.024  0.00  0.00    -0.078 Cl
ENDROOT
BRANCH   9  12
ATOM     12  C   UNL     1       3.632  -3.389  -0.052  0.00  0.00    +0.075 C 
ATOM     13  C   UNL     1       3.201  -4.289   1.133  0.00  0.00    +0.013 C 
ATOM     14  C   UNL     1       3.582  -5.708   0.640  0.00  0.00    +0.001 C 
ATOM     15  C   UNL     1       3.242  -5.690  -0.865  0.00  0.00    +0.001 C 
ATOM     16  C   UNL     1       3.275  -4.215  -1.305  0.00  0.00    +0.013 C 
ENDBRANCH   9  12
BRANCH   2  17
ATOM     17  N   UNL     1       1.145   3.491   0.010  0.00  0.00    -0.357 N 
ATOM     18  H   UNL     1       0.294   3.957   0.021  0.00  0.00    +0.142 HD
ATOM     19  H   UNL     1       1.974   3.995   0.005  0.00  0.00    +0.142 HD
ENDBRANCH   2  17
TORSDOF 2
