REMARK  Name = ZINC02253395
REMARK  2 active torsions:
REMARK  status: ('A' for Active; 'I' for Inactive)
REMARK    1  A    between atoms: C_4  and  C_7
REMARK    2  A    between atoms: C_24  and  C_26
REMARK                            x       y       z     vdW  Elec       q    Type
REMARK                         _______ _______ _______ _____ _____    ______ ____
ROOT
ATOM      1  C   UNL     1       3.711  -0.707  -0.038  0.00  0.00    +0.234 C 
ATOM      2  C   UNL     1       4.043  -1.163   1.353  0.00  0.00    +0.028 C 
ATOM      3  C   UNL     1       3.633  -2.368   1.798  0.00  0.00    +0.083 C 
ATOM      4  C   UNL     1       2.858  -3.217   0.859  0.00  0.00    +0.042 A 
ATOM      5  C   UNL     1       2.122  -4.306   1.304  0.00  0.00    +0.013 A 
ATOM      6  C   UNL     1       1.413  -5.068   0.394  0.00  0.00    +0.001 A 
ATOM      7  C   UNL     1       1.437  -4.747  -0.952  0.00  0.00    +0.004 A 
ATOM      8  C   UNL     1       2.168  -3.664  -1.403  0.00  0.00    +0.046 A 
ATOM      9  C   UNL     1       2.883  -2.893  -0.504  0.00  0.00    +0.131 A 
ATOM     10  O   UNL     1       3.613  -1.830  -0.916  0.00  0.00    -0.479 OA
ATOM     11  N   UNL     1       3.917  -2.794   3.054  0.00  0.00    -0.213 NA
ATOM     12  C   UNL     1       4.605  -2.103   3.932  0.00  0.00    +0.237 C 
ATOM     13  N   UNL     1       4.975  -2.374   5.204  0.00  0.00    -0.205 NA
ATOM     14  C   UNL     1       5.662  -1.381   5.698  0.00  0.00    +0.203 C 
ATOM     15  N   UNL     1       5.776  -0.398   4.763  0.00  0.00    -0.251 N 
ATOM     16  N   UNL     1       5.100  -0.851   3.628  0.00  0.00    -0.208 N 
ATOM     17  C   UNL     1       4.845  -0.291   2.295  0.00  0.00    +0.166 C 
ATOM     18  H   UNL     1       6.237   0.450   4.865  0.00  0.00    +0.171 HD
ENDROOT
BRANCH   1  22
ATOM     19  C   UNL     1      -0.017   1.378   0.010  0.00  0.00    +0.000 A 
ATOM     20  C   UNL     1       1.171   2.086   0.002  0.00  0.00    +0.000 A 
ATOM     21  C   UNL     1       2.377   1.411  -0.013  0.00  0.00    +0.007 A 
ATOM     22  C   UNL     1       2.396   0.029  -0.020  0.00  0.00    -0.003 A 
ATOM     23  C   UNL     1       1.208  -0.679  -0.012  0.00  0.00    +0.007 A 
ATOM     24  C   UNL     1       0.002  -0.004   0.002  0.00  0.00    +0.000 A 
ENDBRANCH   1  22
BRANCH  17  25
ATOM     25  C   UNL     1       4.111   1.014   2.466  0.00  0.00    +0.016 A 
ATOM     26  C   UNL     1       4.340   2.208   1.865  0.00  0.00    +0.013 A 
ATOM     27  C   UNL     1       3.530   3.283   2.179  0.00  0.00    +0.008 A 
ATOM     28  C   UNL     1       2.530   3.112   3.078  0.00  0.00    +0.045 A 
ATOM     29  S   UNL     1       2.710   1.389   3.507  0.00  0.00    -0.099 S 
ENDBRANCH  17  25
TORSDOF 2
