REMARK  Name = ZINC52860427
REMARK  3 active torsions:
REMARK  status: ('A' for Active; 'I' for Inactive)
REMARK    1  A    between atoms: C_3  and  S_11
REMARK    2  A    between atoms: C_4  and  C_8
REMARK    3  A    between atoms: S_11  and  C_12
REMARK                            x       y       z     vdW  Elec       q    Type
REMARK                         _______ _______ _______ _____ _____    ______ ____
ROOT
ATOM      1  C   UNL     1      -0.230   0.999   0.271  0.00  0.00    +0.021 A 
ATOM      2  C   UNL     1       0.908   1.779   0.318  0.00  0.00    +0.017 A 
ATOM      3  C   UNL     1       2.161   1.191   0.193  0.00  0.00    +0.025 A 
ATOM      4  C   UNL     1       2.262  -0.198   0.020  0.00  0.00    +0.027 A 
ATOM      5  C   UNL     1       1.103  -0.974  -0.026  0.00  0.00    +0.032 A 
ATOM      6  C   UNL     1      -0.133  -0.373   0.099  0.00  0.00    +0.042 A 
ATOM      7 CL   UNL     1      -1.573  -1.341   0.042  0.00  0.00    -0.084 Cl
ENDROOT
BRANCH   4   8
ATOM      8  C   UNL     1       3.587  -0.834  -0.114  0.00  0.00    +0.095 C 
ATOM      9  N   UNL     1       4.506  -0.668   0.838  0.00  0.00    -0.387 N 
ATOM     10  N   UNL     1       3.866  -1.574  -1.188  0.00  0.00    -0.345 N 
ATOM     11  H   UNL     1       4.280  -0.192   1.652  0.00  0.00    +0.157 HD
ATOM     12  H   UNL     1       3.197  -1.695  -1.880  0.00  0.00    +0.144 HD
ATOM     13  H   UNL     1       4.736  -1.992  -1.276  0.00  0.00    +0.144 HD
ATOM     14  H   UNL     1       5.400  -1.024   0.716  0.00  0.00    +0.157 HD
ENDBRANCH   4   8
BRANCH   3  15
ATOM     15  S   UNL     1       3.615   2.185   0.252  0.00  0.00    -0.060 S 
BRANCH  15  16
ATOM     16  C   UNL     1       3.003   3.837   0.222  0.00  0.00    +0.163 A 
ATOM     17  N   UNL     1       1.767   4.287   0.045  0.00  0.00    -0.135 NA
ATOM     18  N   UNL     1       1.502   5.520   0.053  0.00  0.00    -0.149 NA
ATOM     19  C   UNL     1       2.430   6.438   0.238  0.00  0.00    +0.182 A 
ATOM     20  S   UNL     1       3.869   5.391   0.430  0.00  0.00    -0.047 S 
ENDBRANCH  15  16
ENDBRANCH   3  15
TORSDOF 3
