REMARK  Name = ZINC47138031
REMARK  6 active torsions:
REMARK  status: ('A' for Active; 'I' for Inactive)
REMARK    1  A    between atoms: C_4  and  O_28
REMARK    2  A    between atoms: C_5  and  C_7
REMARK    3  A    between atoms: N_11  and  C_22
REMARK    4  A    between atoms: N_13  and  N_14
REMARK    5  A    between atoms: C_15  and  C_16
REMARK    6  A    between atoms: C_22  and  C_23
REMARK                            x       y       z     vdW  Elec       q    Type
REMARK                         _______ _______ _______ _____ _____    ______ ____
ROOT
ATOM      1  C   UNL     1       1.254  -2.152  -0.022  0.00  0.00    +0.032 C 
ATOM      2  C   UNL     1       0.097  -2.855   0.088  0.00  0.00    +0.078 C 
ATOM      3  C   UNL     1      -0.106  -4.311   0.208  0.00  0.00    +0.259 C 
ATOM      4  O   UNL     1       0.833  -5.085   0.221  0.00  0.00    -0.269 OA
ATOM      5  N   UNL     1      -1.354  -4.737   0.303  0.00  0.00    -0.237 N 
ATOM      6  C   UNL     1      -2.404  -3.844   0.288  0.00  0.00    +0.190 C 
ATOM      7  N   UNL     1      -3.695  -4.096   0.371  0.00  0.00    -0.126 NA
ATOM      8  S   UNL     1      -1.589  -2.263   0.135  0.00  0.00    -0.047 S 
ENDROOT
BRANCH   1  13
ATOM      9  C   UNL     1       0.023   1.236  -1.045  0.00  0.00    +0.001 A 
ATOM     10  C   UNL     1       1.138   2.019  -0.788  0.00  0.00    +0.004 A 
ATOM     11  C   UNL     1       2.291   1.449  -0.283  0.00  0.00    +0.046 A 
ATOM     12  C   UNL     1       2.341   0.089  -0.029  0.00  0.00    +0.124 A 
ATOM     13  C   UNL     1       1.214  -0.709  -0.287  0.00  0.00    +0.018 A 
ATOM     14  C   UNL     1       0.053  -0.119  -0.799  0.00  0.00    +0.011 A 
BRANCH  12  15
ATOM     15  O   UNL     1       3.474  -0.471   0.467  0.00  0.00    -0.506 OA
ATOM     16  H   UNL     1       3.513  -0.490   1.433  0.00  0.00    +0.292 HD
ENDBRANCH  12  15
ENDBRANCH   1  13
BRANCH   7  17
ATOM     17  N   UNL     1      -4.109  -5.312   0.483  0.00  0.00    -0.154 NA
ATOM     18  C   UNL     1      -5.392  -5.562   0.566  0.00  0.00    +0.150 C 
BRANCH  18  19
ATOM     19  C   UNL     1      -6.355  -4.462   0.531  0.00  0.00    +0.032 A 
ATOM     20  C   UNL     1      -7.738  -4.509   0.609  0.00  0.00    +0.017 A 
ATOM     21  C   UNL     1      -8.435  -3.324   0.554  0.00  0.00    +0.008 A 
ATOM     22  C   UNL     1      -7.752  -2.156   0.425  0.00  0.00    +0.046 A 
ATOM     23  S   UNL     1      -6.055  -2.708   0.384  0.00  0.00    -0.096 S 
ENDBRANCH  18  19
ENDBRANCH   7  17
BRANCH   5  24
ATOM     24  C   UNL     1      -1.624  -6.172   0.424  0.00  0.00    +0.190 C 
BRANCH  24  25
ATOM     25  C   UNL     1      -1.645  -6.558   1.881  0.00  0.00    +0.123 A 
ATOM     26  C   UNL     1      -2.729  -6.560   2.678  0.00  0.00    +0.046 A 
ATOM     27  C   UNL     1      -2.297  -6.986   3.955  0.00  0.00    +0.041 A 
ATOM     28  C   UNL     1      -0.976  -7.219   3.862  0.00  0.00    +0.195 A 
ATOM     29  O   UNL     1      -0.588  -6.963   2.602  0.00  0.00    -0.466 OA
ENDBRANCH  24  25
ENDBRANCH   5  24
TORSDOF 6
