REMARK  Name = ZINC37190237
REMARK  9 active torsions:
REMARK  status: ('A' for Active; 'I' for Inactive)
REMARK    1  A    between atoms: C_1  and  C_2
REMARK    2  A    between atoms: C_2  and  O_3
REMARK    3  A    between atoms: O_3  and  C_4
REMARK    4  A    between atoms: C_4  and  C_6
REMARK    5  A    between atoms: C_7  and  C_19
REMARK    6  A    between atoms: C_12  and  C_14
REMARK    7  A    between atoms: C_19  and  N_20
REMARK    8  A    between atoms: N_20  and  C_21
REMARK    9  A    between atoms: C_27  and  C_29
REMARK                            x       y       z     vdW  Elec       q    Type
REMARK                         _______ _______ _______ _____ _____    ______ ____
ROOT
ATOM      1  C   UNL     1      -2.795  -2.411   0.129  0.00  0.00    +0.077 C 
ATOM      2  C   UNL     1      -2.985  -3.731  -0.085  0.00  0.00    +0.007 C 
ATOM      3  N   UNL     1      -4.241  -4.255  -0.189  0.00  0.00    -0.274 N 
ATOM      4  C   UNL     1      -5.360  -3.526  -0.092  0.00  0.00    +0.304 C 
ATOM      5  O   UNL     1      -6.436  -4.082  -0.199  0.00  0.00    -0.252 OA
ATOM      6  N   UNL     1      -5.333  -2.195   0.120  0.00  0.00    -0.288 N 
ATOM      7  C   UNL     1      -4.024  -1.533   0.254  0.00  0.00    +0.150 C 
ATOM      8  H   UNL     1      -4.328  -5.209  -0.342  0.00  0.00    +0.156 HD
ATOM      9  H   UNL     1      -6.156  -1.686   0.187  0.00  0.00    +0.151 HD
ENDROOT
BRANCH   7  10
ATOM     10  C   UNL     1      -3.976  -0.855   1.599  0.00  0.00    +0.015 A 
ATOM     11  C   UNL     1      -3.589   0.407   1.905  0.00  0.00    +0.013 A 
ATOM     12  C   UNL     1      -3.629   0.819   3.224  0.00  0.00    +0.008 A 
ATOM     13  C   UNL     1      -4.053  -0.052   4.172  0.00  0.00    +0.045 A 
ATOM     14  S   UNL     1      -4.422  -1.504   3.201  0.00  0.00    -0.099 S 
ENDBRANCH   7  10
BRANCH   1  15
ATOM     15  C   UNL     1      -1.494  -1.867   0.237  0.00  0.00    +0.339 C 
ATOM     16  O   UNL     1      -0.997  -1.285  -0.708  0.00  0.00    -0.245 OA
BRANCH  15  17
ATOM     17  O   UNL     1      -0.804  -1.993   1.390  0.00  0.00    -0.462 OA
BRANCH  17  19
ATOM     18  C   UNL     1       1.126  -1.661   2.807  0.00  0.00    +0.048 C 
ATOM     19  C   UNL     1       0.504  -1.419   1.430  0.00  0.00    +0.229 C 
ENDBRANCH  17  19
ENDBRANCH  15  17
ENDBRANCH   1  15
BRANCH   2  20
ATOM     20  C   UNL     1      -1.789  -4.640  -0.210  0.00  0.00    -0.030 C 
BRANCH  20  21
ATOM     21  N   UNL     1      -1.770  -5.582   0.917  0.00  0.00    +0.385 N 
ATOM     22  H   UNL     1      -1.713  -5.069   1.784  0.00  0.00    -0.085 HD
ATOM     23  H   UNL     1      -2.615  -6.134   0.909  0.00  0.00    -0.085 HD
BRANCH  21  24
ATOM     24  C   UNL     1      -0.606  -6.469   0.795  0.00  0.00    -0.068 C 
ATOM     25  C   UNL     1       0.677  -5.647   0.933  0.00  0.00    -0.015 C 
ATOM     26  C   UNL     1       1.891  -6.570   0.806  0.00  0.00    -0.002 C 
ATOM     27  C   UNL     1       1.843  -7.630   1.908  0.00  0.00    +0.000 C 
ATOM     28  C   UNL     1       0.560  -8.452   1.770  0.00  0.00    +0.002 C 
ATOM     29  C   UNL     1      -0.653  -7.528   1.897  0.00  0.00    -0.028 C 
ATOM     30  C   UNL     1      -1.936  -8.350   1.760  0.00  0.00    +0.006 C 
ENDBRANCH  21  24
ENDBRANCH  20  21
ENDBRANCH   2  20
TORSDOF 7
