REMARK  Name = ZINC50765802
REMARK  7 active torsions:
REMARK  status: ('A' for Active; 'I' for Inactive)
REMARK    1  A    between atoms: C_1  and  C_2
REMARK    2  A    between atoms: C_2  and  C_4
REMARK    3  A    between atoms: C_2  and  N_20
REMARK    4  A    between atoms: N_6  and  C_7
REMARK    5  A    between atoms: C_7  and  C_8
REMARK    6  A    between atoms: C_8  and  C_9
REMARK    7  A    between atoms: C_21  and  C_23
REMARK                            x       y       z     vdW  Elec       q    Type
REMARK                         _______ _______ _______ _____ _____    ______ ____
ROOT
ATOM      1  C   UNL     1       0.731  -0.503   1.223  0.00  0.00    +0.233 C 
ATOM      2  O   UNL     1       0.159  -1.213   2.023  0.00  0.00    -0.274 OA
ATOM      3  N   UNL     1       2.019  -0.161   1.426  0.00  0.00    -0.313 N 
ATOM      4  H   UNL     1       2.476   0.406   0.786  0.00  0.00    +0.149 HD
ENDROOT
BRANCH   1   6
ATOM      5  C   UNL     1      -0.019   1.526   0.010  0.00  0.00    +0.038 C 
ATOM      6  C   UNL     1       0.002  -0.004   0.002  0.00  0.00    +0.156 C 
BRANCH   6   7
ATOM      7  N   UNL     1      -1.372  -0.511   0.012  0.00  0.00    -0.300 N 
ATOM      8  C   UNL     1      -2.051  -0.643  -1.145  0.00  0.00    +0.248 C 
ATOM      9  O   UNL     1      -1.522  -0.341  -2.197  0.00  0.00    -0.270 OA
ATOM     10  H   UNL     1      -1.794  -0.752   0.852  0.00  0.00    +0.150 HD
BRANCH   8  11
ATOM     11  C   UNL     1      -3.433  -1.153  -1.134  0.00  0.00    +0.074 A 
ATOM     12  C   UNL     1      -4.312  -1.364  -2.294  0.00  0.00    +0.054 A 
ATOM     13  C   UNL     1      -5.466  -1.838  -1.801  0.00  0.00    +0.195 A 
ATOM     14  O   UNL     1      -5.369  -1.931  -0.466  0.00  0.00    -0.470 OA
ATOM     15  C   UNL     1      -4.164  -1.533  -0.047  0.00  0.00    +0.207 A 
ENDBRANCH   8  11
ENDBRANCH   6   7
ENDBRANCH   1   6
BRANCH   3  16
ATOM     16  C   UNL     1       2.727  -0.647   2.613  0.00  0.00    +0.109 C 
BRANCH  16  17
ATOM     17  C   UNL     1       4.163  -0.117   2.602  0.00  0.00    +0.056 C 
BRANCH  17  18
ATOM     18  C   UNL     1       4.891  -0.616   3.823  0.00  0.00    -0.021 A 
ATOM     19  C   UNL     1       5.033   0.033   4.989  0.00  0.00    +0.087 A 
ATOM     20  N   UNL     1       5.755  -0.733   5.864  0.00  0.00    -0.360 N 
ATOM     21  H   UNL     1       5.986  -0.475   6.770  0.00  0.00    +0.165 HD
ATOM     22  C   UNL     1       6.105  -1.923   5.267  0.00  0.00    +0.049 A 
ATOM     23  C   UNL     1       5.575  -1.905   3.964  0.00  0.00    +0.003 A 
ATOM     24  C   UNL     1       5.769  -2.997   3.116  0.00  0.00    +0.013 A 
ATOM     25  C   UNL     1       6.473  -4.082   3.558  0.00  0.00    +0.039 A 
ATOM     26  C   UNL     1       6.996  -4.108   4.845  0.00  0.00    +0.125 A 
ATOM     27  C   UNL     1       6.822  -3.035   5.696  0.00  0.00    +0.064 A 
ATOM     28  F   UNL     1       7.688  -5.189   5.265  0.00  0.00    -0.205 F 
ENDBRANCH  17  18
ENDBRANCH  16  17
ENDBRANCH   3  16
TORSDOF 6
