REMARK  Name = ZINC67461852
REMARK  9 active torsions:
REMARK  status: ('A' for Active; 'I' for Inactive)
REMARK    1  A    between atoms: C_1  and  C_2
REMARK    2  A    between atoms: C_2  and  C_3
REMARK    3  A    between atoms: C_3  and  N_4
REMARK    4  A    between atoms: N_4  and  C_5
REMARK    5  A    between atoms: C_5  and  C_6
REMARK    6  A    between atoms: N_14  and  C_15
REMARK    7  A    between atoms: C_15  and  C_16
REMARK    8  A    between atoms: C_16  and  C_17
REMARK    9  A    between atoms: C_17  and  C_18
REMARK                            x       y       z     vdW  Elec       q    Type
REMARK                         _______ _______ _______ _____ _____    ______ ____
ROOT
ATOM      1  N   UNL     1       0.762  -1.976   1.234  0.00  0.00    -0.285 N 
ATOM      2  C   UNL     1      -0.234  -2.667   1.823  0.00  0.00    +0.302 C 
ATOM      3  O   UNL     1      -0.217  -3.882   1.816  0.00  0.00    -0.253 OA
ATOM      4  N   UNL     1      -1.248  -2.010   2.420  0.00  0.00    -0.299 N 
ATOM      5  H   UNL     1      -1.261  -1.040   2.425  0.00  0.00    +0.150 HD
ENDROOT
BRANCH   1   6
ATOM      6  C   UNL     1       0.742  -0.511   1.242  0.00  0.00    +0.109 C 
BRANCH   6   8
ATOM      7  C   UNL     1      -0.019   1.526   0.010  0.00  0.00    +0.005 C 
ATOM      8  C   UNL     1       0.002  -0.004   0.002  0.00  0.00    +0.016 C 
ENDBRANCH   6   8
ENDBRANCH   1   6
BRANCH   1   9
ATOM      9  C   UNL     1       1.864  -2.690   0.585  0.00  0.00    +0.112 C 
BRANCH   9  10
ATOM     10  C   UNL     1       2.981  -2.935   1.601  0.00  0.00    +0.006 C 
ATOM     11  C   UNL     1       3.572  -1.595   2.044  0.00  0.00    +0.005 C 
ATOM     12  C   UNL     1       4.689  -1.841   3.060  0.00  0.00    +0.000 C 
ATOM     13  C   UNL     1       5.785  -2.693   2.418  0.00  0.00    +0.000 C 
ATOM     14  C   UNL     1       5.194  -4.034   1.975  0.00  0.00    +0.000 C 
ATOM     15  C   UNL     1       4.077  -3.788   0.959  0.00  0.00    +0.005 C 
ENDBRANCH   9  10
ENDBRANCH   1   9
BRANCH   4  16
ATOM     16  C   UNL     1      -2.331  -2.760   3.061  0.00  0.00    +0.106 C 
BRANCH  16  17
ATOM     17  C   UNL     1      -3.346  -1.783   3.657  0.00  0.00    +0.026 C 
BRANCH  17  18
ATOM     18  C   UNL     1      -4.476  -2.567   4.326  0.00  0.00    +0.078 C 
BRANCH  18  19
ATOM     19  C   UNL     1      -5.476  -1.605   4.913  0.00  0.00    +0.134 A 
ATOM     20  N   UNL     1      -5.454  -1.102   6.120  0.00  0.00    -0.134 NA
ATOM     21  N   UNL     1      -6.456  -0.310   6.279  0.00  0.00    -0.134 NA
ATOM     22  C   UNL     1      -7.159  -0.271   5.183  0.00  0.00    +0.133 A 
ATOM     23  N   UNL     1      -6.561  -1.094   4.290  0.00  0.00    -0.315 N 
ATOM     24  C   UNL     1      -7.017  -1.382   2.930  0.00  0.00    +0.125 C 
ATOM     25  C   UNL     1      -7.796  -0.179   2.390  0.00  0.00    +0.022 C 
ATOM     26  C   UNL     1      -9.274  -0.319   2.751  0.00  0.00    +0.002 C 
ATOM     27  C   UNL     1      -9.454  -0.346   4.265  0.00  0.00    +0.008 C 
ATOM     28  C   UNL     1      -8.402   0.541   4.926  0.00  0.00    +0.076 C 
ENDBRANCH  18  19
ENDBRANCH  17  18
ENDBRANCH  16  17
ENDBRANCH   4  16
TORSDOF 8
