REMARK  Name = ZINC09707620
REMARK  7 active torsions:
REMARK  status: ('A' for Active; 'I' for Inactive)
REMARK    1  A    between atoms: C_1  and  S_2
REMARK    2  A    between atoms: S_2  and  C_5
REMARK    3  A    between atoms: C_10  and  C_11
REMARK    4  A    between atoms: C_17  and  C_19
REMARK    5  A    between atoms: C_19  and  C_20
REMARK    6  A    between atoms: C_20  and  S_21
REMARK    7  A    between atoms: S_21  and  C_22
REMARK                            x       y       z     vdW  Elec       q    Type
REMARK                         _______ _______ _______ _____ _____    ______ ____
ROOT
ATOM      1  C   UNL     1       8.035   8.992  -0.027  0.00  0.00    +0.252 A 
ATOM      2  N   UNL     1       8.310   7.710  -0.036  0.00  0.00    -0.106 NA
ATOM      3  N   UNL     1       7.213   7.038  -0.024  0.00  0.00    -0.092 NA
ATOM      4  C   UNL     1       6.195   7.865  -0.016  0.00  0.00    +0.314 A 
ATOM      5  O   UNL     1       6.690   9.116  -0.014  0.00  0.00    -0.405 OA
ATOM      6  N   UNL     1       4.854   7.514  -0.005  0.00  0.00    -0.238 N 
ATOM      7  C   UNL     1       4.498   6.214  -0.008  0.00  0.00    +0.221 C 
ATOM      8  O   UNL     1       5.350   5.352  -0.021  0.00  0.00    -0.275 OA
ATOM      9  H   UNL     1       4.172   8.204   0.005  0.00  0.00    +0.159 HD
ENDROOT
BRANCH   1  15
ATOM     10  C   UNL     1      10.384   9.821  -0.045  0.00  0.00    +0.100 A 
ATOM     11  C   UNL     1      11.294  10.858  -0.049  0.00  0.00    +0.028 A 
ATOM     12  C   UNL     1      10.854  12.169  -0.039  0.00  0.00    +0.002 A 
ATOM     13  C   UNL     1       9.499  12.451  -0.025  0.00  0.00    +0.001 A 
ATOM     14  C   UNL     1       8.578  11.424  -0.026  0.00  0.00    +0.015 A 
ATOM     15  C   UNL     1       9.016  10.098  -0.031  0.00  0.00    +0.063 A 
BRANCH  10  17
ATOM     16  C   UNL     1      10.409   7.465   1.532  0.00  0.00    +0.200 C 
ATOM     17  S   UNL     1      10.947   8.152  -0.059  0.00  0.00    -0.005 S 
ATOM     18  O   UNL     1      10.234   7.537  -1.123  0.00  0.00    -0.170 OA
ATOM     19  O   UNL     1      12.364   8.247  -0.096  0.00  0.00    -0.170 OA
ENDBRANCH  10  17
ENDBRANCH   1  15
BRANCH   7  20
ATOM     20  C   UNL     1       3.040   5.832   0.004  0.00  0.00    +0.107 C 
BRANCH  20  21
ATOM     21  C   UNL     1       2.912   4.308  -0.003  0.00  0.00    +0.083 C 
BRANCH  21  22
ATOM     22  S   UNL     1       1.157   3.849   0.011  0.00  0.00    -0.125 S 
BRANCH  22  23
ATOM     23  C   UNL     1       1.178   2.087   0.002  0.00  0.00    +0.008 A 
ATOM     24  C   UNL     1      -0.017   1.377   0.010  0.00  0.00    +0.017 A 
ATOM     25  C   UNL     1       0.002  -0.004   0.002  0.00  0.00    +0.039 A 
ATOM     26  C   UNL     1       1.210  -0.681  -0.013  0.00  0.00    +0.123 A 
ATOM     27  C   UNL     1       2.402   0.024  -0.021  0.00  0.00    +0.039 A 
ATOM     28  C   UNL     1       2.388   1.405  -0.013  0.00  0.00    +0.017 A 
ATOM     29  F   UNL     1       1.226  -2.032  -0.020  0.00  0.00    -0.205 F 
ENDBRANCH  22  23
ENDBRANCH  21  22
ENDBRANCH  20  21
ENDBRANCH   7  20
TORSDOF 6
