REMARK  Name = ZINC16606993
REMARK  12 active torsions:
REMARK  status: ('A' for Active; 'I' for Inactive)
REMARK    1  A    between atoms: C_1  and  C_2
REMARK    2  A    between atoms: C_2  and  C_3
REMARK    3  A    between atoms: C_3  and  C_5
REMARK    4  A    between atoms: C_3  and  C_6
REMARK    5  A    between atoms: C_6  and  C_8
REMARK    6  A    between atoms: C_6  and  N_23
REMARK    7  A    between atoms: C_14  and  C_16
REMARK    8  A    between atoms: N_26  and  C_27
REMARK    9  A    between atoms: C_27  and  C_28
REMARK   10  A    between atoms: C_28  and  O_30
REMARK   11  A    between atoms: O_30  and  C_31
REMARK   12  A    between atoms: C_31  and  C_32
REMARK                            x       y       z     vdW  Elec       q    Type
REMARK                         _______ _______ _______ _____ _____    ______ ____
ROOT
ATOM      1  C   UNL     1       8.322  -1.599   0.158  0.00  0.00    +0.163 C 
ENDROOT
BRANCH   1   2
ATOM      2  C   UNL     1       6.865  -1.977   0.076  0.00  0.00    +0.239 C 
ATOM      3  O   UNL     1       6.538  -3.017  -0.455  0.00  0.00    -0.273 OA
ATOM      4  N   UNL     1       5.927  -1.160   0.594  0.00  0.00    -0.262 N 
ATOM      5  C   UNL     1       4.580  -1.456   0.427  0.00  0.00    +0.188 A 
ATOM      6  N   UNL     1       4.001  -2.475  -0.195  0.00  0.00    -0.125 NA
ATOM      7  N   UNL     1       2.747  -2.598  -0.249  0.00  0.00    -0.140 NA
ATOM      8  C   UNL     1       1.931  -1.710   0.305  0.00  0.00    +0.134 A 
ATOM      9  S   UNL     1       3.129  -0.571   0.993  0.00  0.00    -0.030 S 
ATOM     10  H   UNL     1       6.192  -0.365   1.083  0.00  0.00    +0.157 HD
BRANCH   8  11
ATOM     11  C   UNL     1       0.454  -1.674   0.347  0.00  0.00    +0.009 A 
ATOM     12  C   UNL     1      -0.289  -2.683  -0.268  0.00  0.00    +0.012 A 
ATOM     13  C   UNL     1      -1.668  -2.642  -0.229  0.00  0.00    +0.016 A 
ATOM     14  C   UNL     1      -2.314  -1.608   0.426  0.00  0.00    +0.018 A 
ATOM     15  C   UNL     1      -1.583  -0.604   1.037  0.00  0.00    +0.016 A 
ATOM     16  C   UNL     1      -0.204  -0.631   1.001  0.00  0.00    +0.012 A 
ATOM     17 BR   UNL     1      -4.204  -1.562   0.480  0.00  0.00    -0.050 Br
ENDBRANCH   8  11
ENDBRANCH   1   2
BRANCH   1  18
ATOM     18  N   UNL     1       9.136  -2.656  -0.447  0.00  0.00    -0.288 N 
ATOM     19  C   UNL     1      10.231  -2.337  -1.164  0.00  0.00    +0.301 C 
ATOM     20  O   UNL     1      10.591  -1.178  -1.241  0.00  0.00    -0.253 OA
ATOM     21  N   UNL     1      10.927  -3.302  -1.797  0.00  0.00    -0.289 N 
ATOM     22  H   UNL     1       8.886  -3.586  -0.330  0.00  0.00    +0.151 HD
ATOM     23  H   UNL     1      10.640  -4.227  -1.736  0.00  0.00    +0.151 HD
BRANCH  21  24
ATOM     24  C   UNL     1      12.117  -2.955  -2.577  0.00  0.00    +0.226 C 
BRANCH  24  25
ATOM     25  C   UNL     1      12.707  -4.205  -3.178  0.00  0.00    +0.324 C 
ATOM     26  O   UNL     1      12.186  -5.276  -2.975  0.00  0.00    -0.249 OA
BRANCH  25  27
ATOM     27  O   UNL     1      13.810  -4.129  -3.938  0.00  0.00    -0.464 OA
BRANCH  27  28
ATOM     28  C   UNL     1      14.322  -5.373  -4.484  0.00  0.00    +0.229 C 
ATOM     29  C   UNL     1      15.574  -5.088  -5.316  0.00  0.00    +0.048 C 
ENDBRANCH  27  28
ENDBRANCH  25  27
ENDBRANCH  24  25
ENDBRANCH  21  24
ENDBRANCH   1  18
BRANCH   1  30
ATOM     30  C   UNL     1       8.722  -1.422   1.624  0.00  0.00    +0.015 C 
ATOM     31  C   UNL     1      10.148  -0.874   1.701  0.00  0.00    +0.010 C 
BRANCH  30  33
ATOM     32  C   UNL     1       7.202  -3.243   2.409  0.00  0.00    +0.004 C 
ATOM     33  C   UNL     1       8.656  -2.775   2.337  0.00  0.00    +0.002 C 
ENDBRANCH  30  33
ENDBRANCH   1  30
TORSDOF 9
