REMARK  Name = ZINC20149808
REMARK  5 active torsions:
REMARK  status: ('A' for Active; 'I' for Inactive)
REMARK    1  A    between atoms: C_1  and  C_2
REMARK    2  A    between atoms: C_7  and  C_8
REMARK    3  A    between atoms: C_8  and  N_9
REMARK    4  A    between atoms: C_11  and  C_18
REMARK    5  A    between atoms: C_28  and  C_30
REMARK                            x       y       z     vdW  Elec       q    Type
REMARK                         _______ _______ _______ _____ _____    ______ ____
ROOT
ATOM      1  C   UNL     1      -4.128   2.163   3.462  0.00  0.00    +0.026 C 
ATOM      2  C   UNL     1      -3.871   3.519   3.380  0.00  0.00    +0.079 C 
ATOM      3  C   UNL     1      -4.958   4.530   3.483  0.00  0.00    +0.132 C 
ATOM      4  N   UNL     1      -6.022   4.367   4.226  0.00  0.00    -0.385 N 
ATOM      5  N   UNL     1      -4.728   5.682   2.700  0.00  0.00    -0.153 N 
ATOM      6  C   UNL     1      -3.422   5.975   2.367  0.00  0.00    +0.181 C 
ATOM      7  N   UNL     1      -2.357   5.254   2.611  0.00  0.00    -0.152 NA
ATOM      8  C   UNL     1      -2.498   4.043   3.192  0.00  0.00    +0.273 C 
ATOM      9  O   UNL     1      -1.525   3.397   3.548  0.00  0.00    -0.268 OA
ATOM     10  S   UNL     1      -3.588   7.529   1.529  0.00  0.00    -0.033 S 
ATOM     11  C   UNL     1      -5.371   7.638   1.586  0.00  0.00    +0.131 C 
ATOM     12  N   UNL     1      -5.696   6.552   2.244  0.00  0.00    -0.164 NA
ATOM     13  H   UNL     1      -6.131   3.556   4.745  0.00  0.00    +0.157 HD
ATOM     14  H   UNL     1      -6.702   5.059   4.257  0.00  0.00    +0.157 HD
ENDROOT
BRANCH   1  17
ATOM     15  N   UNL     1      -1.325   0.224   2.307  0.00  0.00    -0.342 N 
ATOM     16  C   UNL     1      -2.141   1.292   2.218  0.00  0.00    +0.095 A 
ATOM     17  C   UNL     1      -3.093   1.231   3.217  0.00  0.00    +0.001 A 
ATOM     18  C   UNL     1      -2.812  -0.003   3.978  0.00  0.00    +0.007 A 
ATOM     19  C   UNL     1      -1.699  -0.591   3.357  0.00  0.00    +0.050 A 
ATOM     20  C   UNL     1      -1.195  -1.788   3.855  0.00  0.00    +0.026 A 
ATOM     21  C   UNL     1      -1.791  -2.385   4.944  0.00  0.00    +0.002 A 
ATOM     22  C   UNL     1      -2.893  -1.804   5.554  0.00  0.00    +0.001 A 
ATOM     23  C   UNL     1      -3.402  -0.614   5.079  0.00  0.00    +0.010 A 
BRANCH  15  24
ATOM     24  C   UNL     1      -0.198  -0.041   1.408  0.00  0.00    +0.157 C 
BRANCH  24  31
ATOM     25  C   UNL     1      -1.461   0.812  -1.046  0.00  0.00    +0.044 C 
ATOM     26  C   UNL     1      -1.211  -0.653  -0.797  0.00  0.00    -0.046 A 
ATOM     27  C   UNL     1      -1.581  -1.589  -1.746  0.00  0.00    +0.004 A 
ATOM     28  C   UNL     1      -1.351  -2.932  -1.517  0.00  0.00    +0.000 A 
ATOM     29  C   UNL     1      -0.751  -3.341  -0.340  0.00  0.00    +0.000 A 
ATOM     30  C   UNL     1      -0.381  -2.405   0.608  0.00  0.00    +0.005 A 
ATOM     31  C   UNL     1      -0.607  -1.061   0.377  0.00  0.00    -0.025 A 
ENDBRANCH  24  31
ENDBRANCH  15  24
ENDBRANCH   1  17
BRANCH  11  32
ATOM     32  C   UNL     1      -6.255   8.687   1.031  0.00  0.00    +0.027 A 
ATOM     33  C   UNL     1      -5.710   9.775   0.350  0.00  0.00    +0.012 A 
ATOM     34  C   UNL     1      -6.539  10.750  -0.165  0.00  0.00    +0.001 A 
ATOM     35  C   UNL     1      -7.910  10.650  -0.007  0.00  0.00    +0.001 A 
ATOM     36  C   UNL     1      -8.459   9.575   0.668  0.00  0.00    +0.020 A 
ATOM     37  C   UNL     1      -7.639   8.589   1.183  0.00  0.00    +0.051 A 
ATOM     38 CL   UNL     1      -8.329   7.236   2.023  0.00  0.00    -0.083 Cl
ENDBRANCH  11  32
TORSDOF 4
