REMARK  Name = ZINC02518742
REMARK  8 active torsions:
REMARK  status: ('A' for Active; 'I' for Inactive)
REMARK    1  A    between atoms: C_1  and  C_2
REMARK    2  A    between atoms: C_7  and  O_8
REMARK    3  A    between atoms: O_8  and  C_9
REMARK    4  A    between atoms: C_9  and  C_11
REMARK    5  A    between atoms: C_9  and  C_12
REMARK    6  A    between atoms: C_15  and  S_20
REMARK    7  A    between atoms: N_16  and  C_17
REMARK    8  A    between atoms: C_17  and  C_18
REMARK                            x       y       z     vdW  Elec       q    Type
REMARK                         _______ _______ _______ _____ _____    ______ ____
ROOT
ATOM      1  C   UNL     1      -3.417  -0.352   0.072  0.00  0.00    +0.238 C 
ATOM      2  C   UNL     1      -2.536  -1.600  -0.019  0.00  0.00    +0.060 C 
ENDROOT
BRANCH   1   3
ATOM      3  C   UNL     1      -3.178   0.520  -1.134  0.00  0.00    +0.175 A 
ATOM      4  N   UNL     1      -3.613   0.302  -2.342  0.00  0.00    -0.130 NA
ATOM      5  N   UNL     1      -3.226   1.244  -3.127  0.00  0.00    -0.123 NA
ATOM      6  C   UNL     1      -2.522   2.124  -2.454  0.00  0.00    +0.189 A 
ATOM      7  N   UNL     1      -2.465   1.687  -1.162  0.00  0.00    -0.299 N 
BRANCH   6   8
ATOM      8  S   UNL     1      -1.786   3.591  -3.097  0.00  0.00    -0.103 S 
ATOM      9  H   UNL     1      -0.526   3.086  -3.477  0.00  0.00    +0.110 HD
ENDBRANCH   6   8
BRANCH   7  10
ATOM     10  C   UNL     1      -1.786   2.335  -0.037  0.00  0.00    +0.152 C 
BRANCH  10  11
ATOM     11  C   UNL     1      -0.370   1.827   0.055  0.00  0.00    -0.013 C 
ATOM     12  C   UNL     1       0.631   2.672   0.042  0.00  0.00    +0.005 C 
ENDBRANCH  10  11
ENDBRANCH   7  10
ENDBRANCH   1   3
BRANCH   1  13
ATOM     13  O   UNL     1      -4.791  -0.741   0.114  0.00  0.00    -0.481 OA
BRANCH  13  20
ATOM     14  C   UNL     1      -7.558  -1.292   0.255  0.00  0.00    +0.047 C 
ATOM     15  C   UNL     1      -6.657  -1.344   1.461  0.00  0.00    -0.007 A 
ATOM     16  C   UNL     1      -7.177  -1.671   2.699  0.00  0.00    +0.027 A 
ATOM     17  C   UNL     1      -6.350  -1.718   3.807  0.00  0.00    +0.041 A 
ATOM     18  C   UNL     1      -5.000  -1.438   3.678  0.00  0.00    +0.023 A 
ATOM     19  C   UNL     1      -4.476  -1.115   2.442  0.00  0.00    +0.047 A 
ATOM     20  C   UNL     1      -5.305  -1.062   1.331  0.00  0.00    +0.124 A 
ATOM     21 CL   UNL     1      -7.005  -2.130   5.361  0.00  0.00    -0.084 Cl
ENDBRANCH  13  20
ENDBRANCH   1  13
TORSDOF 6
