REMARK  Name = ZINC59310143
REMARK  6 active torsions:
REMARK  status: ('A' for Active; 'I' for Inactive)
REMARK    1  A    between atoms: C_14  and  C_15
REMARK    2  A    between atoms: N_16  and  N_17
REMARK    3  A    between atoms: C_20  and  S_23
REMARK    4  A    between atoms: S_23  and  C_24
REMARK    5  A    between atoms: C_24  and  C_25
REMARK    6  A    between atoms: N_27  and  C_28
REMARK                            x       y       z     vdW  Elec       q    Type
REMARK                         _______ _______ _______ _____ _____    ______ ____
ROOT
ATOM      1  N   UNL     1       7.354   0.426   1.451  0.00  0.00    -0.205 N 
ATOM      2  C   UNL     1       8.564  -0.224   1.288  0.00  0.00    +0.232 A 
ATOM      3  N   UNL     1       8.777  -1.514   1.442  0.00  0.00    -0.186 NA
ATOM      4  C   UNL     1      10.063  -1.789   1.203  0.00  0.00    +0.211 A 
ATOM      5  N   UNL     1      10.687  -0.677   0.893  0.00  0.00    -0.144 NA
ATOM      6  N   UNL     1       9.733   0.353   0.936  0.00  0.00    -0.245 N 
ATOM      7  H   UNL     1       7.295   1.384   1.309  0.00  0.00    +0.177 HD
ATOM      8  H   UNL     1       9.885   1.293   0.751  0.00  0.00    +0.192 HD
ENDROOT
BRANCH   1  10
ATOM      9  C   UNL     1       5.074   0.312   1.973  0.00  0.00    +0.139 C 
ATOM     10  N   UNL     1       6.214  -0.299   1.820  0.00  0.00    -0.188 NA
BRANCH   9  24
ATOM     11  C   UNL     1       3.985  -4.633   2.623  0.00  0.00    +0.001 A 
ATOM     12  C   UNL     1       5.122  -3.915   2.255  0.00  0.00    +0.001 A 
ATOM     13  C   UNL     1       5.111  -2.558   2.163  0.00  0.00    +0.009 A 
ATOM     14  C   UNL     1       3.928  -1.853   2.445  0.00  0.00    -0.009 A 
ATOM     15  C   UNL     1       2.732  -2.604   2.831  0.00  0.00    -0.017 A 
ATOM     16  C   UNL     1       2.811  -4.011   2.907  0.00  0.00    +0.008 A 
ATOM     17  C   UNL     1       1.541  -1.935   3.117  0.00  0.00    +0.017 A 
ATOM     18  C   UNL     1       1.486  -0.543   3.035  0.00  0.00    -0.017 A 
ATOM     19  C   UNL     1       0.294   0.156   3.320  0.00  0.00    +0.008 A 
ATOM     20  C   UNL     1       0.274   1.511   3.231  0.00  0.00    +0.001 A 
ATOM     21  C   UNL     1       1.406   2.237   2.864  0.00  0.00    +0.001 A 
ATOM     22  C   UNL     1       2.585   1.623   2.577  0.00  0.00    +0.009 A 
ATOM     23  C   UNL     1       2.674   0.222   2.650  0.00  0.00    -0.009 A 
ATOM     24  C   UNL     1       3.882  -0.446   2.360  0.00  0.00    +0.010 A 
ENDBRANCH   9  24
ENDBRANCH   1  10
BRANCH   4  25
ATOM     25  S   UNL     1      10.801  -3.387   1.291  0.00  0.00    -0.075 S 
BRANCH  25  26
ATOM     26  C   UNL     1      12.539  -3.091   0.864  0.00  0.00    +0.173 C 
BRANCH  26  27
ATOM     27  C   UNL     1      13.295  -4.394   0.902  0.00  0.00    +0.228 C 
ATOM     28  O   UNL     1      12.717  -5.422   1.190  0.00  0.00    -0.275 OA
ATOM     29  N   UNL     1      14.612  -4.418   0.617  0.00  0.00    -0.280 N 
ATOM     30  H   UNL     1      15.079  -3.593   0.413  0.00  0.00    +0.155 HD
BRANCH  29  31
ATOM     31  C   UNL     1      15.306  -5.636   0.615  0.00  0.00    +0.105 A 
ATOM     32  C   UNL     1      16.614  -5.693   1.082  0.00  0.00    +0.147 A 
ATOM     33  C   UNL     1      17.296  -6.896   1.079  0.00  0.00    +0.040 A 
ATOM     34  C   UNL     1      16.679  -8.042   0.612  0.00  0.00    +0.006 A 
ATOM     35  C   UNL     1      15.377  -7.989   0.147  0.00  0.00    +0.040 A 
ATOM     36  C   UNL     1      14.687  -6.791   0.152  0.00  0.00    +0.147 A 
ATOM     37  F   UNL     1      13.414  -6.742  -0.297  0.00  0.00    -0.203 F 
ATOM     38  F   UNL     1      17.219  -4.574   1.538  0.00  0.00    -0.203 F 
ENDBRANCH  29  31
ENDBRANCH  26  27
ENDBRANCH  25  26
ENDBRANCH   4  25
TORSDOF 6
