REMARK  Name = ZINC42015259
REMARK  5 active torsions:
REMARK  status: ('A' for Active; 'I' for Inactive)
REMARK    1  A    between atoms: C_1  and  C_2
REMARK    2  A    between atoms: C_5  and  N_9
REMARK    3  A    between atoms: C_10  and  C_14
REMARK    4  A    between atoms: C_18  and  C_21
REMARK    5  A    between atoms: C_19  and  N_20
REMARK                            x       y       z     vdW  Elec       q    Type
REMARK                         _______ _______ _______ _____ _____    ______ ____
ROOT
ATOM      1  N   UNL     1       0.811  -4.445  -0.009  0.00  0.00    -0.192 N 
ATOM      2  C   UNL     1       0.162  -5.008   1.051  0.00  0.00    +0.189 A 
ATOM      3  N   UNL     1      -0.590  -5.976   0.569  0.00  0.00    -0.108 NA
ATOM      4  N   UNL     1      -0.458  -6.057  -0.705  0.00  0.00    -0.022 NA
ATOM      5  N   UNL     1       0.366  -5.163  -1.133  0.00  0.00    -0.039 NA
ENDROOT
BRANCH   1  10
ATOM      6  C   UNL     1       4.492  -0.125   0.089  0.00  0.00    +0.044 C 
ATOM      7  C   UNL     1       3.514  -1.272   0.063  0.00  0.00    -0.049 A 
ATOM      8  C   UNL     1       3.923  -2.536   0.447  0.00  0.00    +0.005 A 
ATOM      9  C   UNL     1       3.030  -3.589   0.423  0.00  0.00    +0.029 A 
ATOM     10  C   UNL     1       1.720  -3.378   0.015  0.00  0.00    +0.083 A 
ATOM     11  C   UNL     1       1.311  -2.107  -0.368  0.00  0.00    +0.044 A 
ATOM     12  C   UNL     1       2.209  -1.056  -0.338  0.00  0.00    +0.020 A 
ATOM     13 BR   UNL     1      -0.472  -1.813  -0.925  0.00  0.00    -0.048 Br
ENDBRANCH   1  10
BRANCH   2  14
ATOM     14  C   UNL     1       0.281  -4.608   2.469  0.00  0.00    +0.042 A 
ATOM     15  C   UNL     1       0.184  -3.264   2.829  0.00  0.00    +0.013 A 
ATOM     16  C   UNL     1       0.296  -2.896   4.154  0.00  0.00    +0.001 A 
ATOM     17  C   UNL     1       0.504  -3.856   5.130  0.00  0.00    +0.005 A 
ATOM     18  C   UNL     1       0.603  -5.190   4.788  0.00  0.00    -0.029 A 
ATOM     19  C   UNL     1       0.487  -5.578   3.460  0.00  0.00    +0.038 A 
ATOM     20  C   UNL     1       0.830  -6.227   5.857  0.00  0.00    +0.045 C 
BRANCH  19  21
ATOM     21  N   UNL     1       0.581  -6.924   3.113  0.00  0.00    -0.357 N 
ATOM     22  H   UNL     1       0.504  -7.192   2.184  0.00  0.00    +0.142 HD
ATOM     23  H   UNL     1       0.723  -7.593   3.800  0.00  0.00    +0.142 HD
ENDBRANCH  19  21
ENDBRANCH   2  14
TORSDOF 3
