REMARK  Name = ZINC27777753
REMARK  10 active torsions:
REMARK  status: ('A' for Active; 'I' for Inactive)
REMARK    1  A    between atoms: C_1  and  C_2
REMARK    2  A    between atoms: C_2  and  C_4
REMARK    3  A    between atoms: C_2  and  N_12
REMARK    4  A    between atoms: C_6  and  C_9
REMARK    5  A    between atoms: C_9  and  C_10
REMARK    6  A    between atoms: C_9  and  C_11
REMARK    7  A    between atoms: N_12  and  C_13
REMARK    8  A    between atoms: N_12  and  C_14
REMARK    9  A    between atoms: C_14  and  C_15
REMARK   10  A    between atoms: C_18  and  C_20
REMARK                            x       y       z     vdW  Elec       q    Type
REMARK                         _______ _______ _______ _____ _____    ______ ____
ROOT
ATOM      1  C   UNL     1      -0.059  -0.110  -2.416  0.00  0.00    +0.159 C 
ENDROOT
BRANCH   1   2
ATOM      2  C   UNL     1       0.536  -0.815  -3.608  0.00  0.00    +0.120 A 
ATOM      3  C   UNL     1       0.166  -2.025  -4.071  0.00  0.00    +0.046 A 
ATOM      4  C   UNL     1       0.973  -2.303  -5.192  0.00  0.00    +0.050 A 
ATOM      5  C   UNL     1       1.799  -1.236  -5.354  0.00  0.00    +0.135 A 
ATOM      6  O   UNL     1       1.519  -0.339  -4.389  0.00  0.00    -0.458 OA
BRANCH   5   7
ATOM      7  C   UNL     1       2.823  -1.084  -6.409  0.00  0.00    +0.017 A 
ATOM      8  C   UNL     1       3.005  -2.090  -7.360  0.00  0.00    +0.012 A 
ATOM      9  C   UNL     1       3.962  -1.942  -8.342  0.00  0.00    +0.016 A 
ATOM     10  C   UNL     1       4.743  -0.800  -8.385  0.00  0.00    +0.018 A 
ATOM     11  C   UNL     1       4.568   0.201  -7.445  0.00  0.00    +0.016 A 
ATOM     12  C   UNL     1       3.610   0.068  -6.462  0.00  0.00    +0.012 A 
ATOM     13 BR   UNL     1       6.054  -0.606  -9.734  0.00  0.00    -0.050 Br
ENDBRANCH   5   7
ENDBRANCH   1   2
BRANCH   1  14
ATOM     14  N   UNL     1       0.690  -0.478  -1.207  0.00  0.00    -0.287 NA
ATOM     15  C   UNL     1       2.066   0.033  -1.264  0.00  0.00    +0.106 C 
BRANCH  14  17
ATOM     16  C   UNL     1      -0.019   1.526   0.010  0.00  0.00    +0.034 C 
ATOM     17  C   UNL     1       0.002  -0.004   0.002  0.00  0.00    +0.143 C 
BRANCH  17  18
ATOM     18  C   UNL     1       0.731  -0.503   1.223  0.00  0.00    +0.244 A 
ATOM     19  N   UNL     1       0.179  -1.034   2.279  0.00  0.00    -0.194 NA
ATOM     20  C   UNL     1       1.119  -1.365   3.171  0.00  0.00    +0.174 A 
ATOM     21  N   UNL     1       2.287  -1.047   2.691  0.00  0.00    -0.061 NA
ATOM     22  O   UNL     1       2.057  -0.484   1.408  0.00  0.00    -0.336 OA
BRANCH  20  23
ATOM     23  C   UNL     1       0.868  -2.001   4.514  0.00  0.00    +0.054 C 
ATOM     24  C   UNL     1       1.586  -3.351   4.581  0.00  0.00    +0.015 C 
ATOM     25  C   UNL     1       1.397  -1.086   5.619  0.00  0.00    +0.015 C 
ENDBRANCH  20  23
ENDBRANCH  17  18
ENDBRANCH  14  17
ENDBRANCH   1  14
TORSDOF 6
