REMARK  Name = ZINC57740491
REMARK  9 active torsions:
REMARK  status: ('A' for Active; 'I' for Inactive)
REMARK    1  A    between atoms: C_1  and  C_2
REMARK    2  A    between atoms: C_2  and  C_4
REMARK    3  A    between atoms: C_2  and  N_26
REMARK    4  A    between atoms: C_4  and  C_5
REMARK    5  A    between atoms: C_5  and  N_6
REMARK    6  A    between atoms: C_15  and  C_17
REMARK    7  A    between atoms: N_26  and  C_27
REMARK    8  A    between atoms: C_27  and  C_28
REMARK    9  A    between atoms: C_28  and  C_29
REMARK                            x       y       z     vdW  Elec       q    Type
REMARK                         _______ _______ _______ _____ _____    ______ ____
ROOT
ATOM      1  N   UNL     1       1.584  -2.499   2.401  0.00  0.00    -0.188 N 
ATOM      2  C   UNL     1       0.841  -2.855   3.453  0.00  0.00    +0.282 C 
ATOM      3  O   UNL     1      -0.350  -2.601   3.453  0.00  0.00    -0.267 OA
ATOM      4  C   UNL     1       1.425  -3.542   4.605  0.00  0.00    +0.108 A 
ATOM      5  C   UNL     1       1.073  -3.406   5.926  0.00  0.00    +0.048 A 
ATOM      6  C   UNL     1       1.871  -4.274   6.657  0.00  0.00    +0.038 A 
ATOM      7  C   UNL     1       2.739  -4.951   5.790  0.00  0.00    +0.057 A 
ATOM      8  N   UNL     1       2.454  -4.463   4.522  0.00  0.00    -0.330 N 
ATOM      9  C   UNL     1       3.139  -4.826   3.276  0.00  0.00    +0.180 C 
ATOM     10  C   UNL     1       3.706  -3.564   2.674  0.00  0.00    +0.086 C 
ATOM     11  N   UNL     1       2.957  -2.591   2.310  0.00  0.00    -0.179 NA
ATOM     12  C   UNL     1       3.604  -5.874   6.393  0.00  0.00    +0.034 A 
ATOM     13  C   UNL     1       3.574  -6.059   7.730  0.00  0.00    +0.048 A 
ATOM     14  S   UNL     1       2.297  -4.926   8.252  0.00  0.00    -0.095 S 
ENDROOT
BRANCH  10  15
ATOM     15  C   UNL     1       5.166  -3.450   2.494  0.00  0.00    -0.000 A 
ATOM     16  C   UNL     1       6.014  -4.433   3.010  0.00  0.00    +0.010 A 
ATOM     17  C   UNL     1       7.378  -4.321   2.838  0.00  0.00    +0.001 A 
ATOM     18  C   UNL     1       7.907  -3.238   2.157  0.00  0.00    +0.000 A 
ATOM     19  C   UNL     1       7.072  -2.260   1.645  0.00  0.00    +0.001 A 
ATOM     20  C   UNL     1       5.706  -2.363   1.804  0.00  0.00    +0.010 A 
ENDBRANCH  10  15
BRANCH   1  21
ATOM     21  C   UNL     1       0.875  -1.969   1.234  0.00  0.00    +0.134 C 
BRANCH  21  22
ATOM     22  C   UNL     1       0.752  -0.449   1.359  0.00  0.00    +0.005 C 
BRANCH  22  24
ATOM     23  C   UNL     1      -0.003   1.633   0.204  0.00  0.00    -0.014 C 
ATOM     24  C   UNL     1       0.011   0.105   0.141  0.00  0.00    -0.073 C 
BRANCH  24  25
ATOM     25  N   UNL     1      -1.370  -0.398   0.137  0.00  0.00    +0.381 N 
ATOM     26  H   UNL     1      -1.361  -1.406   0.179  0.00  0.00    -0.086 HD
ATOM     27  H   UNL     1      -1.863  -0.033   0.938  0.00  0.00    -0.086 HD
BRANCH  25  28
ATOM     28  C   UNL     1      -2.045   0.035  -1.093  0.00  0.00    -0.075 C 
BRANCH  28  29
ATOM     29  C   UNL     1      -3.483  -0.488  -1.097  0.00  0.00    +0.055 C 
BRANCH  29  30
ATOM     30  C   UNL     1      -4.176  -0.043  -2.359  0.00  0.00    +0.103 A 
ATOM     31  C   UNL     1      -4.210  -0.723  -3.519  0.00  0.00    +0.044 A 
ATOM     32  C   UNL     1      -4.963   0.055  -4.428  0.00  0.00    +0.041 A 
ATOM     33  C   UNL     1      -5.344   1.164  -3.769  0.00  0.00    +0.195 A 
ATOM     34  O   UNL     1      -4.870   1.096  -2.515  0.00  0.00    -0.468 OA
ENDBRANCH  29  30
ENDBRANCH  28  29
ENDBRANCH  25  28
ENDBRANCH  24  25
ENDBRANCH  22  24
ENDBRANCH  21  22
ENDBRANCH   1  21
TORSDOF 8
