REMARK  Name = ZINC34740751
REMARK  11 active torsions:
REMARK  status: ('A' for Active; 'I' for Inactive)
REMARK    1  A    between atoms: C_1  and  C_2
REMARK    2  A    between atoms: C_5  and  C_8
REMARK    3  A    between atoms: N_11  and  C_28
REMARK    4  A    between atoms: C_13  and  C_15
REMARK    5  A    between atoms: C_15  and  N_16
REMARK    6  A    between atoms: N_16  and  C_17
REMARK    7  A    between atoms: C_23  and  C_25
REMARK    8  A    between atoms: C_25  and  C_26
REMARK    9  A    between atoms: C_25  and  C_27
REMARK   10  A    between atoms: C_28  and  C_29
REMARK   11  A    between atoms: C_34  and  O_35
REMARK                            x       y       z     vdW  Elec       q    Type
REMARK                         _______ _______ _______ _____ _____    ______ ____
ROOT
ATOM      1  C   UNL     1       0.459  -4.975   0.742  0.00  0.00    +0.005 C 
ATOM      2  C   UNL     1       1.455  -5.899   1.486  0.00  0.00    -0.070 C 
ATOM      3  N   UNL     1       0.725  -7.190   1.568  0.00  0.00    +0.383 N 
ATOM      4  C   UNL     1      -0.684  -6.838   1.849  0.00  0.00    -0.073 C 
ATOM      5  C   UNL     1      -0.912  -5.412   1.306  0.00  0.00    -0.005 C 
ATOM      6  H   UNL     1       0.792  -7.684   0.692  0.00  0.00    -0.081 HD
ENDROOT
BRANCH   1  11
ATOM      7  C   UNL     1       1.500   0.574   1.976  0.00  0.00    +0.044 C 
ATOM      8  C   UNL     1       1.229  -0.873   1.654  0.00  0.00    -0.050 A 
ATOM      9  C   UNL     1       1.226  -1.300   0.339  0.00  0.00    +0.003 A 
ATOM     10  C   UNL     1       0.977  -2.628   0.044  0.00  0.00    +0.004 A 
ATOM     11  C   UNL     1       0.731  -3.528   1.064  0.00  0.00    -0.046 A 
ATOM     12  C   UNL     1       0.734  -3.101   2.378  0.00  0.00    +0.004 A 
ATOM     13  C   UNL     1       0.988  -1.775   2.674  0.00  0.00    +0.003 A 
ENDBRANCH   1  11
BRANCH   5  14
ATOM     14  C   UNL     1      -1.965  -5.424   0.196  0.00  0.00    +0.110 C 
BRANCH  14  15
ATOM     15  N   UNL     1      -3.244  -5.886   0.740  0.00  0.00    -0.298 N 
ATOM     16  C   UNL     1      -3.701  -7.116   0.435  0.00  0.00    +0.218 C 
ATOM     17  O   UNL     1      -4.797  -7.468   0.817  0.00  0.00    -0.275 OA
BRANCH  15  18
ATOM     18  C   UNL     1      -4.026  -5.010   1.616  0.00  0.00    +0.076 C 
ATOM     19  C   UNL     1      -4.211  -5.684   2.977  0.00  0.00    +0.022 C 
ATOM     20  C   UNL     1      -5.028  -4.769   3.892  0.00  0.00    +0.002 C 
ATOM     21  C   UNL     1      -6.398  -4.509   3.261  0.00  0.00    +0.000 C 
ATOM     22  C   UNL     1      -6.213  -3.835   1.900  0.00  0.00    +0.002 C 
ATOM     23  C   UNL     1      -5.396  -4.750   0.986  0.00  0.00    +0.022 C 
ENDBRANCH  15  18
BRANCH  16  24
ATOM     24  C   UNL     1      -2.851  -8.055  -0.381  0.00  0.00    +0.069 C 
ATOM     25  C   UNL     1      -3.388  -9.481  -0.242  0.00  0.00    +0.017 C 
ATOM     26  C   UNL     1      -2.894  -7.635  -1.852  0.00  0.00    +0.017 C 
ENDBRANCH  16  24
ENDBRANCH  14  15
ENDBRANCH   5  14
BRANCH   3  27
ATOM     27  C   UNL     1       1.269  -8.011   2.659  0.00  0.00    -0.039 C 
BRANCH  27  28
ATOM     28  C   UNL     1       2.681  -8.417   2.325  0.00  0.00    -0.022 A 
ATOM     29  C   UNL     1       2.937  -9.676   1.817  0.00  0.00    +0.005 A 
ATOM     30  C   UNL     1       4.232 -10.049   1.511  0.00  0.00    +0.000 A 
ATOM     31  C   UNL     1       5.275  -9.164   1.712  0.00  0.00    +0.004 A 
ATOM     32  C   UNL     1       5.025  -7.904   2.220  0.00  0.00    +0.045 A 
ATOM     33  C   UNL     1       3.725  -7.525   2.523  0.00  0.00    +0.118 A 
BRANCH  33  34
ATOM     34  O   UNL     1       3.475  -6.284   3.017  0.00  0.00    -0.507 OA
ATOM     35  H   UNL     1       3.509  -6.231   3.982  0.00  0.00    +0.292 HD
ENDBRANCH  33  34
ENDBRANCH  27  28
ENDBRANCH   3  27
TORSDOF 8
