REMARK  Name = ZINC01258192
REMARK  4 active torsions:
REMARK  status: ('A' for Active; 'I' for Inactive)
REMARK    1  A    between atoms: C_1  and  C_2
REMARK    2  A    between atoms: C_5  and  C_38
REMARK    3  A    between atoms: C_7  and  N_8
REMARK    4  A    between atoms: C_13  and  C_31
REMARK                            x       y       z     vdW  Elec       q    Type
REMARK                         _______ _______ _______ _____ _____    ______ ____
ROOT
ATOM      1  N   UNL     1      -0.185  -0.024   2.417  0.00  0.00    -0.209 N 
ATOM      2  C   UNL     1      -1.348   0.140   3.057  0.00  0.00    +0.233 C 
ATOM      3  O   UNL     1      -2.423  -0.271   2.675  0.00  0.00    -0.274 OA
ATOM      4  C   UNL     1      -1.115   0.919   4.332  0.00  0.00    +0.125 C 
ATOM      5  C   UNL     1      -1.749   2.321   4.190  0.00  0.00    +0.163 C 
ATOM      6  O   UNL     1      -0.740   3.239   4.665  0.00  0.00    -0.348 OA
ATOM      7  C   UNL     1       0.503   2.726   4.164  0.00  0.00    +0.206 C 
ATOM      8  C   UNL     1       0.419   1.181   4.315  0.00  0.00    +0.138 C 
ATOM      9  C   UNL     1       0.871   0.514   3.036  0.00  0.00    +0.234 C 
ATOM     10  O   UNL     1       2.014   0.476   2.632  0.00  0.00    -0.274 OA
ATOM     11  C   UNL     1       1.670   3.275   4.937  0.00  0.00    +0.204 C 
ATOM     12  O   UNL     1       1.864   3.161   6.128  0.00  0.00    -0.288 OA
ATOM     13  C   UNL     1       2.535   3.978   3.969  0.00  0.00    +0.031 A 
ATOM     14  C   UNL     1       3.736   4.667   4.153  0.00  0.00    +0.012 A 
ATOM     15  C   UNL     1       4.372   5.251   3.075  0.00  0.00    +0.001 A 
ATOM     16  C   UNL     1       3.826   5.160   1.806  0.00  0.00    +0.001 A 
ATOM     17  C   UNL     1       2.639   4.484   1.602  0.00  0.00    +0.012 A 
ATOM     18  C   UNL     1       1.979   3.887   2.678  0.00  0.00    +0.031 A 
ATOM     19  C   UNL     1       0.717   3.123   2.730  0.00  0.00    +0.204 C 
ATOM     20  O   UNL     1      -0.009   2.865   1.794  0.00  0.00    -0.288 OA
ENDROOT
BRANCH   1  27
ATOM     21  C   UNL     1       0.128  -2.852   2.488  0.00  0.00    +0.045 C 
ATOM     22  C   UNL     1       0.072  -2.090   1.189  0.00  0.00    -0.029 A 
ATOM     23  C   UNL     1       0.168  -2.765  -0.013  0.00  0.00    +0.006 A 
ATOM     24  C   UNL     1       0.117  -2.066  -1.205  0.00  0.00    +0.013 A 
ATOM     25  C   UNL     1      -0.031  -0.691  -1.198  0.00  0.00    +0.057 A 
ATOM     26  C   UNL     1      -0.128  -0.012   0.000  0.00  0.00    +0.036 A 
ATOM     27  C   UNL     1      -0.082  -0.711   1.199  0.00  0.00    +0.047 A 
BRANCH  25  28
ATOM     28  C   UNL     1      -0.086   0.066  -2.500  0.00  0.00    +0.417 C 
ATOM     29  F   UNL     1       0.032  -0.831  -3.567  0.00  0.00    -0.166 F 
ATOM     30  F   UNL     1      -1.306   0.744  -2.594  0.00  0.00    -0.166 F 
ATOM     31  F   UNL     1       0.965   0.988  -2.548  0.00  0.00    -0.166 F 
ENDBRANCH  25  28
ENDBRANCH   1  27
BRANCH   5  32
ATOM     32  C   UNL     1      -2.992   2.421   5.036  0.00  0.00    -0.018 A 
ATOM     33  C   UNL     1      -2.892   2.764   6.372  0.00  0.00    +0.007 A 
ATOM     34  C   UNL     1      -4.031   2.857   7.149  0.00  0.00    +0.020 A 
ATOM     35  C   UNL     1      -5.272   2.606   6.590  0.00  0.00    +0.041 A 
ATOM     36  C   UNL     1      -5.371   2.262   5.253  0.00  0.00    +0.020 A 
ATOM     37  C   UNL     1      -4.231   2.175   4.476  0.00  0.00    +0.007 A 
ATOM     38 CL   UNL     1      -6.703   2.721   7.565  0.00  0.00    -0.084 Cl
ENDBRANCH   5  32
TORSDOF 3
