REMARK  Name = ZINC39854438
REMARK  7 active torsions:
REMARK  status: ('A' for Active; 'I' for Inactive)
REMARK    1  A    between atoms: C_1  and  C_2
REMARK    2  A    between atoms: C_4  and  C_25
REMARK    3  A    between atoms: C_5  and  N_11
REMARK    4  A    between atoms: C_6  and  N_8
REMARK    5  A    between atoms: C_12  and  C_14
REMARK    6  A    between atoms: C_19  and  C_20
REMARK    7  A    between atoms: C_19  and  C_21
REMARK                            x       y       z     vdW  Elec       q    Type
REMARK                         _______ _______ _______ _____ _____    ______ ____
ROOT
ATOM      1  N   UNL     1      -0.288  -4.143  -0.238  0.00  0.00    -0.283 N 
ATOM      2  C   UNL     1      -0.247  -4.888   0.884  0.00  0.00    +0.231 C 
ATOM      3  O   UNL     1      -0.003  -4.365   1.951  0.00  0.00    -0.274 OA
ATOM      4  H   UNL     1      -0.404  -4.572  -1.101  0.00  0.00    +0.155 HD
ENDROOT
BRANCH   2   5
ATOM      5  C   UNL     1      -0.506  -6.371   0.814  0.00  0.00    +0.110 C 
ATOM      6  C   UNL     1      -1.921  -6.792   0.313  0.00  0.00    +0.024 C 
ATOM      7  C   UNL     1      -2.097  -8.243   0.817  0.00  0.00    +0.006 C 
ATOM      8  C   UNL     1      -0.767  -8.559   1.566  0.00  0.00    +0.003 C 
ATOM      9  C   UNL     1      -0.435  -7.150   2.175  0.00  0.00    -0.011 C 
ATOM     10  C   UNL     1      -1.508  -6.683   3.161  0.00  0.00    +0.012 C 
ATOM     11  C   UNL     1       0.964  -7.104   2.792  0.00  0.00    +0.012 C 
ATOM     12  C   UNL     1       0.301  -8.653   0.433  0.00  0.00    +0.079 C 
ATOM     13  C   UNL     1       0.482  -7.183  -0.035  0.00  0.00    +0.149 C 
ATOM     14  O   UNL     1       1.220  -6.769  -0.896  0.00  0.00    -0.296 OA
ENDBRANCH   2   5
BRANCH   1  19
ATOM     15  C   UNL     1       0.214   1.499   0.081  0.00  0.00    +0.044 C 
ATOM     16  C   UNL     1       0.081  -0.000  -0.004  0.00  0.00    -0.048 A 
ATOM     17  C   UNL     1       1.073  -0.812   0.516  0.00  0.00    +0.008 A 
ATOM     18  C   UNL     1       0.953  -2.185   0.440  0.00  0.00    -0.027 A 
ATOM     19  C   UNL     1      -0.164  -2.752  -0.159  0.00  0.00    +0.067 A 
ATOM     20  C   UNL     1      -1.158  -1.934  -0.681  0.00  0.00    +0.148 A 
ATOM     21  C   UNL     1      -1.035  -0.561  -0.597  0.00  0.00    +0.038 A 
ATOM     22  C   UNL     1       2.034  -3.069   1.007  0.00  0.00    +0.046 C 
BRANCH  20  23
ATOM     23  N   UNL     1      -2.351  -2.533  -1.321  0.00  0.00    +0.058 N 
ATOM     24  O   UNL     1      -3.169  -1.824  -1.858  0.00  0.00    -0.126 OA
ATOM     25  O   UNL     1      -2.506  -3.732  -1.307  0.00  0.00    -0.126 OA
ENDBRANCH  20  23
ENDBRANCH   1  19
TORSDOF 3
