REMARK  Name = ZINC10000212
REMARK  12 active torsions:
REMARK  status: ('A' for Active; 'I' for Inactive)
REMARK    1  A    between atoms: C_1  and  C_2
REMARK    2  A    between atoms: C_5  and  C_8
REMARK    3  A    between atoms: N_10  and  C_11
REMARK    4  A    between atoms: C_11  and  C_13
REMARK    5  A    between atoms: C_11  and  C_16
REMARK    6  A    between atoms: C_13  and  C_14
REMARK    7  A    between atoms: C_13  and  C_15
REMARK    8  A    between atoms: N_18  and  N_19
REMARK    9  A    between atoms: C_20  and  C_21
REMARK   10  A    between atoms: C_24  and  O_27
REMARK   11  A    between atoms: O_27  and  C_28
REMARK   12  A    between atoms: C_28  and  C_29
REMARK                            x       y       z     vdW  Elec       q    Type
REMARK                         _______ _______ _______ _____ _____    ______ ____
ROOT
ATOM      1  C   UNL     1       5.970   1.755  -0.044  0.00  0.00    +0.253 C 
ATOM      2  O   UNL     1       5.950   2.968  -0.038  0.00  0.00    -0.272 OA
ATOM      3  N   UNL     1       4.814   1.062  -0.036  0.00  0.00    -0.205 N 
ATOM      4  H   UNL     1       4.829   0.092  -0.041  0.00  0.00    +0.177 HD
ENDROOT
BRANCH   3   5
ATOM      5  N   UNL     1       3.589   1.743  -0.022  0.00  0.00    -0.188 NA
ATOM      6  C   UNL     1       2.476   1.076  -0.015  0.00  0.00    +0.138 C 
BRANCH   6   7
ATOM      7  C   UNL     1       1.187   1.792   0.000  0.00  0.00    -0.005 A 
ATOM      8  C   UNL     1      -0.013   1.076   0.008  0.00  0.00    +0.013 A 
ATOM      9  C   UNL     1      -1.215   1.750   0.017  0.00  0.00    +0.046 A 
ATOM     10  C   UNL     1      -1.235   3.138   0.030  0.00  0.00    +0.121 A 
ATOM     11  C   UNL     1      -0.044   3.854   0.022  0.00  0.00    +0.046 A 
ATOM     12  C   UNL     1       1.162   3.189   0.008  0.00  0.00    +0.013 A 
BRANCH  10  13
ATOM     13  O   UNL     1      -2.422   3.798   0.044  0.00  0.00    -0.487 OA
BRANCH  13  14
ATOM     14  C   UNL     1      -3.607   3.001   0.051  0.00  0.00    +0.266 C 
BRANCH  14  15
ATOM     15  C   UNL     1      -4.817   3.899   0.067  0.00  0.00    +0.008 A 
ATOM     16  C   UNL     1      -4.658   5.272   0.072  0.00  0.00    +0.010 A 
ATOM     17  C   UNL     1      -5.767   6.097   0.086  0.00  0.00    +0.020 A 
ATOM     18  C   UNL     1      -7.038   5.548   0.095  0.00  0.00    +0.042 A 
ATOM     19  C   UNL     1      -7.197   4.175   0.090  0.00  0.00    +0.040 A 
ATOM     20  C   UNL     1      -6.087   3.350   0.070  0.00  0.00    +0.049 A 
ATOM     21 CL   UNL     1      -6.286   1.625   0.057  0.00  0.00    -0.083 Cl
ATOM     22 CL   UNL     1      -8.431   6.584   0.113  0.00  0.00    -0.083 Cl
ENDBRANCH  14  15
ENDBRANCH  13  14
ENDBRANCH  10  13
ENDBRANCH   6   7
ENDBRANCH   3   5
BRANCH   1  23
ATOM     23  C   UNL     1       7.287   1.023  -0.059  0.00  0.00    +0.163 C 
BRANCH  23  26
ATOM     24  C   UNL     1       9.594   1.644   0.416  0.00  0.00    +0.245 C 
ATOM     25  O   UNL     1       9.775   0.524   0.854  0.00  0.00    -0.270 OA
ATOM     26  N   UNL     1       8.384   1.992  -0.065  0.00  0.00    -0.300 N 
ATOM     27  H   UNL     1       8.241   2.886  -0.414  0.00  0.00    +0.150 HD
BRANCH  24  32
ATOM     28  C   UNL     1      13.908   5.453   0.393  0.00  0.00    +0.044 C 
ATOM     29  C   UNL     1      12.778   4.455   0.399  0.00  0.00    -0.050 A 
ATOM     30  C   UNL     1      12.986   3.182   0.899  0.00  0.00    +0.004 A 
ATOM     31  C   UNL     1      11.957   2.264   0.907  0.00  0.00    +0.013 A 
ATOM     32  C   UNL     1      10.702   2.623   0.410  0.00  0.00    +0.037 A 
ATOM     33  C   UNL     1      10.500   3.907  -0.097  0.00  0.00    +0.013 A 
ATOM     34  C   UNL     1      11.537   4.817  -0.095  0.00  0.00    +0.004 A 
ENDBRANCH  24  32
ENDBRANCH  23  26
BRANCH  23  35
ATOM     35  C   UNL     1       7.370   0.150  -1.313  0.00  0.00    +0.012 C 
ATOM     36  C   UNL     1       7.389   1.043  -2.555  0.00  0.00    +0.009 C 
ATOM     37  C   UNL     1       8.650  -0.687  -1.268  0.00  0.00    +0.009 C 
ENDBRANCH  23  35
ENDBRANCH   1  23
TORSDOF 9
