REMARK  Name = ZINC14017575
REMARK  5 active torsions:
REMARK  status: ('A' for Active; 'I' for Inactive)
REMARK    1  A    between atoms: C_1  and  C_2
REMARK    2  A    between atoms: C_7  and  C_8
REMARK    3  A    between atoms: C_13  and  C_15
REMARK    4  A    between atoms: N_20  and  S_22
REMARK    5  A    between atoms: S_22  and  C_25
REMARK                            x       y       z     vdW  Elec       q    Type
REMARK                         _______ _______ _______ _____ _____    ______ ____
ROOT
ATOM      1  C   UNL     1       1.054   2.562  -0.461  0.00  0.00    +0.091 C 
ATOM      2  C   UNL     1       0.898   3.611  -1.564  0.00  0.00    +0.015 C 
ATOM      3  C   UNL     1       2.129   4.520  -1.584  0.00  0.00    +0.018 C 
ATOM      4  C   UNL     1       3.374   3.681  -1.887  0.00  0.00    +0.109 C 
ATOM      5  N   UNL     1       3.451   2.582  -0.915  0.00  0.00    -0.176 NA
ATOM      6  C   UNL     1       2.287   1.701  -0.751  0.00  0.00    +0.122 C 
ENDROOT
BRANCH   1  19
ATOM      7  C   UNL     1      -8.506   0.366   0.478  0.00  0.00    +0.044 C 
ATOM      8  C   UNL     1      -7.046   0.077   0.246  0.00  0.00    -0.045 A 
ATOM      9  C   UNL     1      -6.643  -1.229   0.005  0.00  0.00    +0.005 A 
ATOM     10  C   UNL     1      -5.303  -1.495  -0.209  0.00  0.00    +0.017 A 
ATOM     11  C   UNL     1      -4.394  -0.467  -0.180  0.00  0.00    +0.041 A 
ATOM     12  C   UNL     1      -4.768   0.875   0.062  0.00  0.00    +0.083 A 
ATOM     13  C   UNL     1      -6.146   1.110   0.276  0.00  0.00    -0.021 A 
ATOM     14  C   UNL     1      -6.630   2.512   0.541  0.00  0.00    +0.046 C 
ATOM     15  N   UNL     1      -3.759   1.772   0.064  0.00  0.00    -0.224 NA
ATOM     16  C   UNL     1      -2.510   1.430  -0.153  0.00  0.00    +0.165 A 
ATOM     17  S   UNL     1      -2.635  -0.337  -0.391  0.00  0.00    -0.052 S 
ATOM     18  N   UNL     1      -1.382   2.233  -0.184  0.00  0.00    -0.264 N 
ATOM     19  C   UNL     1      -0.172   1.687  -0.421  0.00  0.00    +0.223 C 
ATOM     20  O   UNL     1      -0.072   0.493  -0.606  0.00  0.00    -0.275 OA
ATOM     21  H   UNL     1      -1.462   3.188  -0.036  0.00  0.00    +0.157 HD
ENDBRANCH   1  19
BRANCH   5  22
ATOM     22  S   UNL     1       4.825   2.340  -0.023  0.00  0.00    +0.061 S 
ATOM     23  O   UNL     1       5.501   3.589   0.029  0.00  0.00    -0.153 OA
ATOM     24  O   UNL     1       4.431   1.638   1.148  0.00  0.00    -0.153 OA
BRANCH  22  25
ATOM     25  C   UNL     1       5.858   1.247  -0.941  0.00  0.00    +0.106 A 
ATOM     26  C   UNL     1       5.752  -0.119  -0.760  0.00  0.00    +0.030 A 
ATOM     27  C   UNL     1       6.558  -0.978  -1.484  0.00  0.00    +0.022 A 
ATOM     28  C   UNL     1       7.478  -0.469  -2.383  0.00  0.00    +0.041 A 
ATOM     29  C   UNL     1       7.587   0.899  -2.560  0.00  0.00    +0.022 A 
ATOM     30  C   UNL     1       6.777   1.756  -1.839  0.00  0.00    +0.030 A 
ATOM     31 CL   UNL     1       8.496  -1.545  -3.287  0.00  0.00    -0.084 Cl
ENDBRANCH  22  25
ENDBRANCH   5  22
TORSDOF 3
