REMARK  Name = ZINC04035467
REMARK  10 active torsions:
REMARK  status: ('A' for Active; 'I' for Inactive)
REMARK    1  A    between atoms: C_1  and  C_2
REMARK    2  A    between atoms: C_2  and  C_4
REMARK    3  A    between atoms: C_2  and  N_24
REMARK    4  A    between atoms: C_4  and  C_6
REMARK    5  A    between atoms: C_4  and  N_61
REMARK    6  A    between atoms: N_13  and  C_16
REMARK    7  A    between atoms: C_19  and  O_22
REMARK    8  A    between atoms: O_22  and  C_23
REMARK    9  A    between atoms: N_24  and  S_25
REMARK   10  A    between atoms: S_25  and  C_28
REMARK                            x       y       z     vdW  Elec       q    Type
REMARK                         _______ _______ _______ _____ _____    ______ ____
ROOT
ATOM      1  C   UNL     1       0.918   5.160   0.020  0.00  0.00    -0.012 C 
ENDROOT
BRANCH   1   7
ATOM      2  C   UNL     1       2.641   6.631  -0.836  0.00  0.00    -0.059 C 
ATOM      3  C   UNL     1       3.886   6.689  -1.724  0.00  0.00    +0.086 C 
ATOM      4  N   UNL     1       3.522   6.319  -3.099  0.00  0.00    -0.333 N 
ATOM      5  C   UNL     1       2.953   4.965  -3.144  0.00  0.00    +0.086 C 
ATOM      6  C   UNL     1       1.708   4.907  -2.256  0.00  0.00    -0.059 C 
ATOM      7  N   UNL     1       2.093   5.259  -0.873  0.00  0.00    +0.388 N 
ATOM      8  H   UNL     1       2.813   4.603  -0.549  0.00  0.00    -0.081 HD
BRANCH   4   9
ATOM      9  C   UNL     1       4.622   6.430  -3.957  0.00  0.00    +0.030 A 
ATOM     10  C   UNL     1       5.036   5.333  -4.700  0.00  0.00    +0.027 A 
ATOM     11  C   UNL     1       6.118   5.445  -5.551  0.00  0.00    +0.047 A 
ATOM     12  C   UNL     1       6.799   6.649  -5.653  0.00  0.00    +0.120 A 
ATOM     13  C   UNL     1       6.389   7.744  -4.907  0.00  0.00    +0.047 A 
ATOM     14  C   UNL     1       5.303   7.636  -4.060  0.00  0.00    +0.027 A 
BRANCH  12  15
ATOM     15  O   UNL     1       7.868   6.757  -6.487  0.00  0.00    -0.495 OA
ATOM     16  C   UNL     1       8.235   5.590  -7.225  0.00  0.00    +0.277 C 
ENDBRANCH  12  15
ENDBRANCH   4   9
ENDBRANCH   1   7
BRANCH   1  17
ATOM     17  C   UNL     1       0.421   3.738   0.017  0.00  0.00    -0.022 A 
ATOM     18  C   UNL     1      -0.855   3.279   0.027  0.00  0.00    +0.009 A 
ATOM     19  C   UNL     1      -1.077   1.915   0.017  0.00  0.00    +0.008 A 
ATOM     20  C   UNL     1      -0.013   1.076   0.008  0.00  0.00    +0.045 A 
ATOM     21  S   UNL     1       1.359   2.219   0.001  0.00  0.00    -0.103 S 
ENDBRANCH   1  17
BRANCH   1  23
ATOM     22  C   UNL     1       2.534   4.704   1.870  0.00  0.00    +0.024 C 
ATOM     23  C   UNL     1       1.336   5.552   1.438  0.00  0.00    +0.065 C 
BRANCH  23  24
ATOM     24  N   UNL     1       0.218   5.323   2.357  0.00  0.00    -0.188 NA
ATOM     25  H   UNL     1      -0.380   4.572   2.216  0.00  0.00    +0.148 HD
BRANCH  24  26
ATOM     26  S   UNL     1      -0.023   6.344   3.639  0.00  0.00    +0.059 S 
ATOM     27  O   UNL     1      -1.183   5.879   4.316  0.00  0.00    -0.153 OA
ATOM     28  O   UNL     1       1.233   6.485   4.288  0.00  0.00    -0.153 OA
BRANCH  26  29
ATOM     29  C   UNL     1      -0.428   7.925   2.975  0.00  0.00    +0.105 A 
ATOM     30  C   UNL     1       0.574   8.839   2.707  0.00  0.00    +0.028 A 
ATOM     31  C   UNL     1       0.257  10.078   2.182  0.00  0.00    +0.002 A 
ATOM     32  C   UNL     1      -1.062  10.407   1.935  0.00  0.00    +0.000 A 
ATOM     33  C   UNL     1      -2.065   9.495   2.208  0.00  0.00    +0.002 A 
ATOM     34  C   UNL     1      -1.748   8.254   2.728  0.00  0.00    +0.028 A 
ENDBRANCH  26  29
ENDBRANCH  24  26
ENDBRANCH  23  24
ENDBRANCH   1  23
TORSDOF 8
