REMARK  Name = ZINC59421182
REMARK  9 active torsions:
REMARK  status: ('A' for Active; 'I' for Inactive)
REMARK    1  A    between atoms: C_1  and  C_2
REMARK    2  A    between atoms: C_2  and  C_4
REMARK    3  A    between atoms: C_2  and  N_7
REMARK    4  A    between atoms: N_7  and  C_8
REMARK    5  A    between atoms: N_7  and  C_15
REMARK    6  A    between atoms: C_8  and  C_9
REMARK    7  A    between atoms: C_15  and  C_16
REMARK    8  A    between atoms: N_20  and  C_21
REMARK    9  A    between atoms: C_24  and  C_27
REMARK                            x       y       z     vdW  Elec       q    Type
REMARK                         _______ _______ _______ _____ _____    ______ ____
ROOT
ATOM      1  C   UNL     1       0.574  -3.309  -0.382  0.00  0.00    +0.002 C 
ENDROOT
BRANCH   1   2
ATOM      2  C   UNL     1       1.413  -3.494  -1.620  0.00  0.00    +0.140 A 
ATOM      3  N   UNL     1       0.997  -3.421  -2.857  0.00  0.00    -0.115 NA
ATOM      4  N   UNL     1       1.966  -3.628  -3.674  0.00  0.00    -0.023 NA
ATOM      5  N   UNL     1       3.058  -3.846  -3.024  0.00  0.00    -0.039 NA
ATOM      6  N   UNL     1       2.737  -3.762  -1.658  0.00  0.00    -0.199 N 
BRANCH   6   7
ATOM      7  C   UNL     1       3.605  -3.923  -0.567  0.00  0.00    +0.069 A 
ATOM      8  C   UNL     1       3.584  -3.010   0.479  0.00  0.00    +0.028 A 
ATOM      9  C   UNL     1       4.440  -3.172   1.551  0.00  0.00    +0.014 A 
ATOM     10  C   UNL     1       5.317  -4.240   1.583  0.00  0.00    +0.055 A 
ATOM     11  C   UNL     1       5.339  -5.151   0.542  0.00  0.00    +0.014 A 
ATOM     12  C   UNL     1       4.482  -4.998  -0.530  0.00  0.00    +0.028 A 
BRANCH  10  13
ATOM     13  C   UNL     1       6.250  -4.413   2.754  0.00  0.00    +0.417 C 
ATOM     14  F   UNL     1       5.628  -5.194   3.734  0.00  0.00    -0.166 F 
ATOM     15  F   UNL     1       7.422  -5.046   2.326  0.00  0.00    -0.166 F 
ATOM     16  F   UNL     1       6.565  -3.159   3.288  0.00  0.00    -0.166 F 
ENDBRANCH  10  13
ENDBRANCH   6   7
ENDBRANCH   1   2
BRANCH   1  17
ATOM     17  N   UNL     1       0.441  -1.875  -0.091  0.00  0.00    +0.389 N 
ATOM     18  H   UNL     1       1.357  -1.457  -0.033  0.00  0.00    -0.080 HD
BRANCH  17  20
ATOM     19  C   UNL     1       0.610  -2.237   2.325  0.00  0.00    -0.013 C 
ATOM     20  C   UNL     1      -0.260  -1.699   1.188  0.00  0.00    -0.068 C 
BRANCH  20  21
ATOM     21  C   UNL     1      -1.585  -2.463   1.153  0.00  0.00    -0.025 C 
ATOM     22  C   UNL     1      -2.873  -1.651   1.302  0.00  0.00    +0.002 C 
ATOM     23  C   UNL     1      -2.391  -2.539   2.452  0.00  0.00    +0.002 C 
ENDBRANCH  20  21
ENDBRANCH  17  20
BRANCH  17  24
ATOM     24  C   UNL     1      -0.327  -1.228  -1.163  0.00  0.00    -0.042 C 
BRANCH  24  25
ATOM     25  C   UNL     1      -0.268   0.268  -0.989  0.00  0.00    -0.064 A 
ATOM     26  C   UNL     1      -1.294   0.929  -0.339  0.00  0.00    +0.002 A 
ATOM     27  C   UNL     1      -1.240   2.301  -0.179  0.00  0.00    +0.000 A 
ATOM     28  C   UNL     1      -0.162   3.012  -0.670  0.00  0.00    +0.000 A 
ATOM     29  C   UNL     1       0.864   2.352  -1.319  0.00  0.00    +0.000 A 
ATOM     30  C   UNL     1       0.813   0.979  -1.475  0.00  0.00    +0.002 A 
ENDBRANCH  24  25
ENDBRANCH  17  24
ENDBRANCH   1  17
TORSDOF 8
