REMARK  Name = ZINC39665408
REMARK  12 active torsions:
REMARK  status: ('A' for Active; 'I' for Inactive)
REMARK    1  A    between atoms: C_1  and  C_2
REMARK    2  A    between atoms: C_2  and  C_4
REMARK    3  A    between atoms: C_2  and  O_33
REMARK    4  A    between atoms: C_4  and  N_5
REMARK    5  A    between atoms: C_6  and  C_8
REMARK    6  A    between atoms: C_19  and  C_21
REMARK    7  A    between atoms: C_21  and  C_23
REMARK    8  A    between atoms: C_21  and  O_26
REMARK    9  A    between atoms: C_23  and  C_24
REMARK   10  A    between atoms: C_23  and  C_25
REMARK   11  A    between atoms: O_26  and  C_27
REMARK   12  A    between atoms: O_33  and  C_34
REMARK                            x       y       z     vdW  Elec       q    Type
REMARK                         _______ _______ _______ _____ _____    ______ ____
ROOT
ATOM      1  C   UNL     1      -2.301  -3.782  -0.775  0.00  0.00    +0.100 C 
ATOM      2  C   UNL     1      -1.606  -3.975  -2.142  0.00  0.00    +0.121 C 
ATOM      3  N   UNL     1      -2.294  -5.138  -2.751  0.00  0.00    -0.297 N 
ATOM      4  C   UNL     1      -3.721  -4.951  -2.392  0.00  0.00    +0.115 C 
ATOM      5  C   UNL     1      -3.689  -4.423  -0.944  0.00  0.00    -0.004 C 
ATOM      6  C   UNL     1      -4.782  -3.378  -0.741  0.00  0.00    -0.010 C 
ATOM      7  C   UNL     1      -6.153  -4.051  -0.855  0.00  0.00    -0.082 C 
ATOM      8  N   UNL     1      -6.266  -5.110   0.155  0.00  0.00    +0.379 N 
ATOM      9  C   UNL     1      -5.271  -6.157  -0.104  0.00  0.00    -0.082 C 
ATOM     10  C   UNL     1      -3.863  -5.574   0.042  0.00  0.00    -0.010 C 
ATOM     11  C   UNL     1      -1.747  -6.139  -3.468  0.00  0.00    +0.257 C 
ATOM     12  O   UNL     1      -2.449  -7.027  -3.904  0.00  0.00    -0.272 OA
ATOM     13  H   UNL     1      -6.109  -4.718   1.071  0.00  0.00    -0.086 HD
ATOM     14  H   UNL     1      -7.192  -5.511   0.118  0.00  0.00    -0.086 HD
ENDROOT
BRANCH   1  16
ATOM     15  N   UNL     1      -2.444  -1.900   0.824  0.00  0.00    -0.312 N 
ATOM     16  C   UNL     1      -2.436  -2.315  -0.458  0.00  0.00    +0.218 C 
ATOM     17  O   UNL     1      -2.537  -1.507  -1.357  0.00  0.00    -0.275 OA
ATOM     18  H   UNL     1      -2.364  -2.546   1.543  0.00  0.00    +0.149 HD
BRANCH  15  19
ATOM     19  C   UNL     1      -2.575  -0.474   1.132  0.00  0.00    +0.148 C 
BRANCH  19  21
ATOM     20  C   UNL     1      -2.694   1.213   2.971  0.00  0.00    +0.053 C 
ATOM     21  C   UNL     1      -2.557  -0.276   2.649  0.00  0.00    +0.187 C 
BRANCH  21  22
ATOM     22  O   UNL     1      -3.645  -0.992   3.236  0.00  0.00    -0.488 OA
BRANCH  22  23
ATOM     23  C   UNL     1      -3.499  -1.386   4.529  0.00  0.00    +0.121 A 
ATOM     24  C   UNL     1      -4.468  -2.178   5.128  0.00  0.00    +0.045 A 
ATOM     25  C   UNL     1      -4.317  -2.577   6.442  0.00  0.00    +0.004 A 
ATOM     26  C   UNL     1      -3.201  -2.188   7.160  0.00  0.00    +0.000 A 
ATOM     27  C   UNL     1      -2.235  -1.398   6.565  0.00  0.00    +0.004 A 
ATOM     28  C   UNL     1      -2.378  -1.002   5.250  0.00  0.00    +0.045 A 
ENDBRANCH  22  23
ENDBRANCH  21  22
ENDBRANCH  19  21
ENDBRANCH  15  19
ENDBRANCH   1  16
BRANCH  11  29
ATOM     29  C   UNL     1      -0.263  -6.155  -3.729  0.00  0.00    +0.261 C 
BRANCH  29  30
ATOM     30  C   UNL     1       0.115  -4.956  -4.601  0.00  0.00    +0.033 C 
ATOM     31  C   UNL     1       1.622  -4.973  -4.866  0.00  0.00    +0.011 C 
ATOM     32  C   UNL     1      -0.637  -5.036  -5.931  0.00  0.00    +0.011 C 
ENDBRANCH  29  30
BRANCH  29  33
ATOM     33  O   UNL     1       0.089  -7.365  -4.403  0.00  0.00    -0.479 OA
BRANCH  33  34
ATOM     34  C   UNL     1       1.256  -7.957  -4.039  0.00  0.00    +0.122 A 
ATOM     35  C   UNL     1       2.097  -7.335  -3.128  0.00  0.00    +0.045 A 
ATOM     36  C   UNL     1       3.283  -7.939  -2.758  0.00  0.00    +0.004 A 
ATOM     37  C   UNL     1       3.632  -9.164  -3.296  0.00  0.00    +0.000 A 
ATOM     38  C   UNL     1       2.797  -9.787  -4.204  0.00  0.00    +0.004 A 
ATOM     39  C   UNL     1       1.607  -9.189  -4.572  0.00  0.00    +0.045 A 
ENDBRANCH  33  34
ENDBRANCH  29  33
ENDBRANCH  11  29
TORSDOF 9
