REMARK  Name = ZINC64066687
REMARK  9 active torsions:
REMARK  status: ('A' for Active; 'I' for Inactive)
REMARK    1  A    between atoms: C_1  and  C_2
REMARK    2  A    between atoms: C_7  and  C_8
REMARK    3  A    between atoms: C_10  and  C_23
REMARK    4  A    between atoms: N_13  and  C_15
REMARK    5  A    between atoms: C_23  and  N_24
REMARK    6  A    between atoms: N_24  and  C_25
REMARK    7  A    between atoms: N_24  and  C_26
REMARK    8  A    between atoms: C_26  and  C_27
REMARK    9  A    between atoms: C_31  and  C_33
REMARK                            x       y       z     vdW  Elec       q    Type
REMARK                         _______ _______ _______ _____ _____    ______ ____
ROOT
ATOM      1  C   UNL     1       0.469   0.497   2.382  0.00  0.00    +0.109 C 
ATOM      2  C   UNL     1      -0.877   0.281   3.124  0.00  0.00    +0.045 C 
ATOM      3  C   UNL     1      -0.421   0.356   4.601  0.00  0.00    +0.131 C 
ATOM      4  N   UNL     1       1.028   0.101   4.576  0.00  0.00    -0.263 N 
ATOM      5  N   UNL     1       1.431  -0.174   3.294  0.00  0.00    -0.232 NA
ATOM      6  H   UNL     1       1.453  -1.169   3.127  0.00  0.00    +0.145 HD
ENDROOT
BRANCH   4   7
ATOM      7  C   UNL     1       1.871   0.135   5.693  0.00  0.00    +0.080 A 
ATOM      8  C   UNL     1       1.589  -0.652   6.801  0.00  0.00    +0.030 A 
ATOM      9  C   UNL     1       2.421  -0.617   7.903  0.00  0.00    +0.040 A 
ATOM     10  C   UNL     1       3.537   0.203   7.904  0.00  0.00    +0.126 A 
ATOM     11  C   UNL     1       3.821   0.990   6.801  0.00  0.00    +0.078 A 
ATOM     12  C   UNL     1       2.995   0.954   5.693  0.00  0.00    +0.148 A 
ATOM     13  F   UNL     1       3.276   1.717   4.614  0.00  0.00    -0.203 F 
ATOM     14  F   UNL     1       4.349   0.236   8.984  0.00  0.00    -0.205 F 
ENDBRANCH   4   7
BRANCH   1  21
ATOM     15  C   UNL     1       0.497   2.102  -0.021  0.00  0.00    +0.044 C 
ATOM     16  C   UNL     1       0.467   0.598  -0.119  0.00  0.00    -0.046 A 
ATOM     17  C   UNL     1       0.458  -0.013  -1.359  0.00  0.00    +0.003 A 
ATOM     18  C   UNL     1       0.430  -1.392  -1.449  0.00  0.00    +0.000 A 
ATOM     19  C   UNL     1       0.411  -2.160  -0.300  0.00  0.00    +0.000 A 
ATOM     20  C   UNL     1       0.421  -1.549   0.940  0.00  0.00    +0.005 A 
ATOM     21  C   UNL     1       0.453  -0.169   1.030  0.00  0.00    -0.026 A 
ENDBRANCH   1  21
BRANCH   2  22
ATOM     22  C   UNL     1      -1.872   1.397   2.797  0.00  0.00    +0.091 C 
BRANCH  22  23
ATOM     23  N   UNL     1      -2.233   1.329   1.374  0.00  0.00    -0.298 NA
ATOM     24  C   UNL     1      -3.193   0.246   1.126  0.00  0.00    +0.105 C 
BRANCH  23  25
ATOM     25  C   UNL     1      -2.759   2.617   0.903  0.00  0.00    +0.156 C 
BRANCH  25  26
ATOM     26  C   UNL     1      -2.886   2.589  -0.598  0.00  0.00    +0.099 A 
ATOM     27  H   UNL     1      -4.236   4.117  -1.002  0.00  0.00    +0.167 HD
ATOM     28  N   UNL     1      -2.268   1.764  -1.399  0.00  0.00    -0.349 N 
ATOM     29  C   UNL     1      -2.621   2.029  -2.665  0.00  0.00    +0.105 A 
ATOM     30  C   UNL     1      -3.491   3.057  -2.649  0.00  0.00    +0.030 A 
ATOM     31  N   UNL     1      -3.664   3.409  -1.338  0.00  0.00    -0.346 N 
ATOM     32  C   UNL     1      -4.152   3.693  -3.845  0.00  0.00    +0.065 C 
ATOM     33  H   UNL     1      -1.651   1.070  -1.121  0.00  0.00    +0.166 HD
ENDBRANCH  25  26
ENDBRANCH  23  25
ENDBRANCH  22  23
ENDBRANCH   2  22
TORSDOF 6
