REMARK  Name = ZINC66344218
REMARK  6 active torsions:
REMARK  status: ('A' for Active; 'I' for Inactive)
REMARK    1  A    between atoms: C_6  and  N_7
REMARK    2  A    between atoms: C_10  and  C_13
REMARK    3  A    between atoms: C_13  and  N_14
REMARK    4  A    between atoms: N_17  and  C_18
REMARK    5  A    between atoms: C_18  and  C_19
REMARK    6  A    between atoms: C_19  and  C_20
REMARK                            x       y       z     vdW  Elec       q    Type
REMARK                         _______ _______ _______ _____ _____    ______ ____
ROOT
ATOM      1  N   UNL     1      -4.549  -4.005  -0.911  0.00  0.00    -0.299 N 
ATOM      2  C   UNL     1      -5.034  -5.025  -1.646  0.00  0.00    +0.300 C 
ATOM      3  O   UNL     1      -4.280  -5.705  -2.315  0.00  0.00    -0.253 OA
ATOM      4  N   UNL     1      -6.355  -5.292  -1.639  0.00  0.00    -0.299 N 
ATOM      5  H   UNL     1      -5.150  -3.462  -0.377  0.00  0.00    +0.150 HD
ATOM      6  H   UNL     1      -6.957  -4.749  -1.105  0.00  0.00    +0.150 HD
ENDROOT
BRANCH   1   7
ATOM      7  C   UNL     1      -3.112  -3.715  -0.918  0.00  0.00    +0.110 C 
BRANCH   7  11
ATOM      8  N   UNL     1      -1.198  -0.721   0.010  0.00  0.00    -0.330 N 
ATOM      9  C   UNL     1      -2.550  -0.132   0.020  0.00  0.00    +0.105 C 
ATOM     10  C   UNL     1      -3.463  -1.226  -0.587  0.00  0.00    +0.025 C 
ATOM     11  C   UNL     1      -2.829  -2.518  -0.008  0.00  0.00    +0.025 C 
ATOM     12  C   UNL     1      -1.322  -2.186   0.004  0.00  0.00    +0.110 C 
BRANCH   8  18
ATOM     13  C   UNL     1      -0.017   1.385   0.010  0.00  0.00    +0.026 A 
ATOM     14  C   UNL     1       1.171   2.090   0.002  0.00  0.00    +0.040 A 
ATOM     15  C   UNL     1       2.379   1.414  -0.013  0.00  0.00    +0.124 A 
ATOM     16  C   UNL     1       2.400   0.030  -0.021  0.00  0.00    +0.040 A 
ATOM     17  C   UNL     1       1.215  -0.680  -0.014  0.00  0.00    +0.026 A 
ATOM     18  C   UNL     1       0.002  -0.004   0.002  0.00  0.00    +0.030 A 
ATOM     19  F   UNL     1       3.539   2.107  -0.020  0.00  0.00    -0.205 F 
ENDBRANCH   8  18
ENDBRANCH   7  11
ENDBRANCH   1   7
BRANCH   4  20
ATOM     20  C   UNL     1      -6.883  -6.400  -2.438  0.00  0.00    +0.112 C 
BRANCH  20  21
ATOM     21  C   UNL     1      -8.399  -6.485  -2.253  0.00  0.00    +0.073 C 
BRANCH  21  22
ATOM     22  C   UNL     1      -8.942  -7.626  -3.075  0.00  0.00    +0.035 A 
ATOM     23  C   UNL     1      -9.274  -7.573  -4.381  0.00  0.00    +0.108 A 
ATOM     24  N   UNL     1      -9.718  -8.816  -4.722  0.00  0.00    -0.336 N 
ATOM     25  C   UNL     1      -9.645  -9.591  -3.614  0.00  0.00    +0.087 A 
ATOM     26  N   UNL     1      -9.174  -8.874  -2.636  0.00  0.00    -0.347 N 
ATOM     27  C   UNL     1     -10.050 -11.046  -3.573  0.00  0.00    +0.072 C 
ATOM     28  C   UNL     1     -10.895 -11.344  -4.818  0.00  0.00    +0.009 C 
ATOM     29  C   UNL     1     -10.176 -10.803  -6.057  0.00  0.00    +0.022 C 
ATOM     30  C   UNL     1     -10.193  -9.271  -6.031  0.00  0.00    +0.123 C 
ATOM     31  H   UNL     1      -9.018  -9.190  -1.732  0.00  0.00    +0.167 HD
ENDBRANCH  21  22
ENDBRANCH  20  21
ENDBRANCH   4  20
TORSDOF 6
