REMARK  Name = ZINC13064210
REMARK  14 active torsions:
REMARK  status: ('A' for Active; 'I' for Inactive)
REMARK    1  A    between atoms: C_1  and  C_2
REMARK    2  A    between atoms: C_2  and  C_3
REMARK    3  A    between atoms: C_3  and  C_5
REMARK    4  A    between atoms: C_3  and  N_67
REMARK    5  A    between atoms: N_9  and  C_10
REMARK    6  A    between atoms: C_10  and  C_11
REMARK    7  A    between atoms: C_11  and  O_12
REMARK    8  A    between atoms: O_12  and  C_13
REMARK    9  A    between atoms: C_14  and  C_15
REMARK   10  A    between atoms: C_14  and  N_67
REMARK   11  A    between atoms: C_24  and  C_25
REMARK   12  A    between atoms: C_24  and  N_67
REMARK   13  A    between atoms: C_29  and  O_37
REMARK   14  A    between atoms: O_37  and  C_38
REMARK                            x       y       z     vdW  Elec       q    Type
REMARK                         _______ _______ _______ _____ _____    ______ ____
ROOT
ATOM      1  N   UNL     1      -0.554   1.328   1.048  0.00  0.00    +0.392 N 
ATOM      2  H   UNL     1      -1.459   0.861   1.179  0.00  0.00    -0.080 HD
ENDROOT
BRANCH   1   3
ATOM      3  C   UNL     1       0.076   0.819  -0.188  0.00  0.00    +0.003 C 
BRANCH   3   4
ATOM      4  C   UNL     1       1.554   1.117  -0.188  0.00  0.00    +0.138 A 
ATOM      5  N   UNL     1       2.419   0.785   0.739  0.00  0.00    -0.115 NA
ATOM      6  N   UNL     1       3.577   1.215   0.374  0.00  0.00    -0.023 NA
ATOM      7  N   UNL     1       3.472   1.819  -0.758  0.00  0.00    -0.044 NA
ATOM      8  N   UNL     1       2.240   1.780  -1.137  0.00  0.00    -0.229 N 
BRANCH   8   9
ATOM      9  C   UNL     1       1.690   2.350  -2.369  0.00  0.00    +0.175 C 
BRANCH   9  10
ATOM     10  C   UNL     1       1.247   3.792  -2.111  0.00  0.00    +0.183 C 
BRANCH  10  11
ATOM     11  O   UNL     1       0.711   4.348  -3.313  0.00  0.00    -0.381 OA
ATOM     12  C   UNL     1       0.266   5.700  -3.180  0.00  0.00    +0.194 C 
ENDBRANCH  10  11
ENDBRANCH   9  10
ENDBRANCH   8   9
ENDBRANCH   3   4
BRANCH   3  14
ATOM     13  C   UNL     1      -1.637  -0.993  -0.348  0.00  0.00    +0.002 C 
ATOM     14  C   UNL     1      -0.139  -0.695  -0.259  0.00  0.00    -0.011 C 
ENDBRANCH   3  14
ENDBRANCH   1   3
BRANCH   1  15
ATOM     15  C   UNL     1      -0.777   2.785   0.938  0.00  0.00    -0.041 C 
BRANCH  15  16
ATOM     16  C   UNL     1      -2.012   3.022   0.107  0.00  0.00    -0.060 A 
ATOM     17  C   UNL     1      -1.919   3.053  -1.272  0.00  0.00    +0.005 A 
ATOM     18  C   UNL     1      -3.050   3.264  -2.039  0.00  0.00    +0.050 A 
ATOM     19  C   UNL     1      -4.277   3.458  -1.426  0.00  0.00    +0.166 A 
ATOM     20  C   UNL     1      -4.369   3.432  -0.037  0.00  0.00    +0.166 A 
ATOM     21  C   UNL     1      -3.233   3.213   0.725  0.00  0.00    +0.051 A 
ATOM     22  O   UNL     1      -5.670   3.645   0.318  0.00  0.00    -0.453 OA
ATOM     23  C   UNL     1      -6.300   4.207  -0.849  0.00  0.00    +0.466 C 
ATOM     24  O   UNL     1      -5.520   3.687  -1.942  0.00  0.00    -0.453 OA
ENDBRANCH  15  16
ENDBRANCH   1  15
BRANCH   1  25
ATOM     25  C   UNL     1       0.309   1.037   2.213  0.00  0.00    -0.036 C 
BRANCH  25  26
ATOM     26  C   UNL     1      -0.505   1.198   3.470  0.00  0.00    +0.001 A 
ATOM     27  C   UNL     1      -1.109   0.120   4.027  0.00  0.00    +0.017 A 
ATOM     28  C   UNL     1      -1.893   0.310   5.249  0.00  0.00    +0.002 A 
ATOM     29  C   UNL     1      -2.538  -0.765   5.868  0.00  0.00    +0.055 A 
ATOM     30  C   UNL     1      -3.269  -0.551   7.020  0.00  0.00    +0.121 A 
ATOM     31  C   UNL     1      -3.364   0.728   7.564  0.00  0.00    +0.047 A 
ATOM     32  C   UNL     1      -2.733   1.795   6.964  0.00  0.00    +0.030 A 
ATOM     33  C   UNL     1      -1.992   1.601   5.803  0.00  0.00    +0.049 A 
ATOM     34  N   UNL     1      -1.352   2.657   5.186  0.00  0.00    -0.322 N 
ATOM     35  H   UNL     1      -1.421   3.546   5.569  0.00  0.00    +0.169 HD
ATOM     36  C   UNL     1      -0.630   2.471   4.068  0.00  0.00    +0.251 A 
ATOM     37  O   UNL     1      -0.074   3.426   3.554  0.00  0.00    -0.268 OA
BRANCH  30  38
ATOM     38  O   UNL     1      -3.898  -1.593   7.625  0.00  0.00    -0.495 OA
ATOM     39  C   UNL     1      -4.637  -1.302   8.813  0.00  0.00    +0.277 C 
ENDBRANCH  30  38
ENDBRANCH  25  26
ENDBRANCH   1  25
TORSDOF 11
