REMARK  Name = ZINC20645611
REMARK  13 active torsions:
REMARK  status: ('A' for Active; 'I' for Inactive)
REMARK    1  A    between atoms: C_1  and  C_2
REMARK    2  A    between atoms: C_2  and  N_3
REMARK    3  A    between atoms: N_3  and  C_4
REMARK    4  A    between atoms: N_3  and  C_6
REMARK    5  A    between atoms: C_4  and  C_5
REMARK    6  A    between atoms: C_6  and  C_7
REMARK    7  A    between atoms: C_7  and  N_8
REMARK    8  A    between atoms: C_14  and  C_20
REMARK    9  A    between atoms: N_22  and  C_23
REMARK   10  A    between atoms: C_23  and  C_24
REMARK   11  A    between atoms: C_24  and  C_25
REMARK   12  A    between atoms: C_28  and  S_31
REMARK   13  A    between atoms: S_31  and  N_34
REMARK                            x       y       z     vdW  Elec       q    Type
REMARK                         _______ _______ _______ _____ _____    ______ ____
ROOT
ATOM      1  N   UNL     1      -0.803  -3.594   2.129  0.00  0.00    -0.288 N 
ATOM      2  C   UNL     1      -1.862  -4.094   2.802  0.00  0.00    +0.262 A 
ATOM      3  O   UNL     1      -2.873  -3.296   3.186  0.00  0.00    -0.267 OA
ATOM      4  C   UNL     1      -1.879  -5.475   3.092  0.00  0.00    +0.065 A 
ATOM      5  C   UNL     1      -2.945  -6.066   3.786  0.00  0.00    +0.016 A 
ATOM      6  C   UNL     1      -2.926  -7.402   4.046  0.00  0.00    +0.014 A 
ATOM      7  C   UNL     1      -1.851  -8.201   3.628  0.00  0.00    +0.039 A 
ATOM      8  C   UNL     1      -0.785  -7.645   2.940  0.00  0.00    +0.041 A 
ATOM      9  C   UNL     1      -0.785  -6.271   2.662  0.00  0.00    +0.080 A 
ATOM     10  N   UNL     1       0.225  -5.690   1.999  0.00  0.00    -0.222 NA
ATOM     11  C   UNL     1       0.206  -4.391   1.740  0.00  0.00    +0.183 A 
ATOM     12  S   UNL     1       1.518  -3.703   0.883  0.00  0.00    -0.011 S 
ENDROOT
BRANCH   7  13
ATOM     13  C   UNL     1      -1.856  -9.652   3.925  0.00  0.00    +0.244 C 
ATOM     14  O   UNL     1      -0.927 -10.349   3.565  0.00  0.00    -0.270 OA
ATOM     15  N   UNL     1      -2.889 -10.200   4.594  0.00  0.00    -0.311 N 
ATOM     16  H   UNL     1      -3.630  -9.643   4.881  0.00  0.00    +0.149 HD
BRANCH  15  17
ATOM     17  C   UNL     1      -2.894 -11.635   4.888  0.00  0.00    +0.109 C 
BRANCH  17  18
ATOM     18  C   UNL     1      -4.171 -11.995   5.650  0.00  0.00    +0.054 C 
BRANCH  18  19
ATOM     19  C   UNL     1      -4.176 -13.472   5.952  0.00  0.00    -0.046 A 
ATOM     20  C   UNL     1      -4.733 -14.360   5.051  0.00  0.00    +0.005 A 
ATOM     21  C   UNL     1      -4.738 -15.714   5.329  0.00  0.00    +0.029 A 
ATOM     22  C   UNL     1      -4.185 -16.180   6.507  0.00  0.00    +0.105 A 
ATOM     23  C   UNL     1      -3.627 -15.292   7.407  0.00  0.00    +0.029 A 
ATOM     24  C   UNL     1      -3.619 -13.938   7.128  0.00  0.00    +0.005 A 
BRANCH  22  25
ATOM     25  S   UNL     1      -4.192 -17.906   6.860  0.00  0.00    +0.056 S 
ATOM     26  O   UNL     1      -4.103 -18.032   8.273  0.00  0.00    -0.153 OA
ATOM     27  O   UNL     1      -5.259 -18.470   6.111  0.00  0.00    -0.153 OA
BRANCH  25  28
ATOM     28  N   UNL     1      -2.792 -18.539   6.240  0.00  0.00    -0.204 NA
ATOM     29  H   UNL     1      -2.159 -17.962   5.785  0.00  0.00    +0.144 HD
ATOM     30  H   UNL     1      -2.606 -19.486   6.333  0.00  0.00    +0.144 HD
ENDBRANCH  25  28
ENDBRANCH  22  25
ENDBRANCH  18  19
ENDBRANCH  17  18
ENDBRANCH  15  17
ENDBRANCH   7  13
BRANCH   1  31
ATOM     31  C   UNL     1      -0.756  -2.164   1.814  0.00  0.00    +0.109 C 
BRANCH  31  32
ATOM     32  C   UNL     1      -1.421  -1.919   0.458  0.00  0.00    -0.057 C 
BRANCH  32  33
ATOM     33  N   UNL     1      -1.374  -0.485   0.142  0.00  0.00    +0.380 N 
ATOM     34  H   UNL     1      -1.792   0.039   0.895  0.00  0.00    -0.082 HD
BRANCH  33  36
ATOM     35  C   UNL     1       0.082   1.451  -0.216  0.00  0.00    -0.017 C 
ATOM     36  C   UNL     1       0.024  -0.066  -0.029  0.00  0.00    -0.082 C 
ENDBRANCH  33  36
BRANCH  33  37
ATOM     37  C   UNL     1      -2.116  -0.233  -1.101  0.00  0.00    -0.082 C 
ATOM     38  C   UNL     1      -3.600  -0.533  -0.879  0.00  0.00    -0.017 C 
ENDBRANCH  33  37
ENDBRANCH  32  33
ENDBRANCH  31  32
ENDBRANCH   1  31
TORSDOF 11
