REMARK  Name = ZINC38785486
REMARK  7 active torsions:
REMARK  status: ('A' for Active; 'I' for Inactive)
REMARK    1  A    between atoms: C_1  and  C_2
REMARK    2  A    between atoms: C_5  and  S_8
REMARK    3  A    between atoms: S_8  and  N_11
REMARK    4  A    between atoms: C_12  and  C_14
REMARK    5  A    between atoms: C_14  and  S_15
REMARK    6  A    between atoms: S_15  and  C_16
REMARK    7  A    between atoms: C_21  and  C_26
REMARK                            x       y       z     vdW  Elec       q    Type
REMARK                         _______ _______ _______ _____ _____    ______ ____
ROOT
ATOM      1  C   UNL     1       6.097  -5.870  -0.064  0.00  0.00    +0.182 C 
ATOM      2  N   UNL     1       6.248  -7.183  -0.077  0.00  0.00    -0.151 NA
ATOM      3  C   UNL     1       7.446  -7.768  -0.087  0.00  0.00    +0.272 C 
ATOM      4  O   UNL     1       7.550  -8.985  -0.100  0.00  0.00    -0.268 OA
ATOM      5  C   UNL     1       8.656  -6.894  -0.083  0.00  0.00    +0.075 C 
ATOM      6  C   UNL     1       9.974  -7.268  -0.093  0.00  0.00    -0.015 C 
ATOM      7  C   UNL     1      11.006  -6.163  -0.087  0.00  0.00    +0.112 C 
ATOM      8  S   UNL     1       9.951  -4.659  -0.068  0.00  0.00    -0.100 S 
ATOM      9  C   UNL     1       8.362  -5.450  -0.068  0.00  0.00    +0.112 C 
ATOM     10  N   UNL     1       7.124  -5.021  -0.065  0.00  0.00    -0.217 NA
ENDROOT
BRANCH   6  11
ATOM     11  C   UNL     1      10.366  -8.679  -0.108  0.00  0.00    -0.020 A 
ATOM     12  C   UNL     1      10.062  -9.507   0.982  0.00  0.00    +0.008 A 
ATOM     13  C   UNL     1      10.435 -10.833   0.959  0.00  0.00    +0.001 A 
ATOM     14  C   UNL     1      11.108 -11.349  -0.136  0.00  0.00    +0.000 A 
ATOM     15  C   UNL     1      11.413 -10.538  -1.217  0.00  0.00    +0.001 A 
ATOM     16  C   UNL     1      11.044  -9.211  -1.214  0.00  0.00    +0.008 A 
ENDBRANCH   6  11
BRANCH   1  17
ATOM     17  S   UNL     1       4.463  -5.212  -0.051  0.00  0.00    -0.079 S 
BRANCH  17  18
ATOM     18  C   UNL     1       3.398  -6.681  -0.053  0.00  0.00    +0.179 C 
BRANCH  18  20
ATOM     19  N   UNL     1       1.651  -4.999  -0.034  0.00  0.00    -0.090 NA
ATOM     20  C   UNL     1       1.953  -6.254  -0.043  0.00  0.00    +0.275 C 
ATOM     21  O   UNL     1       0.975  -7.183  -0.042  0.00  0.00    -0.269 OA
BRANCH  19  22
ATOM     22  S   UNL     1       0.063  -4.530  -0.023  0.00  0.00    +0.102 S 
ATOM     23  O   UNL     1      -0.476  -4.950   1.223  0.00  0.00    -0.146 OA
ATOM     24  O   UNL     1      -0.490  -4.937  -1.267  0.00  0.00    -0.146 OA
BRANCH  22  29
ATOM     25  C   UNL     1      -0.018   1.503   0.010  0.00  0.00    +0.044 C 
ATOM     26  C   UNL     1       0.002  -0.004   0.002  0.00  0.00    -0.050 A 
ATOM     27  C   UNL     1       0.006  -0.689  -1.199  0.00  0.00    +0.005 A 
ATOM     28  C   UNL     1       0.025  -2.071  -1.206  0.00  0.00    +0.029 A 
ATOM     29  C   UNL     1       0.040  -2.768  -0.013  0.00  0.00    +0.113 A 
ATOM     30  C   UNL     1       0.037  -2.084   1.188  0.00  0.00    +0.029 A 
ATOM     31  C   UNL     1       0.023  -0.702   1.195  0.00  0.00    +0.005 A 
ENDBRANCH  22  29
ENDBRANCH  19  22
ENDBRANCH  18  20
ENDBRANCH  17  18
ENDBRANCH   1  17
TORSDOF 6
