REMARK  Name = ZINC09712562
REMARK  9 active torsions:
REMARK  status: ('A' for Active; 'I' for Inactive)
REMARK    1  A    between atoms: C_1  and  C_2
REMARK    2  A    between atoms: C_3  and  C_14
REMARK    3  A    between atoms: C_4  and  C_13
REMARK    4  A    between atoms: N_5  and  C_7
REMARK    5  A    between atoms: C_14  and  N_58
REMARK    6  A    between atoms: C_15  and  N_58
REMARK    7  A    between atoms: C_16  and  C_17
REMARK    8  A    between atoms: C_16  and  N_58
REMARK    9  A    between atoms: C_23  and  C_28
REMARK                            x       y       z     vdW  Elec       q    Type
REMARK                         _______ _______ _______ _____ _____    ______ ____
ROOT
ATOM      1  C   UNL     1      -0.564   1.321  -0.177  0.00  0.00    -0.003 C 
ENDROOT
BRANCH   1   2
ATOM      2  C   UNL     1      -1.487   1.760  -1.285  0.00  0.00    +0.094 A 
ATOM      3  N   UNL     1      -1.151   1.503  -2.575  0.00  0.00    -0.312 N 
ATOM      4  H   UNL     1      -0.320   1.040  -2.767  0.00  0.00    +0.170 HD
ATOM      5  C   UNL     1      -1.946   1.879  -3.593  0.00  0.00    +0.260 A 
ATOM      6  O   UNL     1      -1.630   1.641  -4.746  0.00  0.00    -0.267 OA
ATOM      7  C   UNL     1      -3.170   2.562  -3.301  0.00  0.00    +0.080 A 
ATOM      8  C   UNL     1      -4.188   3.064  -4.217  0.00  0.00    +0.004 A 
ATOM      9  C   UNL     1      -5.277   3.685  -3.704  0.00  0.00    +0.056 A 
ATOM     10  S   UNL     1      -4.993   3.630  -1.945  0.00  0.00    -0.076 S 
ATOM     11  C   UNL     1      -3.434   2.782  -1.940  0.00  0.00    +0.116 A 
ATOM     12  N   UNL     1      -2.599   2.376  -0.987  0.00  0.00    -0.229 NA
BRANCH   8  13
ATOM     13  C   UNL     1      -4.034   2.897  -5.682  0.00  0.00    -0.017 A 
ATOM     14  C   UNL     1      -2.846   3.273  -6.308  0.00  0.00    +0.008 A 
ATOM     15  C   UNL     1      -2.706   3.112  -7.671  0.00  0.00    +0.001 A 
ATOM     16  C   UNL     1      -3.745   2.588  -8.418  0.00  0.00    +0.000 A 
ATOM     17  C   UNL     1      -4.929   2.218  -7.804  0.00  0.00    +0.001 A 
ATOM     18  C   UNL     1      -5.078   2.370  -6.440  0.00  0.00    +0.008 A 
ENDBRANCH   8  13
ENDBRANCH   1   2
BRANCH   1  20
ATOM     19  C   UNL     1      -1.182   3.167   1.261  0.00  0.00    -0.095 C 
ATOM     20  N   UNL     1      -1.164   1.696   1.120  0.00  0.00    +0.385 N 
ATOM     21  H   UNL     1      -2.128   1.346   1.156  0.00  0.00    -0.081 HD
BRANCH  20  22
ATOM     22  C   UNL     1      -0.393   1.092   2.227  0.00  0.00    -0.039 C 
BRANCH  22  25
ATOM     23  C   UNL     1      -0.052   3.549   4.199  0.00  0.00    +0.068 C 
ATOM     24  C   UNL     1      -0.995   2.389   4.387  0.00  0.00    +0.062 A 
ATOM     25  C   UNL     1      -1.144   1.304   3.516  0.00  0.00    -0.020 A 
ATOM     26  C   UNL     1      -2.079   0.476   4.037  0.00  0.00    +0.043 A 
ATOM     27  N   UNL     1      -2.510   1.022   5.197  0.00  0.00    -0.237 N 
ATOM     28  N   UNL     1      -1.817   2.223   5.392  0.00  0.00    -0.171 NA
ATOM     29  C   UNL     1      -2.554  -0.820   3.434  0.00  0.00    +0.066 C 
BRANCH  27  30
ATOM     30  C   UNL     1      -3.481   0.481   6.053  0.00  0.00    +0.066 A 
ATOM     31  C   UNL     1      -4.436   1.306   6.631  0.00  0.00    +0.028 A 
ATOM     32  C   UNL     1      -5.394   0.770   7.469  0.00  0.00    +0.002 A 
ATOM     33  C   UNL     1      -5.395  -0.586   7.741  0.00  0.00    +0.000 A 
ATOM     34  C   UNL     1      -4.442  -1.409   7.171  0.00  0.00    +0.002 A 
ATOM     35  C   UNL     1      -3.485  -0.880   6.328  0.00  0.00    +0.028 A 
ENDBRANCH  27  30
ENDBRANCH  22  25
ENDBRANCH  20  22
ENDBRANCH   1  20
TORSDOF 6
