REMARK  Name = ZINC04314986
REMARK  4 active torsions:
REMARK  status: ('A' for Active; 'I' for Inactive)
REMARK    1  A    between atoms: C_1  and  C_2
REMARK    2  A    between atoms: C_7  and  C_8
REMARK    3  A    between atoms: C_8  and  N_9
REMARK    4  A    between atoms: N_19  and  C_22
REMARK                            x       y       z     vdW  Elec       q    Type
REMARK                         _______ _______ _______ _____ _____    ______ ____
ROOT
ATOM      1  N   UNL     1      -0.229   5.561   0.032  0.00  0.00    -0.248 N 
ATOM      2  C   UNL     1      -0.153   4.177   0.048  0.00  0.00    +0.065 A 
ATOM      3  C   UNL     1       1.072   3.520   0.056  0.00  0.00    +0.025 A 
ATOM      4  C   UNL     1       1.112   2.140   0.072  0.00  0.00    +0.002 A 
ATOM      5  C   UNL     1      -0.053   1.395   0.083  0.00  0.00    +0.002 A 
ATOM      6  C   UNL     1      -1.282   2.040   0.070  0.00  0.00    +0.031 A 
ATOM      7  C   UNL     1      -1.317   3.405   0.058  0.00  0.00    +0.131 A 
ATOM      8  S   UNL     1      -2.833   4.327   0.049  0.00  0.00    +0.084 S 
ATOM      9  O   UNL     1      -3.461   4.048   1.292  0.00  0.00    -0.149 OA
ATOM     10  O   UNL     1      -3.461   4.017  -1.188  0.00  0.00    -0.149 OA
ATOM     11  N   UNL     1      -2.581   5.988   0.029  0.00  0.00    -0.123 N 
ATOM     12  C   UNL     1      -1.281   6.365   0.023  0.00  0.00    +0.333 C 
ATOM     13  O   UNL     1      -1.057   7.560   0.008  0.00  0.00    -0.250 OA
ENDROOT
BRANCH  11  14
ATOM     14  C   UNL     1      -3.633   6.910   0.018  0.00  0.00    +0.061 A 
ATOM     15  C   UNL     1      -4.875   6.554   0.526  0.00  0.00    +0.025 A 
ATOM     16  C   UNL     1      -5.911   7.468   0.519  0.00  0.00    +0.002 A 
ATOM     17  C   UNL     1      -5.714   8.733  -0.004  0.00  0.00    +0.000 A 
ATOM     18  C   UNL     1      -4.480   9.089  -0.515  0.00  0.00    +0.002 A 
ATOM     19  C   UNL     1      -3.439   8.181  -0.506  0.00  0.00    +0.025 A 
ENDBRANCH  11  14
BRANCH   1  20
ATOM     20  C   UNL     1       1.066   6.247   0.023  0.00  0.00    +0.150 C 
BRANCH  20  27
ATOM     21  C   UNL     1       3.683   7.367   0.518  0.00  0.00    +0.044 C 
ATOM     22  C   UNL     1       2.822   6.923   1.673  0.00  0.00    -0.046 A 
ATOM     23  C   UNL     1       3.283   7.056   2.970  0.00  0.00    +0.003 A 
ATOM     24  C   UNL     1       2.495   6.644   4.029  0.00  0.00    +0.000 A 
ATOM     25  C   UNL     1       1.245   6.104   3.791  0.00  0.00    +0.000 A 
ATOM     26  C   UNL     1       0.783   5.975   2.495  0.00  0.00    +0.005 A 
ATOM     27  C   UNL     1       1.570   6.387   1.436  0.00  0.00    -0.027 A 
ENDBRANCH  20  27
ENDBRANCH   1  20
TORSDOF 3
