REMARK  Name = ZINC59271527
REMARK  12 active torsions:
REMARK  status: ('A' for Active; 'I' for Inactive)
REMARK    1  A    between atoms: C_1  and  C_2
REMARK    2  A    between atoms: C_5  and  C_32
REMARK    3  A    between atoms: C_7  and  O_8
REMARK    4  A    between atoms: O_8  and  C_9
REMARK    5  A    between atoms: C_9  and  C_11
REMARK    6  A    between atoms: C_9  and  C_12
REMARK    7  A    between atoms: N_14  and  N_15
REMARK    8  A    between atoms: C_16  and  C_18
REMARK    9  A    between atoms: C_22  and  S_24
REMARK   10  A    between atoms: S_24  and  N_27
REMARK   11  A    between atoms: C_32  and  C_33
REMARK   12  A    between atoms: C_32  and  C_34
REMARK                            x       y       z     vdW  Elec       q    Type
REMARK                         _______ _______ _______ _____ _____    ______ ____
ROOT
ATOM      1  N   UNL     1       1.236   0.066   6.996  0.00  0.00    -0.230 N 
ATOM      2  C   UNL     1       1.356  -0.519   8.204  0.00  0.00    +0.260 C 
ATOM      3  O   UNL     1       0.972  -1.661   8.368  0.00  0.00    -0.269 OA
ATOM      4  H   UNL     1       1.543   0.977   6.866  0.00  0.00    +0.173 HD
ENDROOT
BRANCH   2   5
ATOM      5  C   UNL     1       1.956   0.227   9.331  0.00  0.00    +0.040 A 
ATOM      6  C   UNL     1       2.393   1.540   9.148  0.00  0.00    +0.013 A 
ATOM      7  C   UNL     1       2.952   2.231  10.204  0.00  0.00    +0.003 A 
ATOM      8  C   UNL     1       3.078   1.625  11.441  0.00  0.00    +0.028 A 
ATOM      9  C   UNL     1       2.647   0.324  11.629  0.00  0.00    +0.106 A 
ATOM     10  C   UNL     1       2.082  -0.376  10.583  0.00  0.00    +0.041 A 
BRANCH   9  11
ATOM     11  S   UNL     1       2.815  -0.438  13.209  0.00  0.00    +0.061 S 
ATOM     12  O   UNL     1       2.836  -1.841  12.983  0.00  0.00    -0.153 OA
ATOM     13  O   UNL     1       3.868   0.242  13.878  0.00  0.00    -0.153 OA
BRANCH  11  14
ATOM     14  N   UNL     1       1.429  -0.117  14.057  0.00  0.00    -0.177 NA
ATOM     15  C   UNL     1       1.204   1.052  14.920  0.00  0.00    +0.109 C 
ATOM     16  C   UNL     1      -0.212   0.915  15.518  0.00  0.00    +0.018 C 
ATOM     17  C   UNL     1      -0.491  -0.607  15.404  0.00  0.00    +0.018 C 
ATOM     18  C   UNL     1       0.214  -0.951  14.066  0.00  0.00    +0.109 C 
ENDBRANCH  11  14
ENDBRANCH   9  11
ENDBRANCH   2   5
BRANCH   1  21
ATOM     19  C   UNL     1       0.548  -0.056   4.721  0.00  0.00    +0.270 C 
ATOM     20  O   UNL     1       0.931   1.083   4.558  0.00  0.00    -0.270 OA
ATOM     21  N   UNL     1       0.668  -0.641   5.929  0.00  0.00    -0.231 N 
ATOM     22  H   UNL     1       0.361  -1.552   6.059  0.00  0.00    +0.173 HD
BRANCH  19  23
ATOM     23  C   UNL     1      -0.064  -0.817   3.572  0.00  0.00    +0.257 C 
ATOM     24  C   UNL     1      -1.533  -1.111   3.880  0.00  0.00    +0.062 C 
BRANCH  23  25
ATOM     25  O   UNL     1       0.025  -0.033   2.381  0.00  0.00    -0.480 OA
BRANCH  25  32
ATOM     26  C   UNL     1       0.428   1.474   0.026  0.00  0.00    +0.047 C 
ATOM     27  C   UNL     1       0.216  -0.018   0.009  0.00  0.00    -0.009 A 
ATOM     28  C   UNL     1       0.219  -0.704  -1.190  0.00  0.00    +0.007 A 
ATOM     29  C   UNL     1       0.024  -2.072  -1.206  0.00  0.00    +0.004 A 
ATOM     30  C   UNL     1      -0.174  -2.758  -0.021  0.00  0.00    -0.041 A 
ATOM     31  C   UNL     1      -0.178  -2.077   1.180  0.00  0.00    +0.049 A 
ATOM     32  C   UNL     1       0.023  -0.705   1.199  0.00  0.00    +0.125 A 
BRANCH  30  33
ATOM     33  C   UNL     1      -0.387  -4.250  -0.042  0.00  0.00    +0.013 C 
ATOM     34  C   UNL     1      -1.630  -4.577  -0.872  0.00  0.00    +0.012 C 
ATOM     35  C   UNL     1       0.834  -4.931  -0.664  0.00  0.00    +0.012 C 
ENDBRANCH  30  33
ENDBRANCH  25  32
ENDBRANCH  23  25
ENDBRANCH  19  23
ENDBRANCH   1  21
TORSDOF 8
