REMARK  Name = ZINC22465060
REMARK  7 active torsions:
REMARK  status: ('A' for Active; 'I' for Inactive)
REMARK    1  A    between atoms: C_1  and  C_2
REMARK    2  A    between atoms: C_6  and  N_9
REMARK    3  A    between atoms: C_7  and  C_8
REMARK    4  A    between atoms: N_9  and  C_10
REMARK    5  A    between atoms: C_10  and  C_12
REMARK    6  A    between atoms: C_10  and  C_13
REMARK    7  A    between atoms: N_15  and  C_16
REMARK                            x       y       z     vdW  Elec       q    Type
REMARK                         _______ _______ _______ _____ _____    ______ ____
ROOT
ATOM      1  C   UNL     1      -2.112   5.752  -0.958  0.00  0.00    +0.233 C 
ATOM      2  O   UNL     1      -2.637   5.143  -1.866  0.00  0.00    -0.274 OA
ATOM      3  N   UNL     1      -1.510   5.081   0.044  0.00  0.00    -0.308 N 
ATOM      4  H   UNL     1      -1.033   5.633   0.867  0.00  0.00    +0.149 HD
ENDROOT
BRANCH   3   5
ATOM      5  C   UNL     1      -1.490   3.616   0.036  0.00  0.00    +0.035 C 
ATOM      6  C   UNL     1      -0.773   3.123  -1.223  0.00  0.00    +0.029 C 
ATOM      7  C   UNL     1      -0.753   1.593  -1.232  0.00  0.00    -0.008 C 
ATOM      8  C   UNL     1      -0.013   1.086   0.008  0.00  0.00    +0.007 C 
ATOM      9  C   UNL     1      -0.729   1.579   1.267  0.00  0.00    -0.008 C 
ATOM     10  C   UNL     1      -0.750   3.109   1.275  0.00  0.00    +0.029 C 
ATOM     11  C   UNL     1      -2.164   1.050   1.278  0.00  0.00    +0.007 C 
ATOM     12  C   UNL     1      -2.904   1.556   0.038  0.00  0.00    -0.008 C 
ATOM     13  C   UNL     1      -2.188   1.063  -1.221  0.00  0.00    +0.007 C 
ATOM     14  C   UNL     1      -2.925   3.086   0.047  0.00  0.00    +0.029 C 
ENDBRANCH   3   5
BRANCH   1  15
ATOM     15  C   UNL     1      -2.132   7.259  -0.950  0.00  0.00    +0.154 C 
ATOM     16  C   UNL     1      -2.848   7.752   0.309  0.00  0.00    +0.038 C 
BRANCH  15  17
ATOM     17  N   UNL     1      -2.841   7.744  -2.136  0.00  0.00    -0.333 N 
ATOM     18  H   UNL     1      -3.589   7.106  -2.630  0.00  0.00    +0.147 HD
BRANCH  17  24
ATOM     19  C   UNL     1      -3.692  11.240  -5.484  0.00  0.00    +0.044 C 
ATOM     20  C   UNL     1      -2.965  10.738  -4.263  0.00  0.00    -0.046 A 
ATOM     21  C   UNL     1      -2.024  11.539  -3.642  0.00  0.00    +0.004 A 
ATOM     22  C   UNL     1      -1.354  11.083  -2.522  0.00  0.00    +0.002 A 
ATOM     23  C   UNL     1      -1.627   9.826  -2.017  0.00  0.00    +0.023 A 
ATOM     24  C   UNL     1      -2.567   9.017  -2.642  0.00  0.00    +0.031 A 
ATOM     25  C   UNL     1      -3.238   9.479  -3.767  0.00  0.00    -0.027 A 
ATOM     26  C   UNL     1      -4.263   8.607  -4.445  0.00  0.00    +0.046 C 
ENDBRANCH  17  24
ENDBRANCH  15  17
ENDBRANCH   1  15
TORSDOF 4
