REMARK  Name = ZINC14271632
REMARK  10 active torsions:
REMARK  status: ('A' for Active; 'I' for Inactive)
REMARK    1  A    between atoms: C_1  and  C_2
REMARK    2  A    between atoms: C_3  and  C_11
REMARK    3  A    between atoms: C_7  and  N_8
REMARK    4  A    between atoms: N_13  and  C_14
REMARK    5  A    between atoms: C_14  and  N_16
REMARK    6  A    between atoms: N_16  and  C_17
REMARK    7  A    between atoms: C_20  and  N_23
REMARK    8  A    between atoms: C_29  and  C_31
REMARK    9  A    between atoms: C_31  and  C_32
REMARK   10  A    between atoms: C_31  and  C_33
REMARK                            x       y       z     vdW  Elec       q    Type
REMARK                         _______ _______ _______ _____ _____    ______ ____
ROOT
ATOM      1  N   UNL     1      -4.933  -0.582  -6.439  0.00  0.00    -0.297 N 
ATOM      2  H   UNL     1      -5.678  -1.146  -6.180  0.00  0.00    +0.154 HD
ENDROOT
BRANCH   1   3
ATOM      3  C   UNL     1      -4.047  -0.103  -5.465  0.00  0.00    +0.033 A 
ATOM      4  C   UNL     1      -3.552   1.192  -5.553  0.00  0.00    +0.025 A 
ATOM      5  C   UNL     1      -2.679   1.664  -4.593  0.00  0.00    +0.025 A 
ATOM      6  C   UNL     1      -2.296   0.845  -3.539  0.00  0.00    +0.030 A 
ATOM      7  C   UNL     1      -2.786  -0.452  -3.454  0.00  0.00    +0.025 A 
ATOM      8  C   UNL     1      -3.664  -0.922  -4.411  0.00  0.00    +0.025 A 
BRANCH   6   9
ATOM      9  N   UNL     1      -1.411   1.323  -2.567  0.00  0.00    -0.327 N 
ATOM     10  C   UNL     1      -1.142   0.297  -1.550  0.00  0.00    +0.124 C 
ATOM     11  C   UNL     1      -0.037   0.792  -0.610  0.00  0.00    +0.126 C 
ATOM     12  N   UNL     1      -0.424   2.108  -0.079  0.00  0.00    -0.298 N 
ATOM     13  C   UNL     1      -0.845   3.146  -1.033  0.00  0.00    +0.126 C 
ATOM     14  C   UNL     1      -1.918   2.559  -1.956  0.00  0.00    +0.124 C 
ATOM     15  C   UNL     1      -0.399   2.354   1.246  0.00  0.00    +0.218 C 
ATOM     16  O   UNL     1      -0.612   3.474   1.659  0.00  0.00    -0.275 OA
BRANCH  15  17
ATOM     17  C   UNL     1      -0.106   1.237   2.214  0.00  0.00    +0.069 C 
ATOM     18  C   UNL     1       1.406   1.020   2.300  0.00  0.00    +0.017 C 
ATOM     19  C   UNL     1      -0.648   1.605   3.597  0.00  0.00    +0.017 C 
ENDBRANCH  15  17
ENDBRANCH   6   9
ENDBRANCH   1   3
BRANCH   1  20
ATOM     20  C   UNL     1      -4.748  -0.259  -7.734  0.00  0.00    +0.141 C 
ATOM     21  S   UNL     1      -3.362   0.627  -8.207  0.00  0.00    -0.018 S 
BRANCH  20  24
ATOM     22  C   UNL     1      -5.472  -0.312  -9.953  0.00  0.00    +0.250 C 
ATOM     23  O   UNL     1      -4.488   0.317 -10.289  0.00  0.00    -0.270 OA
ATOM     24  N   UNL     1      -5.656  -0.635  -8.658  0.00  0.00    -0.264 N 
ATOM     25  H   UNL     1      -6.441  -1.137  -8.390  0.00  0.00    +0.157 HD
BRANCH  22  28
ATOM     26  C   UNL     1      -5.212   0.626 -12.678  0.00  0.00    +0.047 C 
ATOM     27  C   UNL     1      -6.351  -0.278 -12.284  0.00  0.00    -0.008 A 
ATOM     28  C   UNL     1      -6.466  -0.724 -10.966  0.00  0.00    +0.042 A 
ATOM     29  C   UNL     1      -7.528  -1.556 -10.607  0.00  0.00    +0.013 A 
ATOM     30  C   UNL     1      -8.453  -1.936 -11.557  0.00  0.00    +0.003 A 
ATOM     31  C   UNL     1      -8.330  -1.496 -12.863  0.00  0.00    +0.033 A 
ATOM     32  C   UNL     1      -7.279  -0.671 -13.225  0.00  0.00    +0.130 A 
BRANCH  32  33
ATOM     33  N   UNL     1      -7.155  -0.204 -14.624  0.00  0.00    +0.057 N 
ATOM     34  O   UNL     1      -8.035  -0.452 -15.429  0.00  0.00    -0.126 OA
ATOM     35  O   UNL     1      -6.173   0.428 -14.971  0.00  0.00    -0.126 OA
ENDBRANCH  32  33
ENDBRANCH  22  28
ENDBRANCH  20  24
ENDBRANCH   1  20
TORSDOF 7
