REMARK  Name = ZINC65536344
REMARK  8 active torsions:
REMARK  status: ('A' for Active; 'I' for Inactive)
REMARK    1  A    between atoms: C_1  and  C_2
REMARK    2  A    between atoms: C_4  and  C_13
REMARK    3  A    between atoms: C_6  and  S_9
REMARK    4  A    between atoms: C_7  and  C_8
REMARK    5  A    between atoms: S_9  and  N_12
REMARK    6  A    between atoms: C_19  and  C_21
REMARK    7  A    between atoms: C_21  and  C_22
REMARK    8  A    between atoms: C_21  and  C_23
REMARK                            x       y       z     vdW  Elec       q    Type
REMARK                         _______ _______ _______ _____ _____    ______ ____
ROOT
ATOM      1  C   UNL     1       0.071   1.502   0.012  0.00  0.00    +0.044 C 
ATOM      2  C   UNL     1       0.042  -0.005   0.003  0.00  0.00    -0.045 A 
ATOM      3  C   UNL     1       0.049  -0.686  -1.197  0.00  0.00    +0.016 A 
ATOM      4  C   UNL     1       0.022  -2.082  -1.203  0.00  0.00    +0.039 A 
ATOM      5  C   UNL     1      -0.010  -2.779   0.006  0.00  0.00    +0.041 A 
ATOM      6  C   UNL     1      -0.016  -2.085   1.198  0.00  0.00    +0.109 A 
ATOM      7  C   UNL     1       0.015  -0.702   1.198  0.00  0.00    -0.021 A 
ATOM      8  C   UNL     1       0.014   0.050   2.504  0.00  0.00    +0.046 C 
ENDROOT
BRANCH   4   9
ATOM      9  C   UNL     1       0.029  -2.818  -2.485  0.00  0.00    +0.247 C 
ATOM     10  O   UNL     1       0.140  -4.029  -2.490  0.00  0.00    -0.270 OA
ATOM     11  N   UNL     1      -0.088  -2.148  -3.648  0.00  0.00    -0.287 N 
ATOM     12  C   UNL     1      -0.120  -0.691  -3.836  0.00  0.00    +0.135 C 
ATOM     13  C   UNL     1      -0.262  -0.436  -5.314  0.00  0.00    -0.010 C 
ATOM     14  C   UNL     1      -0.313  -1.567  -5.960  0.00  0.00    -0.007 C 
ATOM     15  C   UNL     1      -0.205  -2.720  -4.997  0.00  0.00    +0.102 C 
BRANCH  15  16
ATOM     16  C   UNL     1       1.035  -3.556  -5.318  0.00  0.00    +0.007 C 
ATOM     17  C   UNL     1       0.903  -4.147  -6.723  0.00  0.00    +0.009 C 
ATOM     18  C   UNL     1       2.279  -2.668  -5.253  0.00  0.00    +0.009 C 
ENDBRANCH  15  16
ENDBRANCH   4   9
BRANCH   6  19
ATOM     19  S   UNL     1      -0.058  -2.963   2.725  0.00  0.00    +0.056 S 
ATOM     20  O   UNL     1      -1.085  -2.369   3.507  0.00  0.00    -0.153 OA
ATOM     21  O   UNL     1      -0.052  -4.346   2.399  0.00  0.00    -0.153 OA
BRANCH  19  22
ATOM     22  N   UNL     1       1.369  -2.654   3.506  0.00  0.00    -0.204 NA
ATOM     23  H   UNL     1       2.032  -2.078   3.096  0.00  0.00    +0.144 HD
ATOM     24  H   UNL     1       1.542  -3.050   4.375  0.00  0.00    +0.144 HD
ENDBRANCH  19  22
ENDBRANCH   6  19
TORSDOF 4
