REMARK  Name = ZINC41584466
REMARK  15 active torsions:
REMARK  status: ('A' for Active; 'I' for Inactive)
REMARK    1  A    between atoms: C_1  and  C_2
REMARK    2  A    between atoms: C_2  and  C_3
REMARK    3  A    between atoms: C_3  and  N_4
REMARK    4  A    between atoms: N_4  and  C_5
REMARK    5  A    between atoms: N_4  and  C_8
REMARK    6  A    between atoms: C_5  and  C_6
REMARK    7  A    between atoms: C_6  and  C_7
REMARK    8  A    between atoms: C_8  and  C_9
REMARK    9  A    between atoms: C_10  and  O_34
REMARK   10  A    between atoms: C_12  and  C_33
REMARK   11  A    between atoms: C_17  and  C_18
REMARK   12  A    between atoms: N_20  and  C_29
REMARK   13  A    between atoms: C_24  and  O_27
REMARK   14  A    between atoms: O_27  and  C_28
REMARK   15  A    between atoms: C_29  and  C_30
REMARK                            x       y       z     vdW  Elec       q    Type
REMARK                         _______ _______ _______ _____ _____    ______ ____
ROOT
ATOM      1  C   UNL     1       3.152  -1.954  -1.956  0.00  0.00    +0.020 A 
ATOM      2  C   UNL     1       3.555  -0.762  -2.538  0.00  0.00    +0.122 A 
ATOM      3  C   UNL     1       4.832  -0.259  -2.308  0.00  0.00    +0.050 A 
ATOM      4  C   UNL     1       5.705  -0.937  -1.503  0.00  0.00    -0.033 A 
ATOM      5  C   UNL     1       5.313  -2.137  -0.911  0.00  0.00    +0.071 A 
ATOM      6  C   UNL     1       4.024  -2.651  -1.131  0.00  0.00    +0.145 A 
ATOM      7  O   UNL     1       3.894  -3.807  -0.446  0.00  0.00    -0.451 OA
ATOM      8  C   UNL     1       5.024  -4.109   0.236  0.00  0.00    +0.176 C 
ATOM      9  C   UNL     1       5.212  -5.206   1.021  0.00  0.00    +0.060 C 
ATOM     10  C   UNL     1       5.986  -3.095  -0.016  0.00  0.00    +0.232 C 
ATOM     11  O   UNL     1       7.121  -3.024   0.426  0.00  0.00    -0.283 OA
ATOM     12  C   UNL     1       7.087  -0.390  -1.257  0.00  0.00    +0.045 C 
ENDROOT
BRANCH   9  13
ATOM     13  C   UNL     1       4.136  -6.182   1.182  0.00  0.00    +0.004 A 
ATOM     14  C   UNL     1       2.885  -6.136   0.605  0.00  0.00    +0.094 A 
ATOM     15  N   UNL     1       2.167  -7.218   0.993  0.00  0.00    -0.346 N 
ATOM     16  C   UNL     1       2.914  -8.017   1.837  0.00  0.00    +0.050 A 
ATOM     17  C   UNL     1       4.173  -7.416   1.990  0.00  0.00    +0.011 A 
ATOM     18  C   UNL     1       5.141  -8.014   2.792  0.00  0.00    +0.056 A 
ATOM     19  C   UNL     1       4.857  -9.205   3.434  0.00  0.00    +0.121 A 
ATOM     20  C   UNL     1       3.611  -9.803   3.279  0.00  0.00    +0.047 A 
ATOM     21  C   UNL     1       2.644  -9.214   2.494  0.00  0.00    +0.030 A 
BRANCH  19  22
ATOM     22  O   UNL     1       5.799  -9.794   4.219  0.00  0.00    -0.495 OA
ATOM     23  C   UNL     1       5.439 -11.023   4.853  0.00  0.00    +0.277 C 
ENDBRANCH  19  22
BRANCH  15  24
ATOM     24  C   UNL     1       0.792  -7.502   0.575  0.00  0.00    +0.118 C 
ATOM     25  C   UNL     1      -0.181  -6.972   1.629  0.00  0.00    +0.027 C 
ENDBRANCH  15  24
ENDBRANCH   9  13
BRANCH   2  26
ATOM     26  O   UNL     1       2.697  -0.080  -3.339  0.00  0.00    -0.506 OA
ATOM     27  H   UNL     1       2.147   0.562  -2.870  0.00  0.00    +0.292 HD
ENDBRANCH   2  26
BRANCH   1  28
ATOM     28  C   UNL     1       1.766  -2.488  -2.212  0.00  0.00    -0.036 C 
BRANCH  28  29
ATOM     29  N   UNL     1       0.842  -1.959  -1.200  0.00  0.00    +0.383 N 
ATOM     30  H   UNL     1       1.193  -2.175  -0.279  0.00  0.00    -0.081 HD
BRANCH  29  31
ATOM     31  C   UNL     1       0.732  -0.502  -1.351  0.00  0.00    -0.079 C 
BRANCH  31  33
ATOM     32  C   UNL     1      -0.157   1.589  -0.312  0.00  0.00    +0.002 C 
ATOM     33  C   UNL     1      -0.151   0.061  -0.235  0.00  0.00    -0.022 C 
ENDBRANCH  31  33
ENDBRANCH  29  31
BRANCH  29  34
ATOM     34  C   UNL     1      -0.481  -2.572  -1.377  0.00  0.00    -0.079 C 
BRANCH  34  35
ATOM     35  C   UNL     1      -0.393  -4.070  -1.078  0.00  0.00    -0.022 C 
ATOM     36  C   UNL     1      -1.794  -4.684  -1.133  0.00  0.00    +0.002 C 
ENDBRANCH  34  35
ENDBRANCH  29  34
ENDBRANCH  28  29
ENDBRANCH   1  28
TORSDOF 10
