REMARK  Name = ZINC36504928
REMARK  11 active torsions:
REMARK  status: ('A' for Active; 'I' for Inactive)
REMARK    1  A    between atoms: C_1  and  N_2
REMARK    2  A    between atoms: N_2  and  C_3
REMARK    3  A    between atoms: N_2  and  C_4
REMARK    4  A    between atoms: C_7  and  C_10
REMARK    5  A    between atoms: C_10  and  C_12
REMARK    6  A    between atoms: C_10  and  N_21
REMARK    7  A    between atoms: N_14  and  C_15
REMARK    8  A    between atoms: N_21  and  C_22
REMARK    9  A    between atoms: C_22  and  C_23
REMARK   10  A    between atoms: C_28  and  C_30
REMARK   11  A    between atoms: C_34  and  N_36
REMARK                            x       y       z     vdW  Elec       q    Type
REMARK                         _______ _______ _______ _____ _____    ______ ____
ROOT
ATOM      1  C   UNL     1      -1.530  -1.398  -9.397  0.00  0.00    +0.193 C 
ENDROOT
BRANCH   1   5
ATOM      2  C   UNL     1       1.486   0.154 -11.996  0.00  0.00    +0.029 A 
ATOM      3  C   UNL     1       0.318  -0.379 -12.526  0.00  0.00    +0.023 A 
ATOM      4  C   UNL     1      -0.655  -0.880 -11.683  0.00  0.00    +0.008 A 
ATOM      5  C   UNL     1      -0.467  -0.851 -10.313  0.00  0.00    -0.018 A 
ATOM      6  C   UNL     1       0.695  -0.321  -9.783  0.00  0.00    +0.008 A 
ATOM      7  C   UNL     1       1.674   0.177 -10.620  0.00  0.00    +0.023 A 
BRANCH   2   9
ATOM      8  C   UNL     1       3.706   1.218 -12.286  0.00  0.00    +0.129 C 
ATOM      9  N   UNL     1       2.472   0.661 -12.846  0.00  0.00    -0.336 N 
ATOM     10  C   UNL     1       2.272   0.637 -14.297  0.00  0.00    +0.129 C 
ENDBRANCH   2   9
ENDBRANCH   1   5
BRANCH   1  11
ATOM     11  C   UNL     1      -2.765  -0.539  -9.491  0.00  0.00    +0.238 C 
ATOM     12  O   UNL     1      -2.972   0.319  -8.660  0.00  0.00    -0.273 OA
ATOM     13  N   UNL     1      -3.640  -0.725 -10.500  0.00  0.00    -0.311 N 
ATOM     14  H   UNL     1      -3.474  -1.412 -11.165  0.00  0.00    +0.149 HD
BRANCH  13  15
ATOM     15  C   UNL     1      -4.840   0.110 -10.592  0.00  0.00    +0.073 C 
ATOM     16  C   UNL     1      -5.945  -0.488  -9.719  0.00  0.00    +0.022 C 
ATOM     17  C   UNL     1      -7.199   0.384  -9.815  0.00  0.00    +0.002 C 
ATOM     18  C   UNL     1      -7.671   0.439 -11.269  0.00  0.00    +0.000 C 
ATOM     19  C   UNL     1      -6.566   1.037 -12.142  0.00  0.00    +0.002 C 
ATOM     20  C   UNL     1      -5.313   0.165 -12.046  0.00  0.00    +0.022 C 
ENDBRANCH  13  15
ENDBRANCH   1  11
BRANCH   1  21
ATOM     21  N   UNL     1      -1.036  -1.393  -8.017  0.00  0.00    -0.275 N 
ATOM     22  C   UNL     1      -0.884  -2.555  -7.352  0.00  0.00    +0.248 C 
ATOM     23  O   UNL     1      -0.600  -2.545  -6.170  0.00  0.00    -0.270 OA
BRANCH  22  24
ATOM     24  C   UNL     1      -1.062  -3.841  -8.059  0.00  0.00    +0.039 A 
ATOM     25  C   UNL     1      -0.582  -3.997  -9.360  0.00  0.00    +0.013 A 
ATOM     26  C   UNL     1      -0.751  -5.200 -10.014  0.00  0.00    +0.003 A 
ATOM     27  C   UNL     1      -1.395  -6.250  -9.383  0.00  0.00    +0.033 A 
ATOM     28  C   UNL     1      -1.874  -6.101  -8.094  0.00  0.00    +0.127 A 
ATOM     29  C   UNL     1      -1.706  -4.905  -7.426  0.00  0.00    +0.045 A 
BRANCH  28  30
ATOM     30  N   UNL     1      -2.562  -7.229  -7.427  0.00  0.00    +0.056 N 
ATOM     31  O   UNL     1      -2.705  -8.279  -8.009  0.00  0.00    -0.126 OA
ATOM     32  O   UNL     1      -2.981  -7.100  -6.300  0.00  0.00    -0.126 OA
ENDBRANCH  28  30
ENDBRANCH  22  24
BRANCH  21  33
ATOM     33  C   UNL     1      -0.708  -0.124  -7.362  0.00  0.00    +0.183 C 
BRANCH  33  34
ATOM     34  C   UNL     1      -1.509   0.007  -6.092  0.00  0.00    +0.122 A 
ATOM     35  C   UNL     1      -1.096  -0.345  -4.861  0.00  0.00    +0.046 A 
ATOM     36  C   UNL     1      -2.157  -0.051  -3.974  0.00  0.00    +0.041 A 
ATOM     37  C   UNL     1      -3.155   0.462  -4.715  0.00  0.00    +0.195 A 
ATOM     38  O   UNL     1      -2.755   0.500  -5.997  0.00  0.00    -0.466 OA
ENDBRANCH  33  34
ENDBRANCH  21  33
ENDBRANCH   1  21
TORSDOF 9
