REMARK  Name = ZINC39710247
REMARK  12 active torsions:
REMARK  status: ('A' for Active; 'I' for Inactive)
REMARK    1  A    between atoms: C_1  and  C_2
REMARK    2  A    between atoms: C_9  and  C_14
REMARK    3  A    between atoms: C_14  and  C_16
REMARK    4  A    between atoms: C_14  and  N_26
REMARK    5  A    between atoms: N_21  and  C_22
REMARK    6  A    between atoms: C_22  and  C_23
REMARK    7  A    between atoms: C_22  and  C_24
REMARK    8  A    between atoms: C_22  and  C_25
REMARK    9  A    between atoms: N_26  and  C_27
REMARK   10  A    between atoms: N_26  and  C_34
REMARK   11  A    between atoms: C_27  and  C_28
REMARK   12  A    between atoms: C_34  and  C_35
REMARK                            x       y       z     vdW  Elec       q    Type
REMARK                         _______ _______ _______ _____ _____    ______ ____
ROOT
ATOM      1  C   UNL     1       1.605  -5.546   3.011  0.00  0.00    -0.009 C 
ENDROOT
BRANCH   1  10
ATOM      2  C   UNL     1       1.491   1.379   1.269  0.00  0.00    +0.044 C 
ATOM      3  C   UNL     1       1.258  -0.084   0.989  0.00  0.00    -0.050 A 
ATOM      4  C   UNL     1       1.202  -0.526  -0.333  0.00  0.00    +0.005 A 
ATOM      5  C   UNL     1       0.996  -1.827  -0.663  0.00  0.00    +0.024 A 
ATOM      6  C   UNL     1       0.828  -2.800   0.340  0.00  0.00    +0.040 A 
ATOM      7  N   UNL     1       0.627  -4.074   0.004  0.00  0.00    -0.285 N 
ATOM      8  C   UNL     1       0.461  -5.038   0.895  0.00  0.00    +0.223 C 
ATOM      9  O   UNL     1       0.281  -6.184   0.529  0.00  0.00    -0.275 OA
ATOM     10  C   UNL     1       0.496  -4.710   2.371  0.00  0.00    +0.088 C 
ATOM     11  C   UNL     1       0.725  -3.261   2.757  0.00  0.00    -0.006 C 
ATOM     12  C   UNL     1       0.882  -2.362   1.745  0.00  0.00    -0.007 A 
ATOM     13  C   UNL     1       1.113  -0.945   2.029  0.00  0.00    +0.012 A 
ATOM     14  H   UNL     1       0.601  -4.306  -0.937  0.00  0.00    +0.155 HD
ENDBRANCH   1  10
BRANCH   1  15
ATOM     15  C   UNL     1       1.546  -5.393   4.532  0.00  0.00    +0.205 C 
ATOM     16  N   UNL     1       0.151  -5.302   4.985  0.00  0.00    -0.152 NA
ATOM     17  N   UNL     1      -0.019  -4.213   5.537  0.00  0.00    -0.070 NA
ATOM     18  N   UNL     1       1.134  -3.430   5.559  0.00  0.00    -0.179 N 
ATOM     19  N   UNL     1       2.156  -4.112   4.946  0.00  0.00    -0.183 NA
ATOM     20  H   UNL     1       1.204  -2.544   5.947  0.00  0.00    +0.191 HD
BRANCH  19  21
ATOM     21  C   UNL     1       3.274  -4.335   5.872  0.00  0.00    +0.035 C 
ATOM     22  C   UNL     1       4.318  -5.232   5.205  0.00  0.00    +0.029 C 
ATOM     23  C   UNL     1       3.912  -2.993   6.236  0.00  0.00    +0.029 C 
ATOM     24  C   UNL     1       2.755  -5.014   7.142  0.00  0.00    +0.029 C 
ENDBRANCH  19  21
ENDBRANCH   1  15
BRANCH   1  25
ATOM     25  N   UNL     1       1.421  -6.960   2.655  0.00  0.00    +0.390 N 
ATOM     26  H   UNL     1       1.323  -7.044   1.654  0.00  0.00    -0.080 HD
BRANCH  25  27
ATOM     27  C   UNL     1       0.211  -7.476   3.310  0.00  0.00    -0.042 C 
BRANCH  27  28
ATOM     28  C   UNL     1      -0.978  -7.266   2.408  0.00  0.00    -0.064 A 
ATOM     29  C   UNL     1      -1.868  -6.240   2.665  0.00  0.00    +0.002 A 
ATOM     30  C   UNL     1      -2.958  -6.048   1.838  0.00  0.00    +0.000 A 
ATOM     31  C   UNL     1      -3.158  -6.881   0.753  0.00  0.00    +0.000 A 
ATOM     32  C   UNL     1      -2.268  -7.906   0.495  0.00  0.00    +0.000 A 
ATOM     33  C   UNL     1      -1.175  -8.096   1.320  0.00  0.00    +0.002 A 
ENDBRANCH  27  28
ENDBRANCH  25  27
BRANCH  25  34
ATOM     34  C   UNL     1       2.587  -7.733   3.099  0.00  0.00    -0.042 C 
BRANCH  34  35
ATOM     35  C   UNL     1       2.459  -9.156   2.618  0.00  0.00    -0.064 A 
ATOM     36  C   UNL     1       1.819 -10.096   3.404  0.00  0.00    +0.003 A 
ATOM     37  C   UNL     1       1.702 -11.401   2.963  0.00  0.00    +0.020 A 
ATOM     38  C   UNL     1       2.225 -11.766   1.736  0.00  0.00    +0.041 A 
ATOM     39  C   UNL     1       2.865 -10.824   0.950  0.00  0.00    +0.020 A 
ATOM     40  C   UNL     1       2.977  -9.519   1.389  0.00  0.00    +0.003 A 
ATOM     41 CL   UNL     1       2.078 -13.405   1.182  0.00  0.00    -0.084 Cl
ENDBRANCH  34  35
ENDBRANCH  25  34
ENDBRANCH   1  25
TORSDOF 8
