REMARK  Name = ZINC12756162
REMARK  7 active torsions:
REMARK  status: ('A' for Active; 'I' for Inactive)
REMARK    1  A    between atoms: C_1  and  C_2
REMARK    2  A    between atoms: C_2  and  C_27
REMARK    3  A    between atoms: N_5  and  C_9
REMARK    4  A    between atoms: C_9  and  C_10
REMARK    5  A    between atoms: C_10  and  C_12
REMARK    6  A    between atoms: C_10  and  O_26
REMARK    7  A    between atoms: C_12  and  N_13
REMARK                            x       y       z     vdW  Elec       q    Type
REMARK                         _______ _______ _______ _____ _____    ______ ____
ROOT
ATOM      1  C   UNL     1       0.079   1.179   2.503  0.00  0.00    +0.151 C 
ENDROOT
BRANCH   1   6
ATOM      2  C   UNL     1      -1.623   1.141   6.881  0.00  0.00    +0.047 C 
ATOM      3  C   UNL     1      -1.954   1.812   5.547  0.00  0.00    +0.138 C 
ATOM      4  C   UNL     1      -1.524   0.934   4.388  0.00  0.00    +0.251 C 
ATOM      5  O   UNL     1      -1.924  -0.180   4.126  0.00  0.00    -0.272 OA
ATOM      6  N   UNL     1      -0.607   1.651   3.708  0.00  0.00    -0.221 N 
ATOM      7  C   UNL     1      -0.396   2.845   4.274  0.00  0.00    +0.310 C 
ATOM      8  O   UNL     1       0.390   3.666   3.845  0.00  0.00    -0.252 OA
ATOM      9  N   UNL     1      -1.153   3.036   5.369  0.00  0.00    -0.281 N 
ATOM     10  H   UNL     1      -1.168   3.825   5.934  0.00  0.00    +0.152 HD
BRANCH   3  11
ATOM     11  C   UNL     1      -3.426   2.120   5.461  0.00  0.00    +0.022 A 
ATOM     12  C   UNL     1      -3.853   3.431   5.361  0.00  0.00    +0.047 A 
ATOM     13  C   UNL     1      -5.206   3.714   5.282  0.00  0.00    +0.124 A 
ATOM     14  C   UNL     1      -6.131   2.685   5.303  0.00  0.00    +0.041 A 
ATOM     15  C   UNL     1      -5.705   1.374   5.402  0.00  0.00    +0.041 A 
ATOM     16  C   UNL     1      -4.351   1.091   5.476  0.00  0.00    +0.129 A 
ATOM     17  F   UNL     1      -3.934  -0.191   5.569  0.00  0.00    -0.205 F 
ATOM     18  F   UNL     1      -5.623   4.996   5.185  0.00  0.00    -0.205 F 
ENDBRANCH   3  11
ENDBRANCH   1   6
BRANCH   1  19
ATOM     19  C   UNL     1      -0.729   1.579   1.267  0.00  0.00    +0.152 C 
BRANCH  19  20
ATOM     20  O   UNL     1      -2.030   0.991   1.336  0.00  0.00    -0.388 OA
ATOM     21  H   UNL     1      -2.023   0.025   1.372  0.00  0.00    +0.210 HD
ENDBRANCH  19  20
BRANCH  19  22
ATOM     22  C   UNL     1      -0.013   1.086   0.008  0.00  0.00    +0.155 C 
BRANCH  22  23
ATOM     23  N   UNL     1      -0.721   1.571  -1.179  0.00  0.00    -0.337 N 
ATOM     24  C   UNL     1      -1.742   0.895  -1.822  0.00  0.00    +0.050 A 
ATOM     25  C   UNL     1      -2.365  -0.323  -1.567  0.00  0.00    +0.026 A 
ATOM     26  C   UNL     1      -3.385  -0.761  -2.385  0.00  0.00    +0.002 A 
ATOM     27  C   UNL     1      -3.804   0.004  -3.462  0.00  0.00    +0.001 A 
ATOM     28  C   UNL     1      -3.203   1.216  -3.727  0.00  0.00    +0.010 A 
ATOM     29  C   UNL     1      -2.172   1.671  -2.909  0.00  0.00    +0.008 A 
ATOM     30  C   UNL     1      -1.337   2.886  -2.910  0.00  0.00    +0.008 A 
ATOM     31  C   UNL     1      -0.461   2.769  -1.821  0.00  0.00    +0.050 A 
ATOM     32  C   UNL     1       0.456   3.785  -1.572  0.00  0.00    +0.026 A 
ATOM     33  C   UNL     1       0.499   4.892  -2.391  0.00  0.00    +0.002 A 
ATOM     34  C   UNL     1      -0.368   5.007  -3.467  0.00  0.00    +0.001 A 
ATOM     35  C   UNL     1      -1.284   4.011  -3.730  0.00  0.00    +0.010 A 
ENDBRANCH  22  23
ENDBRANCH  19  22
ENDBRANCH   1  19
TORSDOF 6
