REMARK  Name = ZINC62561626
REMARK  4 active torsions:
REMARK  status: ('A' for Active; 'I' for Inactive)
REMARK    1  A    between atoms: C_1  and  C_2
REMARK    2  A    between atoms: C_9  and  C_13
REMARK    3  A    between atoms: C_13  and  C_14
REMARK    4  A    between atoms: C_13  and  C_15
REMARK                            x       y       z     vdW  Elec       q    Type
REMARK                         _______ _______ _______ _____ _____    ______ ____
ROOT
ATOM      1  C   UNL     1      -0.019   1.526   0.010  0.00  0.00    +0.020 C 
ATOM      2  C   UNL     1       0.002  -0.004   0.002  0.00  0.00    +0.110 C 
ATOM      3  C   UNL     1      -1.426  -0.531   0.132  0.00  0.00    +0.241 C 
ATOM      4  O   UNL     1      -1.880  -0.410   1.478  0.00  0.00    -0.488 OA
ATOM      5  C   UNL     1      -1.608   0.755   2.123  0.00  0.00    +0.156 A 
ATOM      6  C   UNL     1      -0.315   1.006   2.580  0.00  0.00    +0.077 A 
ATOM      7  C   UNL     1      -0.029   2.194   3.233  0.00  0.00    +0.031 A 
ATOM      8  C   UNL     1      -1.030   3.127   3.433  0.00  0.00    -0.042 A 
ATOM      9  C   UNL     1      -2.313   2.878   2.983  0.00  0.00    +0.023 A 
ATOM     10  C   UNL     1      -2.605   1.694   2.329  0.00  0.00    +0.062 A 
ATOM     11 BR   UNL     1      -4.362   1.359   1.716  0.00  0.00    -0.046 Br
ATOM     12  N   UNL     1       0.684   0.043   2.379  0.00  0.00    -0.282 N 
ATOM     13  C   UNL     1       0.840  -0.499   1.152  0.00  0.00    +0.223 C 
ATOM     14  O   UNL     1       1.656  -1.379   0.977  0.00  0.00    -0.275 OA
ATOM     15  H   UNL     1       1.255  -0.231   3.113  0.00  0.00    +0.155 HD
ENDROOT
BRANCH   8  16
ATOM     16  C   UNL     1      -0.720   4.420   4.143  0.00  0.00    +0.013 C 
ATOM     17  C   UNL     1      -1.022   5.598   3.213  0.00  0.00    +0.012 C 
ATOM     18  C   UNL     1      -1.582   4.530   5.402  0.00  0.00    +0.012 C 
ENDBRANCH   8  16
TORSDOF 1
