REMARK  Name = ZINC22567196
REMARK  9 active torsions:
REMARK  status: ('A' for Active; 'I' for Inactive)
REMARK    1  A    between atoms: C_1  and  C_2
REMARK    2  A    between atoms: C_4  and  C_33
REMARK    3  A    between atoms: C_6  and  C_8
REMARK    4  A    between atoms: N_10  and  C_11
REMARK    5  A    between atoms: C_11  and  N_13
REMARK    6  A    between atoms: N_13  and  C_14
REMARK    7  A    between atoms: C_23  and  C_28
REMARK    8  A    between atoms: C_28  and  C_29
REMARK    9  A    between atoms: C_28  and  C_30
REMARK                            x       y       z     vdW  Elec       q    Type
REMARK                         _______ _______ _______ _____ _____    ______ ____
ROOT
ATOM      1  C   UNL     1       0.136  -2.836   7.204  0.00  0.00    +0.036 C 
ATOM      2  C   UNL     1       0.245  -4.213   7.266  0.00  0.00    +0.074 C 
ATOM      3  C   UNL     1       0.322  -4.848   8.510  0.00  0.00    +0.193 C 
ATOM      4  O   UNL     1       0.419  -6.068   8.577  0.00  0.00    -0.287 OA
ATOM      5  C   UNL     1       0.286  -4.066   9.694  0.00  0.00    +0.079 C 
ATOM      6  C   UNL     1       0.362  -4.687  10.959  0.00  0.00    +0.202 C 
ATOM      7  N   UNL     1       0.477  -6.013  11.169  0.00  0.00    -0.282 N 
ATOM      8  C   UNL     1       0.521  -6.216  12.544  0.00  0.00    +0.077 A 
ATOM      9  C   UNL     1       0.630  -7.349  13.338  0.00  0.00    +0.031 A 
ATOM     10  C   UNL     1       0.647  -7.225  14.713  0.00  0.00    -0.043 A 
ATOM     11  C   UNL     1       0.555  -5.975  15.301  0.00  0.00    +0.007 A 
ATOM     12  C   UNL     1       0.446  -4.843  14.519  0.00  0.00    +0.048 A 
ATOM     13  C   UNL     1       0.428  -4.956  13.137  0.00  0.00    +0.151 A 
ATOM     14  O   UNL     1       0.339  -4.048  12.136  0.00  0.00    -0.439 OA
ATOM     15  C   UNL     1       0.175  -2.668   9.596  0.00  0.00    +0.018 C 
ATOM     16  C   UNL     1       0.108  -2.072   8.375  0.00  0.00    +0.024 C 
ATOM     17  H   UNL     1       0.520  -6.701  10.486  0.00  0.00    +0.155 HD
ENDROOT
BRANCH  10  18
ATOM     18  C   UNL     1       0.765  -8.455  15.576  0.00  0.00    +0.013 C 
ATOM     19  C   UNL     1       2.028  -8.355  16.435  0.00  0.00    +0.012 C 
ATOM     20  C   UNL     1      -0.462  -8.560  16.484  0.00  0.00    +0.012 C 
ENDBRANCH  10  18
BRANCH   1  21
ATOM     21  N   UNL     1       0.060  -2.204   5.965  0.00  0.00    -0.296 N 
ATOM     22  H   UNL     1       0.774  -2.318   5.317  0.00  0.00    +0.154 HD
BRANCH  21  23
ATOM     23  C   UNL     1      -1.005  -1.435   5.665  0.00  0.00    +0.141 C 
ATOM     24  S   UNL     1      -2.322  -1.333   6.754  0.00  0.00    -0.018 S 
BRANCH  23  27
ATOM     25  C   UNL     1      -2.098   0.025   4.207  0.00  0.00    +0.250 C 
ATOM     26  O   UNL     1      -3.033   0.097   4.981  0.00  0.00    -0.270 OA
ATOM     27  N   UNL     1      -1.033  -0.745   4.507  0.00  0.00    -0.264 N 
ATOM     28  H   UNL     1      -0.287  -0.802   3.890  0.00  0.00    +0.157 HD
BRANCH  25  34
ATOM     29  C   UNL     1       0.064   1.325  -0.098  0.00  0.00    +0.044 C 
ATOM     30  C   UNL     1      -1.093   1.410   0.865  0.00  0.00    -0.049 A 
ATOM     31  C   UNL     1      -2.187   2.199   0.560  0.00  0.00    +0.006 A 
ATOM     32  C   UNL     1      -3.253   2.283   1.438  0.00  0.00    -0.049 A 
ATOM     33  C   UNL     1      -3.231   1.579   2.625  0.00  0.00    +0.016 A 
ATOM     34  C   UNL     1      -2.129   0.781   2.938  0.00  0.00    +0.038 A 
ATOM     35  C   UNL     1      -1.060   0.697   2.045  0.00  0.00    +0.016 A 
ATOM     36  C   UNL     1      -4.442   3.145   1.098  0.00  0.00    +0.044 C 
ENDBRANCH  25  34
ENDBRANCH  23  27
ENDBRANCH  21  23
ENDBRANCH   1  21
TORSDOF 5
