REMARK  Name = ZINC13811119
REMARK  10 active torsions:
REMARK  status: ('A' for Active; 'I' for Inactive)
REMARK    1  A    between atoms: C_1  and  C_2
REMARK    2  A    between atoms: C_2  and  O_3
REMARK    3  A    between atoms: O_3  and  C_4
REMARK    4  A    between atoms: C_7  and  C_10
REMARK    5  A    between atoms: C_27  and  C_29
REMARK    6  A    between atoms: C_32  and  O_37
REMARK    7  A    between atoms: C_33  and  O_35
REMARK    8  A    between atoms: O_35  and  C_36
REMARK    9  A    between atoms: O_37  and  C_38
REMARK   10  A    between atoms: C_38  and  C_39
REMARK                            x       y       z     vdW  Elec       q    Type
REMARK                         _______ _______ _______ _____ _____    ______ ____
ROOT
ATOM      1  C   UNL     1      -2.068  -6.045  -0.053  0.00  0.00    +0.234 C 
ATOM      2  C   UNL     1      -2.328  -6.534  -1.448  0.00  0.00    +0.027 C 
ATOM      3  C   UNL     1      -3.587  -6.623  -1.922  0.00  0.00    +0.083 C 
ATOM      4  C   UNL     1      -4.691  -6.231  -1.010  0.00  0.00    +0.042 A 
ATOM      5  C   UNL     1      -5.970  -5.976  -1.486  0.00  0.00    +0.013 A 
ATOM      6  C   UNL     1      -6.967  -5.613  -0.601  0.00  0.00    +0.001 A 
ATOM      7  C   UNL     1      -6.694  -5.505   0.751  0.00  0.00    +0.004 A 
ATOM      8  C   UNL     1      -5.423  -5.759   1.233  0.00  0.00    +0.046 A 
ATOM      9  C   UNL     1      -4.414  -6.123   0.359  0.00  0.00    +0.131 A 
ATOM     10  O   UNL     1      -3.162  -6.382   0.802  0.00  0.00    -0.479 OA
ATOM     11  N   UNL     1      -3.841  -7.055  -3.182  0.00  0.00    -0.214 NA
ATOM     12  C   UNL     1      -2.918  -7.427  -4.038  0.00  0.00    +0.215 C 
ATOM     13  N   UNL     1      -2.995  -7.878  -5.309  0.00  0.00    -0.320 N 
ATOM     14  C   UNL     1      -1.803  -8.131  -5.774  0.00  0.00    +0.176 C 
ATOM     15  N   UNL     1      -0.874  -7.853  -4.818  0.00  0.00    -0.252 N 
ATOM     16  N   UNL     1      -1.579  -7.399  -3.701  0.00  0.00    -0.210 N 
ATOM     17  C   UNL     1      -1.192  -6.941  -2.362  0.00  0.00    +0.159 C 
ATOM     18  H   UNL     1       0.088  -7.951  -4.897  0.00  0.00    +0.171 HD
ATOM     19  H   UNL     1      -3.820  -7.998  -5.805  0.00  0.00    +0.169 HD
ENDROOT
BRANCH   1  23
ATOM     20  C   UNL     1      -1.581  -1.799  -0.113  0.00  0.00    +0.121 A 
ATOM     21  C   UNL     1      -2.837  -2.357  -0.300  0.00  0.00    +0.046 A 
ATOM     22  C   UNL     1      -2.992  -3.730  -0.280  0.00  0.00    +0.011 A 
ATOM     23  C   UNL     1      -1.896  -4.548  -0.075  0.00  0.00    -0.003 A 
ATOM     24  C   UNL     1      -0.643  -3.994   0.112  0.00  0.00    +0.011 A 
ATOM     25  C   UNL     1      -0.482  -2.622   0.087  0.00  0.00    +0.046 A 
BRANCH  20  26
ATOM     26  O   UNL     1      -1.426  -0.449  -0.133  0.00  0.00    -0.492 OA
BRANCH  26  28
ATOM     27  C   UNL     1      -2.231   1.820  -0.334  0.00  0.00    +0.048 C 
ATOM     28  C   UNL     1      -2.601   0.336  -0.344  0.00  0.00    +0.225 C 
ENDBRANCH  26  28
ENDBRANCH  20  26
ENDBRANCH   1  23
BRANCH  17  29
ATOM     29  C   UNL     1      -0.268  -5.761  -2.516  0.00  0.00    -0.017 A 
ATOM     30  C   UNL     1      -0.656  -4.675  -3.279  0.00  0.00    +0.009 A 
ATOM     31  C   UNL     1       0.188  -3.591  -3.424  0.00  0.00    +0.050 A 
ATOM     32  C   UNL     1       1.428  -3.590  -2.804  0.00  0.00    +0.162 A 
ATOM     33  C   UNL     1       1.819  -4.683  -2.037  0.00  0.00    +0.162 A 
ATOM     34  C   UNL     1       0.965  -5.765  -1.891  0.00  0.00    +0.055 A 
BRANCH  33  35
ATOM     35  O   UNL     1       3.034  -4.687  -1.426  0.00  0.00    -0.491 OA
ATOM     36  C   UNL     1       3.369  -5.842  -0.654  0.00  0.00    +0.277 C 
ENDBRANCH  33  35
BRANCH  32  37
ATOM     37  O   UNL     1       2.260  -2.524  -2.946  0.00  0.00    -0.489 OA
BRANCH  37  38
ATOM     38  C   UNL     1       1.793  -1.439  -3.749  0.00  0.00    +0.226 C 
ATOM     39  C   UNL     1       2.857  -0.341  -3.792  0.00  0.00    +0.048 C 
ENDBRANCH  37  38
ENDBRANCH  32  37
ENDBRANCH  17  29
TORSDOF 7
