REMARK  Name = ZINC58803634
REMARK  7 active torsions:
REMARK  status: ('A' for Active; 'I' for Inactive)
REMARK    1  A    between atoms: C_1  and  C_2
REMARK    2  A    between atoms: C_3  and  C_16
REMARK    3  A    between atoms: C_4  and  C_15
REMARK    4  A    between atoms: N_5  and  C_7
REMARK    5  A    between atoms: C_16  and  C_17
REMARK    6  A    between atoms: N_19  and  N_20
REMARK    7  A    between atoms: C_21  and  C_23
REMARK                            x       y       z     vdW  Elec       q    Type
REMARK                         _______ _______ _______ _____ _____    ______ ____
ROOT
ATOM      1  C   UNL     1       1.021  -0.016  -3.150  0.00  0.00    +0.234 C 
ATOM      2  O   UNL     1       2.030  -0.134  -2.488  0.00  0.00    -0.274 OA
ATOM      3  N   UNL     1       1.096   0.425  -4.421  0.00  0.00    -0.234 N 
ATOM      4  H   UNL     1       0.289   0.520  -4.950  0.00  0.00    +0.173 HD
ENDROOT
BRANCH   3   5
ATOM      5  N   UNL     1       2.341   0.748  -4.978  0.00  0.00    -0.229 N 
ATOM      6  C   UNL     1       2.416   1.189  -6.249  0.00  0.00    +0.278 C 
ATOM      7  O   UNL     1       1.404   1.307  -6.912  0.00  0.00    -0.267 OA
ATOM      8  H   UNL     1       3.148   0.653  -4.449  0.00  0.00    +0.173 HD
BRANCH   6   9
ATOM      9  C   UNL     1       3.733   1.530  -6.839  0.00  0.00    +0.127 A 
ATOM     10  C   UNL     1       3.792   1.994  -8.162  0.00  0.00    +0.034 A 
ATOM     11  C   UNL     1       4.998   2.311  -8.716  0.00  0.00    +0.012 A 
ATOM     12  C   UNL     1       6.154   2.160  -7.928  0.00  0.00    +0.000 A 
ATOM     13  C   UNL     1       7.427   2.468  -8.434  0.00  0.00    +0.010 A 
ATOM     14  C   UNL     1       8.523   2.309  -7.642  0.00  0.00    +0.001 A 
ATOM     15  C   UNL     1       8.400   1.844  -6.333  0.00  0.00    +0.002 A 
ATOM     16  C   UNL     1       7.184   1.536  -5.809  0.00  0.00    +0.028 A 
ATOM     17  C   UNL     1       6.026   1.686  -6.596  0.00  0.00    +0.072 A 
ATOM     18  N   UNL     1       4.821   1.397  -6.106  0.00  0.00    -0.242 NA
ENDBRANCH   6   9
ENDBRANCH   3   5
BRANCH   1  19
ATOM     19  C   UNL     1      -0.318  -0.363  -2.550  0.00  0.00    +0.136 C 
BRANCH  19  22
ATOM     20  C   UNL     1      -0.339   1.479   0.029  0.00  0.00    +0.068 C 
ATOM     21  C   UNL     1      -0.136  -0.015   0.010  0.00  0.00    +0.064 A 
ATOM     22  C   UNL     1      -0.127  -0.827  -1.129  0.00  0.00    +0.005 A 
ATOM     23  C   UNL     1       0.084  -2.102  -0.730  0.00  0.00    +0.046 A 
ATOM     24  N   UNL     1       0.203  -2.097   0.617  0.00  0.00    -0.236 N 
ATOM     25  N   UNL     1       0.066  -0.774   1.056  0.00  0.00    -0.171 NA
ATOM     26  C   UNL     1       0.169  -3.312  -1.625  0.00  0.00    +0.066 C 
BRANCH  24  27
ATOM     27  C   UNL     1       0.430  -3.217   1.429  0.00  0.00    +0.067 A 
ATOM     28  C   UNL     1       1.348  -4.184   1.041  0.00  0.00    +0.029 A 
ATOM     29  C   UNL     1       1.570  -5.286   1.843  0.00  0.00    +0.023 A 
ATOM     30  C   UNL     1       0.877  -5.429   3.033  0.00  0.00    +0.059 A 
ATOM     31  C   UNL     1      -0.039  -4.467   3.422  0.00  0.00    +0.061 A 
ATOM     32  C   UNL     1      -0.260  -3.359   2.626  0.00  0.00    +0.049 A 
ATOM     33 CL   UNL     1      -0.907  -4.649   4.915  0.00  0.00    -0.082 Cl
ATOM     34 CL   UNL     1       1.158  -6.816   4.038  0.00  0.00    -0.082 Cl
ENDBRANCH  24  27
ENDBRANCH  19  22
ENDBRANCH   1  19
TORSDOF 5
