REMARK  Name = ZINC20876866
REMARK  13 active torsions:
REMARK  status: ('A' for Active; 'I' for Inactive)
REMARK    1  A    between atoms: C_1  and  C_2
REMARK    2  A    between atoms: C_2  and  C_3
REMARK    3  A    between atoms: C_3  and  C_4
REMARK    4  A    between atoms: C_4  and  C_5
REMARK    5  A    between atoms: C_5  and  C_6
REMARK    6  A    between atoms: C_6  and  N_7
REMARK    7  A    between atoms: N_7  and  C_8
REMARK    8  A    between atoms: C_8  and  C_9
REMARK    9  A    between atoms: C_11  and  O_28
REMARK   10  A    between atoms: C_12  and  O_16
REMARK   11  A    between atoms: O_16  and  C_17
REMARK   12  A    between atoms: C_17  and  C_18
REMARK   13  A    between atoms: O_28  and  C_29
REMARK                            x       y       z     vdW  Elec       q    Type
REMARK                         _______ _______ _______ _____ _____    ______ ____
ROOT
ATOM      1  C   UNL     1       7.666  -2.954  -1.998  0.00  0.00    -0.060 A 
ATOM      2  C   UNL     1       7.664  -1.575  -1.900  0.00  0.00    +0.051 A 
ATOM      3  C   UNL     1       6.472  -0.896  -1.704  0.00  0.00    +0.163 A 
ATOM      4  C   UNL     1       5.280  -1.605  -1.597  0.00  0.00    +0.176 A 
ATOM      5  C   UNL     1       5.288  -2.988  -1.696  0.00  0.00    +0.063 A 
ATOM      6  C   UNL     1       6.481  -3.659  -1.897  0.00  0.00    +0.021 A 
ATOM      7 BR   UNL     1       3.670  -3.956  -1.558  0.00  0.00    -0.046 Br
ENDROOT
BRANCH   3   8
ATOM      8  O   UNL     1       6.468   0.461  -1.612  0.00  0.00    -0.491 OA
ATOM      9  C   UNL     1       7.729   1.123  -1.731  0.00  0.00    +0.277 C 
ENDBRANCH   3   8
BRANCH   1  10
ATOM     10  C   UNL     1       8.962  -3.690  -2.216  0.00  0.00    -0.047 C 
BRANCH  10  11
ATOM     11  N   UNL     1       9.208  -3.832  -3.658  0.00  0.00    +0.382 N 
ATOM     12  H   UNL     1       9.260  -2.829  -4.107  0.00  0.00    -0.085 HD
ATOM     13  H   UNL     1       8.373  -4.392  -4.104  0.00  0.00    -0.085 HD
BRANCH  11  14
ATOM     14  C   UNL     1      10.467  -4.547  -3.909  0.00  0.00    -0.082 C 
BRANCH  14  15
ATOM     15  C   UNL     1      10.688  -4.675  -5.418  0.00  0.00    -0.019 C 
BRANCH  15  16
ATOM     16  C   UNL     1      11.999  -5.419  -5.679  0.00  0.00    -0.002 C 
BRANCH  16  17
ATOM     17  C   UNL     1      12.220  -5.547  -7.188  0.00  0.00    -0.000 C 
BRANCH  17  19
ATOM     18  C   UNL     1      13.753  -6.419  -8.958  0.00  0.00    +0.004 C 
ATOM     19  C   UNL     1      13.531  -6.291  -7.450  0.00  0.00    -0.003 C 
ENDBRANCH  17  19
ENDBRANCH  16  17
ENDBRANCH  15  16
ENDBRANCH  14  15
ENDBRANCH  11  14
ENDBRANCH  10  11
ENDBRANCH   1  10
BRANCH   4  20
ATOM     20  O   UNL     1       4.108  -0.943  -1.400  0.00  0.00    -0.483 OA
BRANCH  20  21
ATOM     21  C   UNL     1       3.709  -0.717  -0.047  0.00  0.00    +0.265 C 
BRANCH  21  22
ATOM     22  C   UNL     1       2.397   0.024  -0.026  0.00  0.00    -0.007 A 
ATOM     23  C   UNL     1       1.207  -0.680  -0.016  0.00  0.00    +0.011 A 
ATOM     24  C   UNL     1       0.002  -0.004   0.002  0.00  0.00    +0.050 A 
ATOM     25  C   UNL     1      -0.017   1.383   0.010  0.00  0.00    +0.162 A 
ATOM     26  C   UNL     1       1.179   2.090   0.002  0.00  0.00    +0.162 A 
ATOM     27  C   UNL     1       2.386   1.406  -0.017  0.00  0.00    +0.056 A 
ATOM     28  O   UNL     1       1.184   3.451   0.018  0.00  0.00    -0.485 OA
ATOM     29  C   UNL     1      -0.040   4.103  -0.340  0.00  0.00    +0.270 C 
ATOM     30  C   UNL     1      -1.189   3.413   0.408  0.00  0.00    +0.270 C 
ATOM     31  O   UNL     1      -1.212   2.035   0.019  0.00  0.00    -0.485 OA
ENDBRANCH  21  22
ENDBRANCH  20  21
ENDBRANCH   4  20
TORSDOF 11
