REMARK  Name = ZINC39947199
REMARK  8 active torsions:
REMARK  status: ('A' for Active; 'I' for Inactive)
REMARK    1  A    between atoms: C_1  and  C_2
REMARK    2  A    between atoms: C_2  and  C_4
REMARK    3  A    between atoms: C_2  and  N_13
REMARK    4  A    between atoms: C_14  and  C_16
REMARK    5  A    between atoms: C_16  and  S_17
REMARK    6  A    between atoms: S_17  and  C_18
REMARK    7  A    between atoms: C_22  and  C_27
REMARK    8  A    between atoms: N_23  and  C_24
REMARK                            x       y       z     vdW  Elec       q    Type
REMARK                         _______ _______ _______ _____ _____    ______ ____
ROOT
ATOM      1  C   UNL     1       0.522  -1.800  -6.434  0.00  0.00    +0.237 C 
ATOM      2  N   UNL     1       1.660  -0.955  -6.832  0.00  0.00    -0.237 N 
ATOM      3  N   UNL     1       2.819  -1.659  -6.486  0.00  0.00    -0.169 NA
ATOM      4  C   UNL     1       2.530  -2.808  -5.936  0.00  0.00    +0.147 C 
ATOM      5  N   UNL     1       1.145  -3.001  -5.854  0.00  0.00    -0.282 N 
ATOM      6  H   UNL     1       1.616  -0.082  -7.253  0.00  0.00    +0.171 HD
ENDROOT
BRANCH   4   7
ATOM      7  C   UNL     1       3.484  -3.733  -5.486  0.00  0.00    +0.022 C 
ATOM      8  C   UNL     1       4.869  -3.565  -5.446  0.00  0.00    +0.006 A 
ATOM      9  C   UNL     1       5.709  -2.493  -5.815  0.00  0.00    +0.010 A 
ATOM     10  C   UNL     1       7.054  -2.609  -5.663  0.00  0.00    +0.001 A 
ATOM     11  C   UNL     1       7.634  -3.769  -5.146  0.00  0.00    +0.002 A 
ATOM     12  C   UNL     1       6.888  -4.837  -4.771  0.00  0.00    +0.026 A 
ATOM     13  C   UNL     1       5.475  -4.790  -4.901  0.00  0.00    +0.043 A 
ATOM     14  N   UNL     1       4.543  -5.677  -4.613  0.00  0.00    -0.380 N 
ATOM     15  C   UNL     1       3.227  -5.119  -4.935  0.00  0.00    +0.152 C 
ATOM     16  H   UNL     1       4.703  -6.559  -4.242  0.00  0.00    +0.160 HD
ENDBRANCH   4   7
BRANCH   5  17
ATOM     17  C   UNL     1       0.451  -4.167  -5.301  0.00  0.00    +0.078 C 
ATOM     18  C   UNL     1      -1.075  -4.195  -5.404  0.00  0.00    +0.024 C 
ATOM     19  C   UNL     1      -0.405  -3.952  -4.051  0.00  0.00    +0.024 C 
ENDBRANCH   5  17
BRANCH   1  20
ATOM     20  S   UNL     1      -0.495  -0.951  -5.195  0.00  0.00    -0.109 S 
BRANCH  20  21
ATOM     21  C   UNL     1       0.668  -0.578  -3.853  0.00  0.00    +0.168 C 
BRANCH  21  23
ATOM     22  N   UNL     1       0.609   0.516  -1.636  0.00  0.00    -0.308 N 
ATOM     23  C   UNL     1      -0.058   0.137  -2.744  0.00  0.00    +0.223 C 
ATOM     24  O   UNL     1      -1.244   0.372  -2.847  0.00  0.00    -0.275 OA
ATOM     25  H   UNL     1       1.557   0.328  -1.553  0.00  0.00    +0.149 HD
BRANCH  22  27
ATOM     26  C   UNL     1      -0.145   2.710  -0.862  0.00  0.00    +0.033 C 
ATOM     27  C   UNL     1      -0.097   1.211  -0.557  0.00  0.00    +0.100 C 
BRANCH  27  28
ATOM     28  C   UNL     1       0.629   0.987   0.745  0.00  0.00    -0.024 A 
ATOM     29  C   UNL     1       2.011   1.009   0.777  0.00  0.00    +0.009 A 
ATOM     30  C   UNL     1       2.681   0.804   1.969  0.00  0.00    +0.050 A 
ATOM     31  C   UNL     1       1.968   0.575   3.134  0.00  0.00    +0.166 A 
ATOM     32  C   UNL     1       0.576   0.553   3.102  0.00  0.00    +0.167 A 
ATOM     33  C   UNL     1      -0.089   0.765   1.905  0.00  0.00    +0.055 A 
ATOM     34  O   UNL     1       0.114   0.312   4.364  0.00  0.00    -0.453 OA
ATOM     35  C   UNL     1       1.239  -0.218   5.090  0.00  0.00    +0.466 C 
ATOM     36  O   UNL     1       2.378   0.348   4.416  0.00  0.00    -0.453 OA
ENDBRANCH  27  28
ENDBRANCH  22  27
ENDBRANCH  21  23
ENDBRANCH  20  21
ENDBRANCH   1  20
TORSDOF 7
