REMARK  Name = ZINC20436028
REMARK  5 active torsions:
REMARK  status: ('A' for Active; 'I' for Inactive)
REMARK    1  A    between atoms: C_10  and  C_12
REMARK    2  A    between atoms: N_14  and  C_15
REMARK    3  A    between atoms: C_15  and  C_16
REMARK    4  A    between atoms: C_16  and  O_17
REMARK    5  A    between atoms: O_17  and  C_18
REMARK                            x       y       z     vdW  Elec       q    Type
REMARK                         _______ _______ _______ _____ _____    ______ ____
ROOT
ATOM      1  C   UNL     1      -1.156   3.582   4.986  0.00  0.00    +0.251 C 
ATOM      2  O   UNL     1      -2.220   4.148   5.154  0.00  0.00    -0.270 OA
ATOM      3  N   UNL     1      -0.705   3.353   3.737  0.00  0.00    -0.309 N 
ATOM      4  H   UNL     1       0.257   2.842   3.584  0.00  0.00    +0.149 HD
ENDROOT
BRANCH   1  14
ATOM      5  C   UNL     1       4.732   0.759   8.841  0.00  0.00    +0.001 A 
ATOM      6  C   UNL     1       4.530   0.442  10.173  0.00  0.00    +0.002 A 
ATOM      7  C   UNL     1       3.301   0.676  10.766  0.00  0.00    +0.027 A 
ATOM      8  C   UNL     1       2.274   1.227  10.032  0.00  0.00    +0.097 A 
ATOM      9  C   UNL     1       2.476   1.569   8.691  0.00  0.00    +0.014 A 
ATOM     10  C   UNL     1       3.715   1.321   8.098  0.00  0.00    +0.011 A 
ATOM     11  C   UNL     1       1.385   2.184   7.934  0.00  0.00    +0.027 A 
ATOM     12  C   UNL     1       0.242   2.802   8.426  0.00  0.00    -0.011 A 
ATOM     13  C   UNL     1      -0.648   3.284   7.489  0.00  0.00    +0.026 A 
ATOM     14  C   UNL     1      -0.366   3.148   6.141  0.00  0.00    +0.075 A 
ATOM     15  S   UNL     1       1.205   2.300   6.172  0.00  0.00    -0.083 S 
ATOM     16  C   UNL     1       0.017   2.946   9.929  0.00  0.00    +0.208 C 
ATOM     17  S   UNL     1       0.691   1.481  10.762  0.00  0.00    +0.002 S 
ATOM     18  O   UNL     1      -0.061   0.328  10.408  0.00  0.00    -0.169 OA
ATOM     19  O   UNL     1       0.964   1.777  12.125  0.00  0.00    -0.169 OA
ENDBRANCH   1  14
BRANCH   3  20
ATOM     20  C   UNL     1      -1.494   3.787   2.582  0.00  0.00    +0.132 C 
BRANCH  20  21
ATOM     21  C   UNL     1      -0.762   3.410   1.292  0.00  0.00    +0.179 C 
BRANCH  21  22
ATOM     22  O   UNL     1      -0.688   1.987   1.186  0.00  0.00    -0.372 OA
BRANCH  22  23
ATOM     23  C   UNL     1      -0.019   1.526   0.010  0.00  0.00    +0.070 C 
ATOM     24  C   UNL     1       1.417   2.055  -0.000  0.00  0.00    +0.038 C 
ATOM     25  C   UNL     1       2.133   1.562  -1.259  0.00  0.00    -0.008 C 
ATOM     26  C   UNL     1       2.154   0.032  -1.268  0.00  0.00    +0.007 C 
ATOM     27  C   UNL     1       0.718  -0.497  -1.257  0.00  0.00    -0.008 C 
ATOM     28  C   UNL     1       0.002  -0.004   0.002  0.00  0.00    +0.038 C 
ATOM     29  C   UNL     1      -0.022   0.009  -2.496  0.00  0.00    +0.007 C 
ATOM     30  C   UNL     1      -0.043   1.539  -2.488  0.00  0.00    -0.008 C 
ATOM     31  C   UNL     1       1.393   2.069  -2.499  0.00  0.00    +0.007 C 
ATOM     32  C   UNL     1      -0.759   2.033  -1.229  0.00  0.00    +0.038 C 
ENDBRANCH  22  23
ENDBRANCH  21  22
ENDBRANCH  20  21
ENDBRANCH   3  20
TORSDOF 5
