REMARK  Name = ZINC35252951
REMARK  7 active torsions:
REMARK  status: ('A' for Active; 'I' for Inactive)
REMARK    1  A    between atoms: C_1  and  C_2
REMARK    2  A    between atoms: C_4  and  C_8
REMARK    3  A    between atoms: C_5  and  C_7
REMARK    4  A    between atoms: C_8  and  C_10
REMARK    5  A    between atoms: C_8  and  N_11
REMARK    6  A    between atoms: N_11  and  C_12
REMARK    7  A    between atoms: C_12  and  C_13
REMARK                            x       y       z     vdW  Elec       q    Type
REMARK                         _______ _______ _______ _____ _____    ______ ____
ROOT
ATOM      1  N   UNL     1      -3.111  -2.601  -0.584  0.00  0.00    +0.386 N 
ATOM      2  H   UNL     1      -3.418  -1.847   0.013  0.00  0.00    -0.085 HD
ATOM      3  H   UNL     1      -2.895  -2.238  -1.500  0.00  0.00    -0.085 HD
ENDROOT
BRANCH   1   4
ATOM      4  C   UNL     1      -1.912  -3.224  -0.008  0.00  0.00    -0.043 C 
ATOM      5  C   UNL     1      -2.206  -3.663   1.428  0.00  0.00    -0.009 C 
BRANCH   4   9
ATOM      6  C   UNL     1      -0.018   1.503   0.010  0.00  0.00    +0.051 C 
ATOM      7  C   UNL     1       0.002  -0.004   0.002  0.00  0.00    -0.013 A 
ATOM      8  C   UNL     1      -1.039  -0.872   0.002  0.00  0.00    +0.013 A 
ATOM      9  C   UNL     1      -0.780  -2.230  -0.007  0.00  0.00    -0.051 A 
ATOM     10  C   UNL     1       0.507  -2.653  -0.016  0.00  0.00    -0.011 A 
ATOM     11  S   UNL     1       1.404  -1.109  -0.018  0.00  0.00    -0.098 S 
ATOM     12  C   UNL     1       1.043  -4.062  -0.027  0.00  0.00    +0.052 C 
ENDBRANCH   4   9
ENDBRANCH   1   4
BRANCH   1  13
ATOM     13  C   UNL     1      -4.179  -3.604  -0.694  0.00  0.00    -0.043 C 
BRANCH  13  14
ATOM     14  C   UNL     1      -5.409  -2.965  -1.286  0.00  0.00    -0.026 A 
ATOM     15  C   UNL     1      -6.352  -2.382  -0.457  0.00  0.00    +0.044 A 
ATOM     16  C   UNL     1      -7.481  -1.794  -1.000  0.00  0.00    +0.022 A 
ATOM     17  C   UNL     1      -7.668  -1.790  -2.369  0.00  0.00    +0.023 A 
ATOM     18  C   UNL     1      -6.726  -2.372  -3.198  0.00  0.00    +0.060 A 
ATOM     19  C   UNL     1      -5.593  -2.955  -2.656  0.00  0.00    +0.062 A 
ATOM     20 CL   UNL     1      -4.407  -3.680  -3.696  0.00  0.00    -0.082 Cl
ATOM     21 CL   UNL     1      -6.961  -2.366  -4.918  0.00  0.00    -0.082 Cl
ATOM     22 CL   UNL     1      -6.119  -2.388   1.263  0.00  0.00    -0.083 Cl
ENDBRANCH  13  14
ENDBRANCH   1  13
TORSDOF 4
