REMARK  Name = ZINC40899414
REMARK  11 active torsions:
REMARK  status: ('A' for Active; 'I' for Inactive)
REMARK    1  A    between atoms: C_1  and  C_2
REMARK    2  A    between atoms: C_4  and  O_11
REMARK    3  A    between atoms: C_7  and  C_8
REMARK    4  A    between atoms: C_8  and  C_9
REMARK    5  A    between atoms: C_8  and  C_10
REMARK    6  A    between atoms: O_11  and  C_12
REMARK    7  A    between atoms: C_12  and  C_13
REMARK    8  A    between atoms: N_15  and  C_16
REMARK    9  A    between atoms: C_16  and  N_18
REMARK   10  A    between atoms: N_18  and  C_19
REMARK   11  A    between atoms: C_24  and  N_25
REMARK                            x       y       z     vdW  Elec       q    Type
REMARK                         _______ _______ _______ _____ _____    ______ ____
ROOT
ATOM      1  C   UNL     1      -1.047  -5.288  -3.479  0.00  0.00    +0.256 C 
ATOM      2  O   UNL     1      -1.367  -4.533  -4.372  0.00  0.00    -0.272 OA
ATOM      3  N   UNL     1      -0.712  -6.562  -3.761  0.00  0.00    -0.265 N 
ATOM      4  H   UNL     1      -0.456  -7.166  -3.047  0.00  0.00    +0.157 HD
ENDROOT
BRANCH   3   5
ATOM      5  C   UNL     1      -0.733  -6.997  -5.037  0.00  0.00    +0.141 C 
ATOM      6  S   UNL     1      -1.185  -5.931  -6.298  0.00  0.00    -0.018 S 
BRANCH   5   7
ATOM      7  N   UNL     1      -0.398  -8.272  -5.319  0.00  0.00    -0.295 N 
ATOM      8  H   UNL     1      -0.178  -8.886  -4.601  0.00  0.00    +0.154 HD
BRANCH   7   9
ATOM      9  C   UNL     1      -0.367  -8.709  -6.647  0.00  0.00    +0.063 A 
ATOM     10  C   UNL     1       0.140  -7.882  -7.641  0.00  0.00    +0.025 A 
ATOM     11  C   UNL     1       0.170  -8.316  -8.951  0.00  0.00    +0.002 A 
ATOM     12  C   UNL     1      -0.307  -9.574  -9.275  0.00  0.00    +0.002 A 
ATOM     13  C   UNL     1      -0.813 -10.400  -8.289  0.00  0.00    +0.034 A 
ATOM     14  C   UNL     1      -0.839  -9.973  -6.975  0.00  0.00    +0.147 A 
BRANCH  14  15
ATOM     15  N   UNL     1      -1.376 -10.860  -5.919  0.00  0.00    +0.058 N 
ATOM     16  O   UNL     1      -1.698 -11.994  -6.188  0.00  0.00    -0.126 OA
ATOM     17  O   UNL     1      -1.493 -10.451  -4.787  0.00  0.00    -0.126 OA
ENDBRANCH  14  15
ENDBRANCH   7   9
ENDBRANCH   5   7
ENDBRANCH   3   5
BRANCH   1  18
ATOM     18  C   UNL     1      -1.024  -4.801  -2.053  0.00  0.00    +0.324 C 
BRANCH  18  19
ATOM     19  O   UNL     1      -1.415  -3.427  -2.012  0.00  0.00    -0.483 OA
BRANCH  19  23
ATOM     20  C   UNL     1      -2.253   0.552   0.688  0.00  0.00    +0.044 C 
ATOM     21  C   UNL     1      -1.850  -0.895   0.564  0.00  0.00    -0.044 A 
ATOM     22  C   UNL     1      -1.818  -1.499  -0.678  0.00  0.00    +0.049 A 
ATOM     23  C   UNL     1      -1.447  -2.831  -0.791  0.00  0.00    +0.121 A 
ATOM     24  C   UNL     1      -1.109  -3.553   0.344  0.00  0.00    +0.046 A 
ATOM     25  C   UNL     1      -1.143  -2.945   1.584  0.00  0.00    +0.008 A 
ATOM     26  C   UNL     1      -1.508  -1.616   1.693  0.00  0.00    -0.042 A 
BRANCH  26  27
ATOM     27  C   UNL     1      -1.538  -0.953   3.046  0.00  0.00    +0.013 C 
ATOM     28  C   UNL     1      -2.442  -1.753   3.987  0.00  0.00    +0.012 C 
ATOM     29  C   UNL     1      -0.121  -0.902   3.621  0.00  0.00    +0.012 C 
ENDBRANCH  26  27
ENDBRANCH  19  23
ENDBRANCH  18  19
ENDBRANCH   1  18
TORSDOF 8
