REMARK  Name = ZINC00792625
REMARK  12 active torsions:
REMARK  status: ('A' for Active; 'I' for Inactive)
REMARK    1  A    between atoms: C_1  and  C_2
REMARK    2  A    between atoms: C_2  and  C_3
REMARK    3  A    between atoms: C_16  and  O_35
REMARK    4  A    between atoms: N_19  and  C_34
REMARK    5  A    between atoms: C_22  and  C_29
REMARK    6  A    between atoms: C_22  and  O_33
REMARK    7  A    between atoms: C_23  and  O_25
REMARK    8  A    between atoms: O_25  and  C_26
REMARK    9  A    between atoms: C_26  and  C_28
REMARK   10  A    between atoms: C_29  and  O_31
REMARK   11  A    between atoms: O_31  and  C_32
REMARK   12  A    between atoms: O_35  and  C_36
REMARK                            x       y       z     vdW  Elec       q    Type
REMARK                         _______ _______ _______ _____ _____    ______ ____
ROOT
ATOM      1  C   UNL     1       0.823  -0.580   1.355  0.00  0.00    +0.045 C 
ATOM      2  C   UNL     1       2.180   0.054   1.328  0.00  0.00    -0.018 C 
ATOM      3  C   UNL     1       3.280  -0.636   1.330  0.00  0.00    -0.015 C 
ATOM      4  C   UNL     1       3.278  -2.134   1.382  0.00  0.00    +0.111 C 
ATOM      5  N   UNL     1       2.066  -2.680   0.762  0.00  0.00    -0.294 NA
ATOM      6  C   UNL     1       0.844  -2.063   1.287  0.00  0.00    +0.083 C 
ATOM      7  C   UNL     1       0.261  -2.905   2.383  0.00  0.00    +0.037 C 
ATOM      8  C   UNL     1       1.239  -4.107   2.516  0.00  0.00    +0.030 C 
ATOM      9  C   UNL     1       1.961  -4.123   1.122  0.00  0.00    +0.086 C 
ATOM     10  C   UNL     1      -1.099  -3.442   2.037  0.00  0.00    -0.015 A 
ATOM     11  C   UNL     1      -1.506  -4.172   0.935  0.00  0.00    +0.025 A 
ATOM     12  C   UNL     1      -2.834  -4.577   0.898  0.00  0.00    +0.060 A 
ATOM     13  C   UNL     1      -3.712  -4.263   1.924  0.00  0.00    +0.136 A 
ATOM     14  C   UNL     1      -3.312  -3.515   3.026  0.00  0.00    +0.070 A 
ATOM     15  C   UNL     1      -1.983  -3.088   3.060  0.00  0.00    +0.037 A 
ATOM     16  N   UNL     1      -1.374  -2.251   3.981  0.00  0.00    -0.325 N 
ATOM     17  C   UNL     1       0.087  -2.262   3.753  0.00  0.00    +0.132 C 
ATOM     18  C   UNL     1       0.585  -0.824   3.803  0.00  0.00    +0.219 C 
ATOM     19  C   UNL     1       0.060  -0.069   2.579  0.00  0.00    +0.232 C 
ATOM     20  C   UNL     1      -2.067  -1.479   5.016  0.00  0.00    +0.129 C 
ATOM     21 BR   UNL     1      -3.458  -5.575  -0.581  0.00  0.00    -0.047 Br
ENDROOT
BRANCH   1  23
ATOM     22  C   UNL     1       0.017   1.446   0.136  0.00  0.00    +0.005 C 
ATOM     23  C   UNL     1       0.071  -0.083   0.119  0.00  0.00    +0.013 C 
ENDBRANCH   1  23
BRANCH  18  24
ATOM     24  C   UNL     1       0.080  -0.160   5.059  0.00  0.00    +0.345 C 
ATOM     25  O   UNL     1      -0.115  -0.818   6.053  0.00  0.00    -0.247 OA
BRANCH  24  26
ATOM     26  O   UNL     1      -0.153   1.162   5.072  0.00  0.00    -0.466 OA
ATOM     27  C   UNL     1      -0.631   1.724   6.295  0.00  0.00    +0.280 C 
ENDBRANCH  24  26
ENDBRANCH  18  24
BRANCH  18  28
ATOM     28  O   UNL     1       2.014  -0.812   3.796  0.00  0.00    -0.373 OA
ATOM     29  H   UNL     1       2.400   0.074   3.827  0.00  0.00    +0.211 HD
ENDBRANCH  18  28
BRANCH  13  30
ATOM     30  O   UNL     1      -4.997  -4.698   1.851  0.00  0.00    -0.494 OA
ATOM     31  C   UNL     1      -5.863  -4.349   2.933  0.00  0.00    +0.277 C 
ENDBRANCH  13  30
BRANCH  19  32
ATOM     32  O   UNL     1      -1.339  -0.308   2.412  0.00  0.00    -0.457 OA
BRANCH  32  33
ATOM     33  C   UNL     1      -2.180   0.554   3.004  0.00  0.00    +0.304 C 
ATOM     34  O   UNL     1      -1.742   1.482   3.643  0.00  0.00    -0.251 OA
ATOM     35  C   UNL     1      -3.669   0.366   2.872  0.00  0.00    +0.136 C 
ENDBRANCH  32  33
ENDBRANCH  19  32
TORSDOF 7
