REMARK  Name = ZINC09067715
REMARK  12 active torsions:
REMARK  status: ('A' for Active; 'I' for Inactive)
REMARK    1  A    between atoms: C_1  and  C_2
REMARK    2  A    between atoms: C_5  and  C_8
REMARK    3  A    between atoms: C_11  and  C_12
REMARK    4  A    between atoms: C_11  and  O_23
REMARK    5  A    between atoms: C_13  and  C_22
REMARK    6  A    between atoms: C_20  and  C_21
REMARK    7  A    between atoms: N_28  and  C_29
REMARK    8  A    between atoms: C_29  and  C_30
REMARK    9  A    between atoms: C_30  and  C_31
REMARK   10  A    between atoms: C_31  and  N_63
REMARK   11  A    between atoms: C_32  and  N_63
REMARK   12  A    between atoms: C_33  and  N_63
REMARK                            x       y       z     vdW  Elec       q    Type
REMARK                         _______ _______ _______ _____ _____    ______ ____
ROOT
ATOM      1  C   UNL     1      -1.238   2.278   0.019  0.00  0.00    +0.145 C 
ATOM      2  C   UNL     1      -0.017   1.388   0.010  0.00  0.00    +0.073 C 
ATOM      3  C   UNL     1       0.002  -0.004   0.002  0.00  0.00    +0.151 C 
ATOM      4  C   UNL     1       1.087   2.240   0.004  0.00  0.00    +0.249 C 
ATOM      5  O   UNL     1       2.257   1.893  -0.009  0.00  0.00    -0.282 OA
ATOM      6  C   UNL     1       0.597   3.641   0.016  0.00  0.00    +0.288 C 
ATOM      7  O   UNL     1       1.306   4.627   0.014  0.00  0.00    -0.266 OA
ATOM      8  N   UNL     1      -0.747   3.660   0.029  0.00  0.00    -0.284 N 
ENDROOT
BRANCH   3   9
ATOM      9  C   UNL     1       1.232  -0.692  -0.013  0.00  0.00    +0.111 A 
ATOM     10  C   UNL     1       2.137  -0.761  -1.069  0.00  0.00    +0.068 A 
ATOM     11  N   UNL     1       3.162  -1.500  -0.684  0.00  0.00    -0.232 NA
ATOM     12  C   UNL     1       2.976  -1.919   0.569  0.00  0.00    +0.141 A 
ATOM     13  N   UNL     1       1.783  -1.429   1.021  0.00  0.00    -0.296 N 
ATOM     14  C   UNL     1       1.347  -1.715   2.277  0.00  0.00    +0.093 A 
ATOM     15  C   UNL     1       2.092  -2.482   3.107  0.00  0.00    +0.018 A 
ATOM     16  C   UNL     1       3.322  -2.995   2.676  0.00  0.00    +0.008 A 
ATOM     17  C   UNL     1       3.763  -2.717   1.415  0.00  0.00    -0.008 A 
ATOM     18  C   UNL     1       5.084  -3.261   0.935  0.00  0.00    +0.047 C 
ATOM     19  C   UNL     1       1.976  -0.105  -2.416  0.00  0.00    +0.068 C 
ENDBRANCH   3   9
BRANCH   1  24
ATOM     20  C   UNL     1      -4.421   1.326  -4.708  0.00  0.00    +0.044 C 
ATOM     21  C   UNL     1      -3.591   1.575  -3.475  0.00  0.00    -0.050 A 
ATOM     22  C   UNL     1      -3.968   1.022  -2.266  0.00  0.00    +0.004 A 
ATOM     23  C   UNL     1      -3.206   1.249  -1.135  0.00  0.00    +0.006 A 
ATOM     24  C   UNL     1      -2.068   2.030  -1.214  0.00  0.00    -0.022 A 
ATOM     25  C   UNL     1      -1.694   2.588  -2.422  0.00  0.00    +0.006 A 
ATOM     26  C   UNL     1      -2.453   2.356  -3.554  0.00  0.00    +0.004 A 
ENDBRANCH   1  24
BRANCH   3  27
ATOM     27  O   UNL     1      -1.160  -0.696   0.009  0.00  0.00    -0.504 OA
ATOM     28  H   UNL     1      -0.964  -1.677   0.002  0.00  0.00    +0.292 HD
ENDBRANCH   3  27
BRANCH   8  29
ATOM     29  C   UNL     1      -1.583   4.862   0.043  0.00  0.00    +0.107 C 
BRANCH  29  30
ATOM     30  C   UNL     1      -1.888   5.288  -1.395  0.00  0.00    +0.000 C 
BRANCH  30  31
ATOM     31  C   UNL     1      -2.762   6.544  -1.381  0.00  0.00    -0.078 C 
BRANCH  31  34
ATOM     32  C   UNL     1      -3.889   5.954  -3.440  0.00  0.00    -0.097 C 
ATOM     33  C   UNL     1      -3.686   8.279  -2.795  0.00  0.00    -0.097 C 
ATOM     34  N   UNL     1      -3.029   6.955  -2.775  0.00  0.00    +0.376 N 
ATOM     35  H   UNL     1      -2.138   7.017  -3.281  0.00  0.00    -0.083 HD
ENDBRANCH  31  34
ENDBRANCH  30  31
ENDBRANCH  29  30
ENDBRANCH   8  29
TORSDOF 7
