REMARK  Name = ZINC40540325
REMARK  8 active torsions:
REMARK  status: ('A' for Active; 'I' for Inactive)
REMARK    1  A    between atoms: C_1  and  C_2
REMARK    2  A    between atoms: C_6  and  C_25
REMARK    3  A    between atoms: C_8  and  N_11
REMARK    4  A    between atoms: N_14  and  C_15
REMARK    5  A    between atoms: C_20  and  C_21
REMARK    6  A    between atoms: C_21  and  C_22
REMARK    7  A    between atoms: C_25  and  C_26
REMARK    8  A    between atoms: C_25  and  C_27
REMARK                            x       y       z     vdW  Elec       q    Type
REMARK                         _______ _______ _______ _____ _____    ______ ____
ROOT
ATOM      1  N   UNL     1       0.201   1.447   2.637  0.00  0.00    -0.296 N 
ATOM      2  C   UNL     1       1.319   2.143   2.923  0.00  0.00    +0.304 C 
ATOM      3  O   UNL     1       2.320   1.561   3.293  0.00  0.00    -0.253 OA
ATOM      4  N   UNL     1       1.326   3.486   2.799  0.00  0.00    -0.269 N 
ATOM      5  H   UNL     1      -0.598   1.911   2.342  0.00  0.00    +0.151 HD
ATOM      6  H   UNL     1       0.510   3.956   2.570  0.00  0.00    +0.156 HD
ENDROOT
BRANCH   1  12
ATOM      7  C   UNL     1       0.357   1.281   0.148  0.00  0.00    +0.007 C 
ATOM      8  C   UNL     1       0.349  -0.242   0.289  0.00  0.00    -0.012 C 
ATOM      9  C   UNL     1      -1.094  -0.750   0.245  0.00  0.00    +0.004 C 
ATOM     10  C   UNL     1      -1.889  -0.128   1.395  0.00  0.00    +0.006 C 
ATOM     11  C   UNL     1      -1.250  -0.520   2.728  0.00  0.00    +0.012 C 
ATOM     12  C   UNL     1       0.193  -0.012   2.772  0.00  0.00    +0.078 C 
ATOM     13  C   UNL     1       0.988  -0.635   1.622  0.00  0.00    +0.026 C 
BRANCH  11  14
ATOM     14  C   UNL     1      -2.044   0.102   3.878  0.00  0.00    -0.012 C 
ATOM     15  C   UNL     1      -3.487  -0.406   3.834  0.00  0.00    +0.007 C 
ATOM     16  C   UNL     1      -1.405  -0.290   5.211  0.00  0.00    +0.007 C 
ENDBRANCH  11  14
ENDBRANCH   1  12
BRANCH   4  17
ATOM     17  C   UNL     1       2.512   4.200   3.002  0.00  0.00    +0.038 A 
ATOM     18  C   UNL     1       3.486   3.704   3.860  0.00  0.00    +0.023 A 
ATOM     19  C   UNL     1       4.655   4.412   4.057  0.00  0.00    +0.002 A 
ATOM     20  C   UNL     1       4.857   5.613   3.403  0.00  0.00    +0.000 A 
ATOM     21  C   UNL     1       3.890   6.110   2.550  0.00  0.00    +0.006 A 
ATOM     22  C   UNL     1       2.720   5.404   2.343  0.00  0.00    -0.017 A 
BRANCH  22  23
ATOM     23  C   UNL     1       1.669   5.944   1.407  0.00  0.00    +0.132 C 
BRANCH  23  24
ATOM     24  C   UNL     1       0.645   6.719   2.196  0.00  0.00    +0.215 C 
ATOM     25  O   UNL     1       0.758   6.823   3.399  0.00  0.00    -0.276 OA
ATOM     26  N   UNL     1      -0.396   7.296   1.564  0.00  0.00    -0.329 N 
ATOM     27  H   UNL     1      -0.486   7.213   0.602  0.00  0.00    +0.145 HD
ATOM     28  H   UNL     1      -1.055   7.795   2.072  0.00  0.00    +0.145 HD
ENDBRANCH  23  24
ENDBRANCH  22  23
ENDBRANCH   4  17
TORSDOF 5
