REMARK  Name = ZINC00823555
REMARK  6 active torsions:
REMARK  status: ('A' for Active; 'I' for Inactive)
REMARK    1  A    between atoms: C_1  and  C_2
REMARK    2  A    between atoms: C_7  and  O_10
REMARK    3  A    between atoms: O_10  and  C_11
REMARK    4  A    between atoms: C_11  and  C_13
REMARK    5  A    between atoms: C_14  and  C_31
REMARK    6  A    between atoms: C_19  and  C_21
REMARK                            x       y       z     vdW  Elec       q    Type
REMARK                         _______ _______ _______ _____ _____    ______ ____
ROOT
ATOM      1  C   UNL     1       1.233   2.815  -0.019  0.00  0.00    +0.078 C 
ATOM      2  C   UNL     1       1.114   1.471   0.036  0.00  0.00    +0.021 C 
ATOM      3  N   UNL     1      -0.114   0.873   0.064  0.00  0.00    -0.273 N 
ATOM      4  C   UNL     1      -1.270   1.548   0.035  0.00  0.00    +0.304 C 
ATOM      5  O   UNL     1      -2.314   0.927   0.058  0.00  0.00    -0.252 OA
ATOM      6  N   UNL     1      -1.312   2.895  -0.015  0.00  0.00    -0.288 N 
ATOM      7  C   UNL     1      -0.040   3.636  -0.048  0.00  0.00    +0.145 C 
ATOM      8  C   UNL     1       2.355   0.617   0.066  0.00  0.00    +0.061 C 
ATOM      9  H   UNL     1      -0.150  -0.095   0.102  0.00  0.00    +0.156 HD
ATOM     10  H   UNL     1      -2.161   3.364  -0.032  0.00  0.00    +0.151 HD
ENDROOT
BRANCH   7  11
ATOM     11  C   UNL     1      -0.024   4.474  -1.300  0.00  0.00    -0.005 A 
ATOM     12  C   UNL     1      -0.594   3.989  -2.463  0.00  0.00    +0.056 A 
ATOM     13  C   UNL     1      -0.585   4.760  -3.614  0.00  0.00    +0.167 A 
ATOM     14  C   UNL     1       0.009   6.020  -3.600  0.00  0.00    +0.167 A 
ATOM     15  C   UNL     1       0.584   6.497  -2.433  0.00  0.00    +0.065 A 
ATOM     16  C   UNL     1       0.566   5.724  -1.286  0.00  0.00    +0.027 A 
ATOM     17 BR   UNL     1       1.351   6.380   0.305  0.00  0.00    -0.050 Br
ATOM     18  O   UNL     1      -0.107   6.571  -4.843  0.00  0.00    -0.453 OA
ATOM     19  C   UNL     1      -0.414   5.473  -5.723  0.00  0.00    +0.466 C 
ATOM     20  O   UNL     1      -1.073   4.522  -4.866  0.00  0.00    -0.453 OA
ENDBRANCH   7  11
BRANCH   1  21
ATOM     21  C   UNL     1       2.504   3.436  -0.048  0.00  0.00    +0.339 C 
ATOM     22  O   UNL     1       2.989   3.878   0.977  0.00  0.00    -0.245 OA
BRANCH  21  23
ATOM     23  O   UNL     1       3.179   3.537  -1.212  0.00  0.00    -0.458 OA
BRANCH  23  29
ATOM     24  C   UNL     1       6.535   6.142  -3.684  0.00  0.00    +0.007 C 
ATOM     25  C   UNL     1       6.226   5.395  -2.384  0.00  0.00    -0.011 C 
ATOM     26  C   UNL     1       7.231   4.256  -2.199  0.00  0.00    +0.003 C 
ATOM     27  C   UNL     1       6.923   3.510  -0.900  0.00  0.00    +0.004 C 
ATOM     28  C   UNL     1       5.506   2.935  -0.966  0.00  0.00    +0.045 C 
ATOM     29  C   UNL     1       4.502   4.074  -1.151  0.00  0.00    +0.177 C 
ATOM     30  C   UNL     1       4.810   4.821  -2.450  0.00  0.00    +0.048 C 
ENDBRANCH  23  29
ENDBRANCH  21  23
ENDBRANCH   1  21
TORSDOF 4
