REMARK  Name = ZINC19938450
REMARK  13 active torsions:
REMARK  status: ('A' for Active; 'I' for Inactive)
REMARK    1  A    between atoms: C_1  and  C_2
REMARK    2  A    between atoms: C_2  and  N_3
REMARK    3  A    between atoms: N_3  and  C_4
REMARK    4  A    between atoms: N_3  and  C_6
REMARK    5  A    between atoms: C_4  and  C_5
REMARK    6  A    between atoms: C_6  and  C_7
REMARK    7  A    between atoms: C_7  and  N_8
REMARK    8  A    between atoms: C_9  and  C_29
REMARK    9  A    between atoms: C_11  and  C_16
REMARK   10  A    between atoms: C_16  and  C_18
REMARK   11  A    between atoms: C_25  and  C_28
REMARK   12  A    between atoms: C_33  and  O_35
REMARK   13  A    between atoms: O_35  and  C_36
REMARK                            x       y       z     vdW  Elec       q    Type
REMARK                         _______ _______ _______ _____ _____    ______ ____
ROOT
ATOM      1  N   UNL     1       2.574  -1.533  -0.419  0.00  0.00    -0.285 N 
ATOM      2  C   UNL     1       2.363  -0.081  -0.405  0.00  0.00    +0.145 C 
ATOM      3  C   UNL     1       3.678   0.532   0.017  0.00  0.00    +0.076 C 
ATOM      4  C   UNL     1       4.537  -0.493   0.227  0.00  0.00    +0.249 C 
ATOM      5  C   UNL     1       3.844  -1.770  -0.045  0.00  0.00    +0.288 C 
ATOM      6  O   UNL     1       4.348  -2.871   0.053  0.00  0.00    -0.266 OA
ATOM      7  O   UNL     1       5.825  -0.368   0.622  0.00  0.00    -0.282 OA
ENDROOT
BRANCH   2   8
ATOM      8  C   UNL     1       1.284   0.280   0.583  0.00  0.00    -0.019 A 
ATOM      9  C   UNL     1       1.317  -0.241   1.863  0.00  0.00    +0.006 A 
ATOM     10  C   UNL     1       0.328   0.088   2.772  0.00  0.00    +0.004 A 
ATOM     11  C   UNL     1      -0.696   0.939   2.402  0.00  0.00    +0.046 A 
ATOM     12  C   UNL     1      -0.732   1.463   1.119  0.00  0.00    +0.129 A 
ATOM     13  C   UNL     1       0.265   1.135   0.210  0.00  0.00    +0.052 A 
BRANCH  12  14
ATOM     14  O   UNL     1      -1.738   2.300   0.752  0.00  0.00    -0.456 OA
BRANCH  14  15
ATOM     15  C   UNL     1      -1.672   3.594   1.162  0.00  0.00    +0.128 A 
ATOM     16  C   UNL     1      -0.587   4.032   1.908  0.00  0.00    +0.046 A 
ATOM     17  C   UNL     1      -0.520   5.350   2.319  0.00  0.00    +0.004 A 
ATOM     18  C   UNL     1      -1.538   6.228   1.996  0.00  0.00    +0.000 A 
ATOM     19  C   UNL     1      -2.623   5.792   1.257  0.00  0.00    +0.004 A 
ATOM     20  C   UNL     1      -2.692   4.478   0.840  0.00  0.00    +0.046 A 
ENDBRANCH  14  15
ENDBRANCH  12  14
ENDBRANCH   2   8
BRANCH   3  21
ATOM     21  C   UNL     1       3.967   1.961   0.174  0.00  0.00    +0.195 C 
ATOM     22  O   UNL     1       4.176   2.421   1.281  0.00  0.00    -0.287 OA
BRANCH  21  23
ATOM     23  C   UNL     1       4.004   2.841  -1.010  0.00  0.00    +0.023 A 
ATOM     24  C   UNL     1       3.862   2.303  -2.293  0.00  0.00    +0.015 A 
ATOM     25  C   UNL     1       3.906   3.123  -3.396  0.00  0.00    +0.046 A 
ATOM     26  C   UNL     1       4.082   4.500  -3.246  0.00  0.00    +0.124 A 
ATOM     27  C   UNL     1       4.216   5.031  -1.966  0.00  0.00    -0.002 A 
ATOM     28  C   UNL     1       4.181   4.220  -0.859  0.00  0.00    +0.019 A 
ATOM     29  C   UNL     1       4.379   6.531  -2.123  0.00  0.00    +0.083 C 
ATOM     30  C   UNL     1       3.912   6.751  -3.582  0.00  0.00    +0.175 C 
ATOM     31  O   UNL     1       4.160   5.473  -4.192  0.00  0.00    -0.488 OA
ATOM     32  C   UNL     1       2.422   7.094  -3.628  0.00  0.00    +0.052 C 
ENDBRANCH  21  23
ENDBRANCH   3  21
BRANCH   1  33
ATOM     33  C   UNL     1       1.576  -2.546  -0.771  0.00  0.00    +0.090 C 
BRANCH  33  34
ATOM     34  C   UNL     1       0.810  -2.966   0.485  0.00  0.00    -0.060 C 
BRANCH  34  35
ATOM     35  N   UNL     1      -0.191  -3.981   0.131  0.00  0.00    +0.380 N 
ATOM     36  H   UNL     1       0.320  -4.779  -0.428  0.00  0.00    -0.082 HD
BRANCH  35  38
ATOM     37  C   UNL     1       0.255  -5.473   2.021  0.00  0.00    -0.017 C 
ATOM     38  C   UNL     1      -0.781  -4.580   1.336  0.00  0.00    -0.082 C 
ENDBRANCH  35  38
BRANCH  35  39
ATOM     39  C   UNL     1      -1.231  -3.415  -0.739  0.00  0.00    -0.082 C 
ATOM     40  C   UNL     1      -2.059  -4.548  -1.347  0.00  0.00    -0.017 C 
ENDBRANCH  35  39
ENDBRANCH  34  35
ENDBRANCH  33  34
ENDBRANCH   1  33
TORSDOF 10
