REMARK  Name = ZINC13096353
REMARK  9 active torsions:
REMARK  status: ('A' for Active; 'I' for Inactive)
REMARK    1  A    between atoms: C_1  and  C_2
REMARK    2  A    between atoms: C_5  and  S_24
REMARK    3  A    between atoms: C_7  and  N_8
REMARK    4  A    between atoms: C_9  and  C_11
REMARK    5  A    between atoms: C_11  and  N_12
REMARK    6  A    between atoms: N_12  and  C_13
REMARK    7  A    between atoms: C_13  and  C_15
REMARK    8  A    between atoms: C_13  and  C_16
REMARK    9  A    between atoms: S_24  and  N_27
REMARK                            x       y       z     vdW  Elec       q    Type
REMARK                         _______ _______ _______ _____ _____    ______ ____
ROOT
ATOM      1  N   UNL     1       0.025  -0.015   2.417  0.00  0.00    -0.284 N 
ATOM      2  C   UNL     1      -0.631  -0.520   3.480  0.00  0.00    +0.231 C 
ATOM      3  O   UNL     1      -1.147  -1.616   3.409  0.00  0.00    -0.274 OA
ATOM      4  H   UNL     1       0.493   0.832   2.493  0.00  0.00    +0.155 HD
ENDROOT
BRANCH   1  11
ATOM      5  C   UNL     1      -0.008   1.492   0.004  0.00  0.00    +0.045 C 
ATOM      6  C   UNL     1       0.016  -0.014   0.002  0.00  0.00    -0.029 A 
ATOM      7  C   UNL     1       0.029  -0.704  -1.195  0.00  0.00    +0.007 A 
ATOM      8  C   UNL     1       0.051  -2.087  -1.197  0.00  0.00    +0.029 A 
ATOM      9  C   UNL     1       0.061  -2.783  -0.002  0.00  0.00    +0.107 A 
ATOM     10  C   UNL     1       0.049  -2.099   1.197  0.00  0.00    +0.052 A 
ATOM     11  C   UNL     1       0.032  -0.711   1.203  0.00  0.00    +0.038 A 
BRANCH   9  12
ATOM     12  S   UNL     1       0.089  -4.545  -0.011  0.00  0.00    +0.061 S 
ATOM     13  O   UNL     1      -0.456  -4.966   1.232  0.00  0.00    -0.153 OA
ATOM     14  O   UNL     1      -0.455  -4.954  -1.258  0.00  0.00    -0.153 OA
BRANCH  12  15
ATOM     15  N   UNL     1       1.679  -5.010  -0.012  0.00  0.00    -0.177 NA
ATOM     16  C   UNL     1       2.399  -5.208  -1.277  0.00  0.00    +0.109 C 
ATOM     17  C   UNL     1       3.679  -4.365  -1.253  0.00  0.00    +0.017 C 
ATOM     18  C   UNL     1       4.492  -4.716  -0.004  0.00  0.00    +0.003 C 
ATOM     19  C   UNL     1       3.674  -4.389   1.247  0.00  0.00    +0.017 C 
ATOM     20  C   UNL     1       2.397  -5.226   1.251  0.00  0.00    +0.109 C 
ENDBRANCH  12  15
ENDBRANCH   9  12
ENDBRANCH   1  11
BRANCH   2  21
ATOM     21  C   UNL     1      -0.725   0.276   4.756  0.00  0.00    +0.178 C 
BRANCH  21  22
ATOM     22  N   UNL     1      -1.484  -0.488   5.755  0.00  0.00    -0.302 NA
ATOM     23  H   UNL     1      -2.396  -0.739   5.402  0.00  0.00    +0.123 HD
BRANCH  22  24
ATOM     24  C   UNL     1      -1.596   0.259   7.015  0.00  0.00    +0.081 C 
ATOM     25  C   UNL     1      -0.350   0.009   7.868  0.00  0.00    +0.029 C 
BRANCH  24  26
ATOM     26  C   UNL     1      -2.819  -0.202   7.766  0.00  0.00    -0.028 A 
ATOM     27  C   UNL     1      -3.145  -1.545   7.797  0.00  0.00    +0.008 A 
ATOM     28  C   UNL     1      -4.266  -1.970   8.484  0.00  0.00    +0.041 A 
ATOM     29  C   UNL     1      -5.064  -1.050   9.143  0.00  0.00    +0.158 A 
ATOM     30  C   UNL     1      -4.736   0.297   9.112  0.00  0.00    +0.159 A 
ATOM     31  C   UNL     1      -3.610   0.718   8.427  0.00  0.00    +0.046 A 
ATOM     32  F   UNL     1      -5.514   1.196   9.754  0.00  0.00    -0.202 F 
ATOM     33  F   UNL     1      -6.160  -1.465   9.815  0.00  0.00    -0.202 F 
ENDBRANCH  24  26
ENDBRANCH  22  24
ENDBRANCH  21  22
ENDBRANCH   2  21
TORSDOF 7
