REMARK  Name = ZINC25190900
REMARK  9 active torsions:
REMARK  status: ('A' for Active; 'I' for Inactive)
REMARK    1  A    between atoms: C_1  and  C_2
REMARK    2  A    between atoms: C_8  and  N_10
REMARK    3  A    between atoms: C_14  and  C_16
REMARK    4  A    between atoms: C_16  and  N_17
REMARK    5  A    between atoms: N_17  and  C_18
REMARK    6  A    between atoms: N_17  and  C_29
REMARK    7  A    between atoms: C_18  and  C_19
REMARK    8  A    between atoms: C_22  and  C_25
REMARK    9  A    between atoms: N_27  and  C_28
REMARK                            x       y       z     vdW  Elec       q    Type
REMARK                         _______ _______ _______ _____ _____    ______ ____
ROOT
ATOM      1  N   UNL     1      -7.658   1.034  -3.230  0.00  0.00    +0.390 N 
ATOM      2  H   UNL     1      -7.819   1.670  -2.347  0.00  0.00    -0.080 HD
ENDROOT
BRANCH   1   3
ATOM      3  C   UNL     1      -8.401   1.622  -4.353  0.00  0.00    -0.068 C 
ATOM      4  C   UNL     1      -7.622   1.927  -5.633  0.00  0.00    -0.017 C 
ATOM      5  C   UNL     1      -8.083   3.071  -4.728  0.00  0.00    -0.017 C 
ENDBRANCH   1   3
BRANCH   1   6
ATOM      6  C   UNL     1      -6.216   1.007  -3.510  0.00  0.00    +0.020 C 
BRANCH   6  11
ATOM      7  N   UNL     1      -2.112   0.202  -1.139  0.00  0.00    -0.296 N 
ATOM      8  C   UNL     1      -3.448   0.378  -1.110  0.00  0.00    +0.306 C 
ATOM      9  O   UNL     1      -4.043   0.345  -0.051  0.00  0.00    -0.252 OA
ATOM     10  N   UNL     1      -4.124   0.592  -2.256  0.00  0.00    -0.242 N 
ATOM     11  C   UNL     1      -5.460   0.769  -2.228  0.00  0.00    +0.204 C 
ATOM     12  O   UNL     1      -6.054   0.735  -1.171  0.00  0.00    -0.277 OA
ATOM     13  H   UNL     1      -1.574   0.232  -2.097  0.00  0.00    +0.151 HD
ATOM     14  H   UNL     1      -3.586   0.622  -3.215  0.00  0.00    +0.159 HD
BRANCH   7  21
ATOM     15  C   UNL     1       0.119   1.901  -0.415  0.00  0.00    +0.009 C 
ATOM     16  C   UNL     1       0.077   0.411  -0.068  0.00  0.00    +0.006 C 
ATOM     17  C   UNL     1       0.844   0.169   1.233  0.00  0.00    +0.005 C 
ATOM     18  C   UNL     1       0.802  -1.320   1.580  0.00  0.00    +0.000 C 
ATOM     19  C   UNL     1      -0.652  -1.762   1.756  0.00  0.00    +0.002 C 
ATOM     20  C   UNL     1      -1.420  -1.520   0.455  0.00  0.00    +0.022 C 
ATOM     21  C   UNL     1      -1.378  -0.030   0.107  0.00  0.00    +0.077 C 
ENDBRANCH   7  21
ENDBRANCH   6  11
ENDBRANCH   1   6
BRANCH   1  22
ATOM     22  C   UNL     1      -8.158  -0.311  -2.915  0.00  0.00    -0.042 C 
BRANCH  22  23
ATOM     23  C   UNL     1      -9.570  -0.214  -2.398  0.00  0.00    -0.064 A 
ATOM     24  C   UNL     1      -9.798  -0.068  -1.042  0.00  0.00    +0.002 A 
ATOM     25  C   UNL     1     -11.089   0.028  -0.562  0.00  0.00    +0.013 A 
ATOM     26  C   UNL     1     -12.165  -0.035  -1.448  0.00  0.00    +0.037 A 
ATOM     27  C   UNL     1     -11.928  -0.188  -2.815  0.00  0.00    +0.013 A 
ATOM     28  C   UNL     1     -10.633  -0.277  -3.282  0.00  0.00    +0.002 A 
BRANCH  26  29
ATOM     29  C   UNL     1     -13.551   0.060  -0.941  0.00  0.00    +0.244 C 
ATOM     30  O   UNL     1     -14.486   0.005  -1.715  0.00  0.00    -0.270 OA
ATOM     31  N   UNL     1     -13.776   0.208   0.379  0.00  0.00    -0.314 N 
ATOM     32  C   UNL     1     -15.149   0.302   0.882  0.00  0.00    +0.128 C 
ATOM     33  H   UNL     1     -12.930   0.258   1.079  0.00  0.00    +0.149 HD
ENDBRANCH  26  29
ENDBRANCH  22  23
ENDBRANCH   1  22
TORSDOF 7
