REMARK  Name = ZINC02969477
REMARK  10 active torsions:
REMARK  status: ('A' for Active; 'I' for Inactive)
REMARK    1  A    between atoms: C_1  and  C_2
REMARK    2  A    between atoms: C_5  and  N_9
REMARK    3  A    between atoms: C_6  and  C_8
REMARK    4  A    between atoms: C_10  and  C_12
REMARK    5  A    between atoms: C_12  and  S_13
REMARK    6  A    between atoms: S_13  and  C_14
REMARK    7  A    between atoms: C_25  and  C_27
REMARK    8  A    between atoms: C_27  and  C_28
REMARK    9  A    between atoms: C_28  and  N_29
REMARK   10  A    between atoms: C_30  and  C_38
REMARK                            x       y       z     vdW  Elec       q    Type
REMARK                         _______ _______ _______ _____ _____    ______ ____
ROOT
ATOM      1  C   UNL     1       0.158   0.934   2.735  0.00  0.00    +0.192 A 
ATOM      2  N   UNL     1       1.184   0.216   2.358  0.00  0.00    -0.222 NA
ATOM      3  C   UNL     1       2.021  -0.365   3.251  0.00  0.00    +0.077 A 
ATOM      4  C   UNL     1       3.117  -1.126   2.836  0.00  0.00    +0.028 A 
ATOM      5  C   UNL     1       3.937  -1.701   3.765  0.00  0.00    +0.002 A 
ATOM      6  C   UNL     1       3.699  -1.542   5.123  0.00  0.00    +0.001 A 
ATOM      7  C   UNL     1       2.626  -0.798   5.564  0.00  0.00    +0.014 A 
ATOM      8  C   UNL     1       1.777  -0.203   4.634  0.00  0.00    +0.045 A 
ATOM      9  C   UNL     1       0.619   0.601   5.039  0.00  0.00    +0.168 A 
ATOM     10  N   UNL     1      -0.156   1.145   4.051  0.00  0.00    -0.188 N 
ATOM     11  N   UNL     1      -1.174   1.851   4.704  0.00  0.00    -0.148 NA
ATOM     12  C   UNL     1      -0.978   1.708   5.991  0.00  0.00    +0.154 A 
ATOM     13  N   UNL     1       0.100   0.957   6.196  0.00  0.00    -0.211 NA
ENDROOT
BRANCH   1  14
ATOM     14  S   UNL     1      -0.869   1.655   1.497  0.00  0.00    -0.077 S 
BRANCH  14  15
ATOM     15  C   UNL     1      -0.021   1.073   0.008  0.00  0.00    +0.173 C 
BRANCH  15  17
ATOM     16  N   UNL     1      -0.288   1.272  -2.443  0.00  0.00    -0.285 N 
ATOM     17  C   UNL     1      -0.743   1.582  -1.213  0.00  0.00    +0.227 C 
ATOM     18  O   UNL     1      -1.734   2.271  -1.088  0.00  0.00    -0.275 OA
ATOM     19  H   UNL     1       0.547   0.790  -2.544  0.00  0.00    +0.155 HD
BRANCH  16  24
ATOM     20  C   UNL     1      -3.261   2.789  -7.031  0.00  0.00    +0.044 C 
ATOM     21  C   UNL     1      -2.471   2.386  -5.812  0.00  0.00    -0.050 A 
ATOM     22  C   UNL     1      -3.112   2.222  -4.598  0.00  0.00    +0.005 A 
ATOM     23  C   UNL     1      -2.392   1.853  -3.479  0.00  0.00    +0.024 A 
ATOM     24  C   UNL     1      -1.022   1.646  -3.575  0.00  0.00    +0.036 A 
ATOM     25  C   UNL     1      -0.380   1.818  -4.794  0.00  0.00    -0.029 A 
ATOM     26  C   UNL     1      -1.107   2.182  -5.910  0.00  0.00    +0.008 A 
ATOM     27  C   UNL     1       1.108   1.602  -4.900  0.00  0.00    +0.045 C 
ENDBRANCH  16  24
ENDBRANCH  15  17
ENDBRANCH  14  15
ENDBRANCH   1  14
BRANCH  12  28
ATOM     28  C   UNL     1      -1.841   2.303   7.074  0.00  0.00    +0.099 C 
BRANCH  28  29
ATOM     29  C   UNL     1      -1.309   3.688   7.447  0.00  0.00    +0.131 C 
BRANCH  29  30
ATOM     30  N   UNL     1      -2.148   4.266   8.499  0.00  0.00    -0.327 N 
ATOM     31  C   UNL     1      -3.250   5.042   8.317  0.00  0.00    +0.108 A 
ATOM     32  N   UNL     1      -3.755   5.380   9.467  0.00  0.00    -0.233 NA
ATOM     33  C   UNL     1      -3.005   4.852  10.468  0.00  0.00    +0.089 A 
ATOM     34  C   UNL     1      -1.963   4.130   9.861  0.00  0.00    +0.069 A 
ATOM     35  C   UNL     1      -1.027   3.474  10.648  0.00  0.00    +0.028 A 
ATOM     36  C   UNL     1      -1.127   3.536  12.022  0.00  0.00    +0.002 A 
ATOM     37  C   UNL     1      -2.155   4.248  12.621  0.00  0.00    +0.002 A 
ATOM     38  C   UNL     1      -3.086   4.901  11.862  0.00  0.00    +0.030 A 
ATOM     39  C   UNL     1      -3.808   5.447   6.977  0.00  0.00    +0.086 C 
ENDBRANCH  29  30
ENDBRANCH  28  29
ENDBRANCH  12  28
TORSDOF 7
