REMARK  Name = ZINC34799617
REMARK  14 active torsions:
REMARK  status: ('A' for Active; 'I' for Inactive)
REMARK    1  A    between atoms: C_1  and  C_2
REMARK    2  A    between atoms: C_2  and  O_4
REMARK    3  A    between atoms: O_4  and  C_5
REMARK    4  A    between atoms: C_5  and  C_6
REMARK    5  A    between atoms: C_6  and  C_8
REMARK    6  A    between atoms: C_6  and  O_36
REMARK    7  A    between atoms: C_8  and  O_35
REMARK    8  A    between atoms: C_13  and  C_34
REMARK    9  A    between atoms: C_23  and  C_33
REMARK   10  A    between atoms: C_26  and  O_29
REMARK   11  A    between atoms: O_29  and  C_30
REMARK   12  A    between atoms: C_30  and  C_32
REMARK   13  A    between atoms: O_36  and  C_37
REMARK   14  A    between atoms: C_37  and  C_39
REMARK                            x       y       z     vdW  Elec       q    Type
REMARK                         _______ _______ _______ _____ _____    ______ ____
ROOT
ATOM      1  C   UNL     1      -0.162  -4.159  -2.467  0.00  0.00    +0.112 C 
ATOM      2  C   UNL     1       0.994  -4.713  -1.593  0.00  0.00    +0.039 C 
ATOM      3  C   UNL     1       1.908  -5.535  -2.544  0.00  0.00    +0.007 C 
ATOM      4  C   UNL     1       1.562  -4.938  -3.918  0.00  0.00    +0.002 C 
ATOM      5  C   UNL     1       0.023  -4.850  -3.831  0.00  0.00    +0.003 C 
ATOM      6  C   UNL     1      -0.520  -4.135  -5.036  0.00  0.00    +0.010 C 
ATOM      7  C   UNL     1       0.075  -4.685  -6.341  0.00  0.00    +0.005 C 
ATOM      8  C   UNL     1       0.932  -5.921  -6.148  0.00  0.00    +0.003 C 
ATOM      9  C   UNL     1       2.040  -5.694  -5.118  0.00  0.00    +0.000 C 
ATOM     10  C   UNL     1       2.618  -7.070  -4.759  0.00  0.00    +0.031 C 
ATOM     11  C   UNL     1       3.118  -7.697  -6.033  0.00  0.00    -0.027 C 
ATOM     12  C   UNL     1       2.678  -7.372  -7.208  0.00  0.00    -0.064 C 
ATOM     13  C   UNL     1       1.577  -6.370  -7.459  0.00  0.00    -0.008 C 
ATOM     14  C   UNL     1       2.157  -5.209  -8.255  0.00  0.00    +0.015 C 
ATOM     15  C   UNL     1       3.575  -5.546  -8.718  0.00  0.00    +0.046 C 
ATOM     16  C   UNL     1       3.647  -6.899  -9.416  0.00  0.00    +0.180 C 
ATOM     17  C   UNL     1       3.283  -8.025  -8.440  0.00  0.00    +0.075 C 
ATOM     18  C   UNL     1       0.488  -7.046  -8.298  0.00  0.00    +0.016 C 
ATOM     19  C   UNL     1      -0.633  -6.230  -3.682  0.00  0.00    +0.014 C 
ENDROOT
BRANCH   1  20
ATOM     20  O   UNL     1      -1.420  -4.543  -1.908  0.00  0.00    -0.384 OA
ATOM     21  H   UNL     1      -1.582  -4.188  -1.023  0.00  0.00    +0.210 HD
ENDBRANCH   1  20
BRANCH   1  22
ATOM     22  C   UNL     1      -0.062  -2.643  -2.569  0.00  0.00    +0.246 C 
BRANCH  22  23
ATOM     23  C   UNL     1      -0.131  -2.032  -1.168  0.00  0.00    +0.279 C 
BRANCH  23  24
ATOM     24  O   UNL     1      -0.154  -0.607  -1.270  0.00  0.00    -0.461 OA
BRANCH  24  26
ATOM     25  C   UNL     1      -0.242   1.592  -0.150  0.00  0.00    +0.136 C 
ATOM     26  C   UNL     1      -0.214   0.086  -0.121  0.00  0.00    +0.304 C 
ATOM     27  O   UNL     1      -0.246  -0.499   0.935  0.00  0.00    -0.251 OA
ENDBRANCH  24  26
ENDBRANCH  23  24
ENDBRANCH  22  23
BRANCH  22  28
ATOM     28  O   UNL     1       1.178  -2.287  -3.183  0.00  0.00    -0.455 OA
BRANCH  28  29
ATOM     29  C   UNL     1       1.200  -1.152  -3.899  0.00  0.00    +0.304 C 
ATOM     30  O   UNL     1       0.200  -0.482  -4.000  0.00  0.00    -0.251 OA
ATOM     31  C   UNL     1       2.473  -0.713  -4.576  0.00  0.00    +0.136 C 
ENDBRANCH  28  29
ENDBRANCH  22  28
ENDBRANCH   1  22
BRANCH  16  32
ATOM     32  O   UNL     1       2.757  -6.918 -10.533  0.00  0.00    -0.461 OA
BRANCH  32  33
ATOM     33  C   UNL     1       3.101  -7.693 -11.573  0.00  0.00    +0.304 C 
ATOM     34  O   UNL     1       4.124  -8.335 -11.536  0.00  0.00    -0.251 OA
ATOM     35  C   UNL     1       2.212  -7.764 -12.787  0.00  0.00    +0.136 C 
ENDBRANCH  32  33
ENDBRANCH  16  32
TORSDOF 9
