REMARK  Name = ZINC50986104
REMARK  4 active torsions:
REMARK  status: ('A' for Active; 'I' for Inactive)
REMARK    1  A    between atoms: C_1  and  C_2
REMARK    2  A    between atoms: C_4  and  C_9
REMARK    3  A    between atoms: N_6  and  C_7
REMARK    4  A    between atoms: C_14  and  C_15
REMARK                            x       y       z     vdW  Elec       q    Type
REMARK                         _______ _______ _______ _____ _____    ______ ____
ROOT
ATOM      1  C   UNL     1      -0.702   2.159  -0.048  0.00  0.00    +0.081 C 
ATOM      2  C   UNL     1      -1.355   2.285  -1.400  0.00  0.00    +0.073 C 
ATOM      3  N   UNL     1      -1.594   1.280  -2.165  0.00  0.00    -0.363 N 
ATOM      4  C   UNL     1      -2.234   1.779  -3.393  0.00  0.00    +0.173 C 
ATOM      5  C   UNL     1      -2.313   3.278  -3.177  0.00  0.00    +0.100 C 
ATOM      6  N   UNL     1      -1.757   3.478  -1.932  0.00  0.00    -0.282 N 
ATOM      7  C   UNL     1      -1.613   4.780  -1.276  0.00  0.00    +0.138 C 
ATOM      8  N   UNL     1      -2.798   4.168  -3.978  0.00  0.00    -0.388 N 
ATOM      9  H   UNL     1      -3.236   3.894  -4.800  0.00  0.00    +0.157 HD
ATOM     10  H   UNL     1      -2.725   5.110  -3.759  0.00  0.00    +0.157 HD
ATOM     11  H   UNL     1      -1.389   0.353  -1.968  0.00  0.00    +0.162 HD
ENDROOT
BRANCH   4  12
ATOM     12  C   UNL     1      -1.385   1.462  -4.597  0.00  0.00    -0.007 A 
ATOM     13  C   UNL     1      -0.594   2.445  -5.163  0.00  0.00    +0.006 A 
ATOM     14  C   UNL     1       0.184   2.154  -6.268  0.00  0.00    +0.000 A 
ATOM     15  C   UNL     1       0.171   0.881  -6.807  0.00  0.00    +0.001 A 
ATOM     16  C   UNL     1      -0.620  -0.101  -6.241  0.00  0.00    +0.013 A 
ATOM     17  C   UNL     1      -1.395   0.188  -5.133  0.00  0.00    +0.060 A 
BRANCH  17  18
ATOM     18  C   UNL     1      -2.253  -0.884  -4.513  0.00  0.00    +0.418 C 
ATOM     19  F   UNL     1      -2.192  -2.041  -5.297  0.00  0.00    -0.166 F 
ATOM     20  F   UNL     1      -1.786  -1.168  -3.225  0.00  0.00    -0.166 F 
ATOM     21  F   UNL     1      -3.577  -0.438  -4.441  0.00  0.00    -0.166 F 
ENDBRANCH  17  18
ENDBRANCH   4  12
TORSDOF 2
