REMARK  Name = ZINC39533953
REMARK  10 active torsions:
REMARK  status: ('A' for Active; 'I' for Inactive)
REMARK    1  A    between atoms: C_4  and  C_7
REMARK    2  A    between atoms: C_7  and  C_8
REMARK    3  A    between atoms: N_11  and  C_15
REMARK    4  A    between atoms: C_15  and  C_17
REMARK    5  A    between atoms: C_15  and  C_28
REMARK    6  A    between atoms: C_17  and  N_18
REMARK    7  A    between atoms: N_18  and  S_19
REMARK    8  A    between atoms: S_19  and  C_22
REMARK    9  A    between atoms: C_31  and  C_34
REMARK   10  A    between atoms: C_39  and  O_40
REMARK                            x       y       z     vdW  Elec       q    Type
REMARK                         _______ _______ _______ _____ _____    ______ ____
ROOT
ATOM      1  C   UNL     1       7.354  -2.419   2.793  0.00  0.00    +0.102 C 
ENDROOT
BRANCH   1   4
ATOM      2  C   UNL     1       3.797  -1.387   2.107  0.00  0.00    -0.053 C 
ATOM      3  C   UNL     1       5.202  -1.910   1.804  0.00  0.00    +0.069 C 
ATOM      4  N   UNL     1       5.978  -1.973   3.051  0.00  0.00    -0.297 NA
ATOM      5  C   UNL     1       5.317  -2.845   4.033  0.00  0.00    +0.066 C 
ATOM      6  C   UNL     1       3.911  -2.313   4.318  0.00  0.00    -0.067 C 
ATOM      7  N   UNL     1       3.138  -2.280   3.069  0.00  0.00    +0.383 N 
ATOM      8  H   UNL     1       2.207  -1.941   3.259  0.00  0.00    -0.085 HD
ATOM      9  H   UNL     1       3.084  -3.210   2.682  0.00  0.00    -0.085 HD
BRANCH   2  10
ATOM     10  C   UNL     1       2.980  -1.339   0.814  0.00  0.00    +0.020 C 
BRANCH  10  14
ATOM     11  C   UNL     1      -0.822   0.447   1.592  0.00  0.00    +0.000 A 
ATOM     12  C   UNL     1       0.250   1.237   1.219  0.00  0.00    +0.000 A 
ATOM     13  C   UNL     1       1.480   0.659   0.967  0.00  0.00    +0.003 A 
ATOM     14  C   UNL     1       1.639  -0.709   1.089  0.00  0.00    -0.049 A 
ATOM     15  C   UNL     1       0.568  -1.499   1.463  0.00  0.00    +0.003 A 
ATOM     16  C   UNL     1      -0.662  -0.921   1.713  0.00  0.00    +0.000 A 
ENDBRANCH  10  14
ENDBRANCH   2  10
ENDBRANCH   1   4
BRANCH   1  17
ATOM     17  C   UNL     1       7.332  -3.821   2.241  0.00  0.00    -0.029 A 
ATOM     18  C   UNL     1       7.631  -4.042   0.909  0.00  0.00    +0.006 A 
ATOM     19  C   UNL     1       7.613  -5.324   0.399  0.00  0.00    +0.009 A 
ATOM     20  C   UNL     1       7.293  -6.397   1.228  0.00  0.00    -0.014 A 
ATOM     21  C   UNL     1       6.993  -6.169   2.570  0.00  0.00    +0.009 A 
ATOM     22  C   UNL     1       7.019  -4.883   3.071  0.00  0.00    +0.006 A 
BRANCH  20  23
ATOM     23  C   UNL     1       7.271  -7.777   0.685  0.00  0.00    +0.024 A 
ATOM     24  C   UNL     1       6.573  -8.057  -0.488  0.00  0.00    +0.012 A 
ATOM     25  C   UNL     1       6.556  -9.343  -0.989  0.00  0.00    +0.001 A 
ATOM     26  C   UNL     1       7.230 -10.356  -0.331  0.00  0.00    +0.004 A 
ATOM     27  C   UNL     1       7.925 -10.090   0.833  0.00  0.00    +0.046 A 
ATOM     28  C   UNL     1       7.956  -8.802   1.345  0.00  0.00    +0.125 A 
BRANCH  28  29
ATOM     29  O   UNL     1       8.644  -8.538   2.486  0.00  0.00    -0.506 OA
ATOM     30  H   UNL     1       8.121  -8.638   3.292  0.00  0.00    +0.292 HD
ENDBRANCH  28  29
ENDBRANCH  20  23
ENDBRANCH   1  17
BRANCH   1  31
ATOM     31  C   UNL     1       8.150  -2.397   4.099  0.00  0.00    +0.129 C 
BRANCH  31  32
ATOM     32  N   UNL     1       8.071  -1.061   4.697  0.00  0.00    -0.188 NA
ATOM     33  H   UNL     1       7.759  -0.311   4.167  0.00  0.00    +0.148 HD
BRANCH  32  34
ATOM     34  S   UNL     1       8.513  -0.833   6.276  0.00  0.00    +0.058 S 
ATOM     35  O   UNL     1       8.352   0.552   6.547  0.00  0.00    -0.153 OA
ATOM     36  O   UNL     1       7.853  -1.839   7.032  0.00  0.00    -0.153 OA
BRANCH  34  37
ATOM     37  C   UNL     1      10.239  -1.171   6.387  0.00  0.00    +0.105 A 
ATOM     38  C   UNL     1      10.677  -2.454   6.659  0.00  0.00    +0.028 A 
ATOM     39  C   UNL     1      12.030  -2.719   6.746  0.00  0.00    +0.002 A 
ATOM     40  C   UNL     1      12.947  -1.700   6.561  0.00  0.00    +0.000 A 
ATOM     41  C   UNL     1      12.510  -0.417   6.289  0.00  0.00    +0.002 A 
ATOM     42  C   UNL     1      11.156  -0.154   6.198  0.00  0.00    +0.028 A 
ENDBRANCH  34  37
ENDBRANCH  32  34
ENDBRANCH  31  32
ENDBRANCH   1  31
TORSDOF 10
