REMARK  Name = ZINC09325596
REMARK  14 active torsions:
REMARK  status: ('A' for Active; 'I' for Inactive)
REMARK    1  A    between atoms: C_1  and  C_2
REMARK    2  A    between atoms: C_2  and  C_3
REMARK    3  A    between atoms: C_3  and  C_4
REMARK    4  A    between atoms: C_4  and  C_5
REMARK    5  A    between atoms: C_5  and  O_6
REMARK    6  A    between atoms: O_6  and  C_7
REMARK    7  A    between atoms: C_11  and  C_13
REMARK    8  A    between atoms: N_15  and  C_16
REMARK    9  A    between atoms: C_17  and  C_29
REMARK   10  A    between atoms: C_25  and  O_27
REMARK   11  A    between atoms: O_27  and  C_28
REMARK   12  A    between atoms: C_32  and  O_34
REMARK   13  A    between atoms: O_34  and  C_35
REMARK   14  A    between atoms: C_35  and  C_36
REMARK                            x       y       z     vdW  Elec       q    Type
REMARK                         _______ _______ _______ _____ _____    ______ ____
ROOT
ATOM      1  C   UNL     1       1.081   7.397   0.028  0.00  0.00    +0.085 A 
ATOM      2  C   UNL     1       2.160   8.272   0.022  0.00  0.00    +0.069 A 
ATOM      3  C   UNL     1       1.871   9.697   0.032  0.00  0.00    -0.020 A 
ATOM      4  C   UNL     1       0.558  10.014   0.043  0.00  0.00    +0.013 A 
ATOM      5  S   UNL     1      -0.288   8.460   0.039  0.00  0.00    -0.076 S 
ATOM      6  C   UNL     1      -0.034  11.392   0.050  0.00  0.00    +0.153 C 
ATOM      7  N   UNL     1       1.074  12.340   0.281  0.00  0.00    -0.262 N 
ATOM      8  C   UNL     1       2.336  12.097  -0.434  0.00  0.00    +0.116 C 
ATOM      9  C   UNL     1       2.946  10.776   0.037  0.00  0.00    +0.056 C 
ATOM     10  C   UNL     1       0.934  13.388   1.117  0.00  0.00    +0.403 C 
ATOM     11  O   UNL     1       1.861  14.155   1.290  0.00  0.00    -0.226 OA
ENDROOT
BRANCH   2  12
ATOM     12  C   UNL     1       3.538   7.777   0.004  0.00  0.00    +0.255 C 
ATOM     13  O   UNL     1       4.100   7.577  -1.056  0.00  0.00    -0.270 OA
ATOM     14  N   UNL     1       4.185   7.543   1.164  0.00  0.00    -0.217 N 
ATOM     15  C   UNL     1       5.454   7.088   1.148  0.00  0.00    +0.407 C 
ATOM     16  O   UNL     1       6.014   6.888   0.089  0.00  0.00    -0.226 OA
ATOM     17  H   UNL     1       3.738   7.703   2.009  0.00  0.00    +0.161 HD
BRANCH  15  18
ATOM     18  O   UNL     1       6.099   6.855   2.305  0.00  0.00    -0.450 OA
BRANCH  18  19
ATOM     19  C   UNL     1       7.463   6.365   2.212  0.00  0.00    +0.230 C 
ATOM     20  C   UNL     1       8.029   6.160   3.619  0.00  0.00    +0.048 C 
ENDBRANCH  18  19
ENDBRANCH  15  18
ENDBRANCH   2  12
BRANCH   1  23
ATOM     21  C   UNL     1      -0.064   5.326   0.030  0.00  0.00    +0.249 C 
ATOM     22  O   UNL     1      -1.123   5.923   0.043  0.00  0.00    -0.270 OA
ATOM     23  N   UNL     1       1.096   6.013   0.022  0.00  0.00    -0.275 N 
ATOM     24  H   UNL     1       1.941   5.536   0.011  0.00  0.00    +0.156 HD
BRANCH  21  29
ATOM     25  C   UNL     1      -1.226   1.751   0.017  0.00  0.00    +0.121 A 
ATOM     26  C   UNL     1      -0.013   1.076   0.008  0.00  0.00    +0.046 A 
ATOM     27  C   UNL     1       1.177   1.781   0.000  0.00  0.00    +0.004 A 
ATOM     28  C   UNL     1       1.166   3.161   0.007  0.00  0.00    +0.013 A 
ATOM     29  C   UNL     1      -0.049   3.848   0.023  0.00  0.00    +0.040 A 
ATOM     30  C   UNL     1      -1.248   3.135   0.031  0.00  0.00    +0.058 A 
BRANCH  25  31
ATOM     31  O   UNL     1      -2.392   1.053   0.019  0.00  0.00    -0.492 OA
BRANCH  31  32
ATOM     32  C   UNL     1      -2.294  -0.373   0.010  0.00  0.00    +0.229 C 
BRANCH  32  33
ATOM     33  C   UNL     1      -3.699  -0.980   0.013  0.00  0.00    +0.041 C 
BRANCH  33  34
ATOM     34  C   UNL     1      -3.594  -2.507   0.004  0.00  0.00    +0.003 C 
BRANCH  34  36
ATOM     35  C   UNL     1      -4.894  -4.640  -0.003  0.00  0.00    +0.004 C 
ATOM     36  C   UNL     1      -4.998  -3.114   0.007  0.00  0.00    -0.003 C 
ENDBRANCH  34  36
ENDBRANCH  33  34
ENDBRANCH  32  33
ENDBRANCH  31  32
ENDBRANCH  25  31
ENDBRANCH  21  29
ENDBRANCH   1  23
BRANCH  10  37
ATOM     37  O   UNL     1      -0.232  13.586   1.759  0.00  0.00    -0.454 OA
ATOM     38  C   UNL     1      -0.311  14.735   2.643  0.00  0.00    +0.282 C 
ENDBRANCH  10  37
TORSDOF 11
