REMARK  Name = ZINC27667421
REMARK  12 active torsions:
REMARK  status: ('A' for Active; 'I' for Inactive)
REMARK    1  A    between atoms: C_1  and  C_2
REMARK    2  A    between atoms: C_2  and  C_30
REMARK    3  A    between atoms: N_5  and  C_9
REMARK    4  A    between atoms: C_9  and  C_10
REMARK    5  A    between atoms: N_12  and  C_13
REMARK    6  A    between atoms: C_13  and  C_14
REMARK    7  A    between atoms: C_14  and  C_16
REMARK    8  A    between atoms: C_14  and  N_24
REMARK    9  A    between atoms: C_19  and  O_22
REMARK   10  A    between atoms: O_22  and  C_23
REMARK   11  A    between atoms: C_33  and  O_36
REMARK   12  A    between atoms: O_36  and  C_37
REMARK                            x       y       z     vdW  Elec       q    Type
REMARK                         _______ _______ _______ _____ _____    ______ ____
ROOT
ATOM      1  C   UNL     1      -0.775   2.096  -3.658  0.00  0.00    +0.231 C 
ATOM      2  O   UNL     1      -1.648   2.938  -3.675  0.00  0.00    -0.274 OA
ATOM      3  N   UNL     1      -0.262   1.682  -2.483  0.00  0.00    -0.315 N 
ATOM      4  H   UNL     1       0.530   0.918  -2.467  0.00  0.00    +0.149 HD
ENDROOT
BRANCH   1   5
ATOM      5  C   UNL     1      -0.265   1.513  -4.950  0.00  0.00    +0.213 C 
BRANCH   5  10
ATOM      6  C   UNL     1      -0.956   3.440  -9.180  0.00  0.00    +0.047 C 
ATOM      7  C   UNL     1      -1.604   3.492  -7.795  0.00  0.00    +0.135 C 
ATOM      8  C   UNL     1      -0.572   3.239  -6.713  0.00  0.00    +0.251 C 
ATOM      9  O   UNL     1       0.414   3.903  -6.472  0.00  0.00    -0.272 OA
ATOM     10  N   UNL     1      -0.977   2.123  -6.076  0.00  0.00    -0.215 N 
ATOM     11  C   UNL     1      -2.108   1.638  -6.602  0.00  0.00    +0.310 C 
ATOM     12  O   UNL     1      -2.665   0.636  -6.198  0.00  0.00    -0.252 OA
ATOM     13  N   UNL     1      -2.561   2.385  -7.625  0.00  0.00    -0.281 N 
ATOM     14  H   UNL     1      -3.438   2.310  -8.285  0.00  0.00    +0.152 HD
BRANCH   7  15
ATOM     15  C   UNL     1      -2.284   4.819  -7.578  0.00  0.00    -0.015 A 
ATOM     16  C   UNL     1      -1.601   5.852  -6.963  0.00  0.00    +0.010 A 
ATOM     17  C   UNL     1      -2.221   7.072  -6.769  0.00  0.00    +0.046 A 
ATOM     18  C   UNL     1      -3.533   7.256  -7.182  0.00  0.00    +0.120 A 
ATOM     19  C   UNL     1      -4.217   6.215  -7.793  0.00  0.00    +0.046 A 
ATOM     20  C   UNL     1      -3.591   5.000  -7.990  0.00  0.00    +0.010 A 
BRANCH  18  21
ATOM     21  O   UNL     1      -4.146   8.453  -6.987  0.00  0.00    -0.495 OA
ATOM     22  C   UNL     1      -3.380   9.478  -6.351  0.00  0.00    +0.277 C 
ENDBRANCH  18  21
ENDBRANCH   7  15
ENDBRANCH   5  10
ENDBRANCH   1   5
BRANCH   3  23
ATOM     23  C   UNL     1      -0.758   2.249  -1.226  0.00  0.00    +0.093 C 
BRANCH  23  24
ATOM     24  C   UNL     1      -0.143   1.492  -0.047  0.00  0.00    -0.020 C 
BRANCH  24  25
ATOM     25  N   UNL     1      -0.597   0.095  -0.072  0.00  0.00    +0.385 N 
ATOM     26  C   UNL     1       0.348  -0.752  -0.811  0.00  0.00    -0.078 C 
ATOM     27  C   UNL     1      -0.078  -2.217  -0.693  0.00  0.00    -0.019 C 
ATOM     28  C   UNL     1      -1.490  -2.380  -1.262  0.00  0.00    -0.004 C 
ATOM     29  C   UNL     1      -2.446  -1.452  -0.507  0.00  0.00    -0.019 C 
ATOM     30  C   UNL     1      -1.951  -0.009  -0.631  0.00  0.00    -0.078 C 
ATOM     31  H   UNL     1      -0.633  -0.269   0.965  0.00  0.00    -0.081 HD
ENDBRANCH  24  25
BRANCH  24  32
ATOM     32  C   UNL     1      -0.575   2.137   1.244  0.00  0.00    -0.059 A 
ATOM     33  C   UNL     1      -1.677   1.652   1.923  0.00  0.00    +0.005 A 
ATOM     34  C   UNL     1      -2.071   2.238   3.111  0.00  0.00    +0.046 A 
ATOM     35  C   UNL     1      -1.367   3.322   3.615  0.00  0.00    +0.120 A 
ATOM     36  C   UNL     1      -0.265   3.810   2.929  0.00  0.00    +0.046 A 
ATOM     37  C   UNL     1       0.129   3.217   1.745  0.00  0.00    +0.005 A 
BRANCH  35  38
ATOM     38  O   UNL     1      -1.757   3.904   4.779  0.00  0.00    -0.495 OA
ATOM     39  C   UNL     1      -2.901   3.349   5.432  0.00  0.00    +0.277 C 
ENDBRANCH  35  38
ENDBRANCH  24  32
ENDBRANCH  23  24
ENDBRANCH   3  23
TORSDOF 9
