REMARK  Name = ZINC49002776
REMARK  11 active torsions:
REMARK  status: ('A' for Active; 'I' for Inactive)
REMARK    1  A    between atoms: C_1  and  C_2
REMARK    2  A    between atoms: C_2  and  O_3
REMARK    3  A    between atoms: O_3  and  C_4
REMARK    4  A    between atoms: C_7  and  C_12
REMARK    5  A    between atoms: C_9  and  O_10
REMARK    6  A    between atoms: O_10  and  C_11
REMARK    7  A    between atoms: C_14  and  C_17
REMARK    8  A    between atoms: C_17  and  N_18
REMARK    9  A    between atoms: N_25  and  C_28
REMARK   10  A    between atoms: C_32  and  S_34
REMARK   11  A    between atoms: S_34  and  C_35
REMARK                            x       y       z     vdW  Elec       q    Type
REMARK                         _______ _______ _______ _____ _____    ______ ____
ROOT
ATOM      1  N   UNL     1      -0.194  -9.722   1.572  0.00  0.00    -0.214 N 
ATOM      2  C   UNL     1      -1.205 -10.626   2.148  0.00  0.00    +0.216 C 
ATOM      3  C   UNL     1      -0.584 -10.976   3.527  0.00  0.00    +0.246 C 
ATOM      4  C   UNL     1      -1.546 -10.350   4.512  0.00  0.00    +0.255 C 
ATOM      5  O   UNL     1      -1.439 -10.390   5.719  0.00  0.00    -0.272 OA
ATOM      6  N   UNL     1      -2.534  -9.744   3.843  0.00  0.00    -0.207 N 
ATOM      7  C   UNL     1      -2.449  -9.839   2.492  0.00  0.00    +0.251 C 
ATOM      8  O   UNL     1      -3.228  -9.374   1.688  0.00  0.00    -0.273 OA
ATOM      9  N   UNL     1       0.691 -10.249   3.530  0.00  0.00    -0.156 NA
ATOM     10  N   UNL     1       0.843  -9.604   2.498  0.00  0.00    -0.082 NA
ENDROOT
BRANCH   6  11
ATOM     11  C   UNL     1      -3.582  -9.069   4.485  0.00  0.00    +0.045 A 
ATOM     12  C   UNL     1      -3.326  -7.899   5.190  0.00  0.00    +0.024 A 
ATOM     13  C   UNL     1      -4.358  -7.233   5.824  0.00  0.00    +0.003 A 
ATOM     14  C   UNL     1      -5.646  -7.727   5.758  0.00  0.00    +0.015 A 
ATOM     15  C   UNL     1      -5.909  -8.897   5.055  0.00  0.00    +0.009 A 
ATOM     16  C   UNL     1      -4.874  -9.565   4.413  0.00  0.00    +0.038 A 
BRANCH  15  17
ATOM     17  S   UNL     1      -7.552  -9.527   4.972  0.00  0.00    -0.129 S 
ATOM     18  C   UNL     1      -8.527  -8.337   5.933  0.00  0.00    +0.090 C 
ENDBRANCH  15  17
ENDBRANCH   6  11
BRANCH   1  19
ATOM     19  C   UNL     1      -0.262  -9.069   0.262  0.00  0.00    +0.227 C 
BRANCH  19  22
ATOM     20  C   UNL     1      -1.249  -5.605   0.709  0.00  0.00    +0.202 A 
ATOM     21  N   UNL     1      -0.344  -6.599   0.650  0.00  0.00    -0.190 NA
ATOM     22  C   UNL     1      -0.939  -7.731   0.402  0.00  0.00    +0.247 A 
ATOM     23  O   UNL     1      -2.254  -7.503   0.291  0.00  0.00    -0.336 OA
ATOM     24  N   UNL     1      -2.440  -6.111   0.499  0.00  0.00    -0.056 NA
BRANCH  20  28
ATOM     25  C   UNL     1      -0.384  -1.507   1.465  0.00  0.00    +0.162 A 
ATOM     26  C   UNL     1       0.644  -2.437   1.425  0.00  0.00    +0.050 A 
ATOM     27  C   UNL     1       0.366  -3.766   1.180  0.00  0.00    +0.015 A 
ATOM     28  C   UNL     1      -0.950  -4.177   0.973  0.00  0.00    +0.026 A 
ATOM     29  C   UNL     1      -1.984  -3.243   1.012  0.00  0.00    +0.061 A 
ATOM     30  C   UNL     1      -1.701  -1.912   1.263  0.00  0.00    +0.162 A 
BRANCH  30  31
ATOM     31  O   UNL     1      -2.709  -1.000   1.308  0.00  0.00    -0.491 OA
ATOM     32  C   UNL     1      -4.035  -1.486   1.092  0.00  0.00    +0.277 C 
ENDBRANCH  30  31
BRANCH  25  33
ATOM     33  O   UNL     1      -0.106  -0.198   1.706  0.00  0.00    -0.489 OA
BRANCH  33  35
ATOM     34  C   UNL     1       1.381   1.652   2.160  0.00  0.00    +0.048 C 
ATOM     35  C   UNL     1       1.266   0.148   1.903  0.00  0.00    +0.226 C 
ENDBRANCH  33  35
ENDBRANCH  25  33
ENDBRANCH  20  28
ENDBRANCH  19  22
ENDBRANCH   1  19
TORSDOF 8
