REMARK  Name = ZINC17074335
REMARK  4 active torsions:
REMARK  status: ('A' for Active; 'I' for Inactive)
REMARK    1  A    between atoms: C_1  and  C_2
REMARK    2  A    between atoms: N_12  and  N_13
REMARK    3  A    between atoms: C_14  and  C_16
REMARK    4  A    between atoms: C_16  and  C_21
REMARK                            x       y       z     vdW  Elec       q    Type
REMARK                         _______ _______ _______ _____ _____    ______ ____
ROOT
ATOM      1  C   UNL     1      -2.521   1.621   0.023  0.00  0.00    +0.047 C 
ATOM      2  C   UNL     1      -1.231   2.400   0.021  0.00  0.00    -0.010 A 
ATOM      3  C   UNL     1      -0.021   1.732   0.012  0.00  0.00    +0.046 A 
ATOM      4  C   UNL     1       1.173   2.435   0.004  0.00  0.00    +0.021 A 
ATOM      5  C   UNL     1       1.162   3.815   0.011  0.00  0.00    +0.013 A 
ATOM      6  C   UNL     1      -0.050   4.496   0.027  0.00  0.00    +0.029 A 
ATOM      7  C   UNL     1      -1.260   3.790   0.034  0.00  0.00    +0.047 A 
ATOM      8  N   UNL     1      -2.318   4.691   0.049  0.00  0.00    -0.279 N 
ATOM      9  C   UNL     1      -1.882   5.962   0.052  0.00  0.00    +0.269 C 
ATOM     10  O   UNL     1      -2.579   6.959   0.064  0.00  0.00    -0.268 OA
ATOM     11  C   UNL     1      -0.405   5.934   0.038  0.00  0.00    +0.153 C 
ATOM     12  N   UNL     1       0.413   6.959   0.035  0.00  0.00    -0.175 NA
ATOM     13 CL   UNL     1       0.002  -0.004   0.002  0.00  0.00    -0.083 Cl
ATOM     14  H   UNL     1      -3.254   4.435   0.056  0.00  0.00    +0.155 HD
ENDROOT
BRANCH  12  15
ATOM     15  N   UNL     1      -0.098   8.263   0.047  0.00  0.00    -0.206 N 
ATOM     16  C   UNL     1       0.743   9.316   0.045  0.00  0.00    +0.241 C 
ATOM     17  O   UNL     1       1.942   9.135   0.033  0.00  0.00    -0.273 OA
ATOM     18  H   UNL     1      -1.057   8.408   0.057  0.00  0.00    +0.177 HD
BRANCH  16  19
ATOM     19  C   UNL     1       0.193  10.719   0.058  0.00  0.00    +0.081 C 
ATOM     20  C   UNL     1       0.408  11.551   1.324  0.00  0.00    +0.058 C 
ATOM     21  C   UNL     1       1.199  11.872   0.054  0.00  0.00    +0.133 C 
ATOM     22 CL   UNL     1       2.951  11.448   0.035  0.00  0.00    -0.100 Cl
ATOM     23 CL   UNL     1       0.751  13.366  -0.851  0.00  0.00    -0.100 Cl
ATOM     24  C   UNL     1      -1.116  10.922  -0.707  0.00  0.00    +0.024 C 
ENDBRANCH  16  19
ENDBRANCH  12  15
TORSDOF 2
