REMARK  Name = ZINC02289835
REMARK  5 active torsions:
REMARK  status: ('A' for Active; 'I' for Inactive)
REMARK    1  A    between atoms: C_1  and  C_2
REMARK    2  A    between atoms: C_2  and  C_25
REMARK    3  A    between atoms: C_11  and  O_16
REMARK    4  A    between atoms: O_16  and  C_17
REMARK    5  A    between atoms: C_17  and  C_19
REMARK                            x       y       z     vdW  Elec       q    Type
REMARK                         _______ _______ _______ _____ _____    ______ ____
ROOT
ATOM      1  C   UNL     1      -0.015   0.960   0.220  0.00  0.00    +0.037 C 
ATOM      2  C   UNL     1      -0.759   1.552   1.419  0.00  0.00    +0.059 C 
ATOM      3  C   UNL     1      -0.078   1.126   2.698  0.00  0.00    +0.029 A 
ATOM      4  C   UNL     1       0.896   1.851   3.339  0.00  0.00    +0.018 A 
ATOM      5  C   UNL     1       1.578   1.470   4.521  0.00  0.00    +0.071 A 
ATOM      6  S   UNL     1       2.814   2.380   5.280  0.00  0.00    -0.043 S 
ATOM      7  S   UNL     1       0.974  -0.056   5.088  0.00  0.00    -0.044 S 
ATOM      8  S   UNL     1      -0.419  -0.341   3.555  0.00  0.00    -0.053 S 
ATOM      9  C   UNL     1       1.248   3.188   2.721  0.00  0.00    +0.009 A 
ATOM     10  C   UNL     1       2.359   3.888   3.161  0.00  0.00    +0.056 A 
ATOM     11  C   UNL     1       2.668   5.108   2.574  0.00  0.00    +0.133 A 
ATOM     12  C   UNL     1       1.863   5.615   1.563  0.00  0.00    +0.048 A 
ATOM     13  C   UNL     1       0.743   4.923   1.138  0.00  0.00    +0.027 A 
ATOM     14  C   UNL     1       0.421   3.708   1.724  0.00  0.00    +0.036 A 
ATOM     15  N   UNL     1      -0.735   3.018   1.339  0.00  0.00    -0.334 N 
ATOM     16  C   UNL     1      -2.207   1.058   1.419  0.00  0.00    +0.037 C 
ATOM     17  H   UNL     1      -1.512   3.504   1.022  0.00  0.00    +0.147 HD
ENDROOT
BRANCH  11  18
ATOM     18  O   UNL     1       3.759   5.805   2.988  0.00  0.00    -0.422 OA
BRANCH  18  19
ATOM     19  C   UNL     1       4.966   5.284   2.696  0.00  0.00    +0.344 C 
ATOM     20  O   UNL     1       5.047   4.292   1.999  0.00  0.00    -0.245 OA
BRANCH  19  21
ATOM     21  C   UNL     1       6.192   5.917   3.224  0.00  0.00    +0.059 A 
ATOM     22  C   UNL     1       6.103   7.060   4.021  0.00  0.00    +0.015 A 
ATOM     23  C   UNL     1       7.252   7.643   4.515  0.00  0.00    +0.001 A 
ATOM     24  C   UNL     1       8.490   7.105   4.213  0.00  0.00    +0.000 A 
ATOM     25  C   UNL     1       8.585   5.976   3.419  0.00  0.00    +0.001 A 
ATOM     26  C   UNL     1       7.445   5.379   2.923  0.00  0.00    +0.015 A 
ENDBRANCH  19  21
ENDBRANCH  18  19
ENDBRANCH  11  18
TORSDOF 3
