REMARK  Name = ZINC06149594
REMARK  15 active torsions:
REMARK  status: ('A' for Active; 'I' for Inactive)
REMARK    1  A    between atoms: C_1  and  C_2
REMARK    2  A    between atoms: C_2  and  C_3
REMARK    3  A    between atoms: C_3  and  C_4
REMARK    4  A    between atoms: C_3  and  C_5
REMARK    5  A    between atoms: C_3  and  N_6
REMARK    6  A    between atoms: C_7  and  C_11
REMARK    7  A    between atoms: C_11  and  C_13
REMARK    8  A    between atoms: C_11  and  N_77
REMARK    9  A    between atoms: C_19  and  C_25
REMARK   10  A    between atoms: C_26  and  C_27
REMARK   11  A    between atoms: C_26  and  N_77
REMARK   12  A    between atoms: C_30  and  O_33
REMARK   13  A    between atoms: O_33  and  C_34
REMARK   14  A    between atoms: C_35  and  C_36
REMARK   15  A    between atoms: C_35  and  N_77
REMARK                            x       y       z     vdW  Elec       q    Type
REMARK                         _______ _______ _______ _____ _____    ______ ____
ROOT
ATOM      1  C   UNL     1       2.457   1.293   2.108  0.00  0.00    +0.039 C 
ENDROOT
BRANCH   1   2
ATOM      2  C   UNL     1       3.399   0.126   2.252  0.00  0.00    +0.011 A 
ATOM      3  C   UNL     1       3.980  -0.413   1.152  0.00  0.00    +0.017 A 
ATOM      4  C   UNL     1       4.895  -1.543   1.326  0.00  0.00    -0.001 A 
ATOM      5  C   UNL     1       5.527  -2.138   0.230  0.00  0.00    +0.010 A 
ATOM      6  C   UNL     1       6.370  -3.195   0.425  0.00  0.00    +0.001 A 
ATOM      7  C   UNL     1       6.606  -3.683   1.703  0.00  0.00    +0.005 A 
ATOM      8  C   UNL     1       5.994  -3.112   2.798  0.00  0.00    -0.026 A 
ATOM      9  C   UNL     1       5.131  -2.035   2.623  0.00  0.00    +0.052 A 
ATOM     10  N   UNL     1       4.505  -1.446   3.701  0.00  0.00    -0.322 N 
ATOM     11  H   UNL     1       4.674  -1.797   4.622  0.00  0.00    +0.169 HD
ATOM     12  C   UNL     1       3.670  -0.406   3.531  0.00  0.00    +0.251 A 
ATOM     13  O   UNL     1       3.134   0.091   4.507  0.00  0.00    -0.268 OA
ATOM     14  C   UNL     1       6.259  -3.653   4.180  0.00  0.00    +0.046 C 
ENDBRANCH   1   2
BRANCH   1  16
ATOM     15  N   UNL     1      -0.008   0.722   1.782  0.00  0.00    -0.225 N 
ATOM     16  C   UNL     1       1.078   0.884   2.560  0.00  0.00    +0.143 A 
ATOM     17  N   UNL     1       0.704   0.620   3.788  0.00  0.00    -0.115 NA
ATOM     18  N   UNL     1      -0.545   0.304   3.764  0.00  0.00    -0.023 NA
ATOM     19  N   UNL     1      -0.978   0.365   2.553  0.00  0.00    -0.043 NA
BRANCH  15  20
ATOM     20  C   UNL     1      -0.074   0.911   0.331  0.00  0.00    +0.061 C 
ATOM     21  C   UNL     1       0.958   0.008  -0.349  0.00  0.00    +0.036 C 
ATOM     22  C   UNL     1       0.226   2.372  -0.008  0.00  0.00    +0.036 C 
BRANCH  20  24
ATOM     23  C   UNL     1      -1.544   0.746  -1.683  0.00  0.00    +0.006 C 
ATOM     24  C   UNL     1      -1.475   0.549  -0.167  0.00  0.00    +0.026 C 
ENDBRANCH  20  24
ENDBRANCH  15  20
ENDBRANCH   1  16
BRANCH   1  25
ATOM     25  N   UNL     1       2.928   2.404   2.962  0.00  0.00    +0.394 N 
ATOM     26  H   UNL     1       2.791   2.148   3.947  0.00  0.00    -0.080 HD
BRANCH  25  27
ATOM     27  C   UNL     1       4.366   2.648   2.725  0.00  0.00    -0.041 C 
BRANCH  27  28
ATOM     28  C   UNL     1       4.901   3.508   3.841  0.00  0.00    -0.064 A 
ATOM     29  C   UNL     1       4.934   4.883   3.698  0.00  0.00    +0.005 A 
ATOM     30  C   UNL     1       5.419   5.674   4.721  0.00  0.00    +0.046 A 
ATOM     31  C   UNL     1       5.883   5.087   5.890  0.00  0.00    +0.120 A 
ATOM     32  C   UNL     1       5.853   3.707   6.029  0.00  0.00    +0.046 A 
ATOM     33  C   UNL     1       5.362   2.921   5.005  0.00  0.00    +0.005 A 
BRANCH  31  34
ATOM     34  O   UNL     1       6.365   5.863   6.896  0.00  0.00    -0.495 OA
ATOM     35  C   UNL     1       6.365   7.276   6.683  0.00  0.00    +0.277 C 
ENDBRANCH  31  34
ENDBRANCH  27  28
ENDBRANCH  25  27
BRANCH  25  36
ATOM     36  C   UNL     1       2.152   3.628   2.671  0.00  0.00    -0.045 C 
BRANCH  36  37
ATOM     37  C   UNL     1       0.814   3.546   3.408  0.00  0.00    +0.102 C 
ATOM     38  C   UNL     1       0.022   4.861   3.233  0.00  0.00    +0.032 C 
ATOM     39  C   UNL     1      -0.667   5.069   4.600  0.00  0.00    +0.030 C 
ATOM     40  C   UNL     1      -0.211   3.855   5.439  0.00  0.00    +0.160 C 
ATOM     41  O   UNL     1       1.029   3.429   4.831  0.00  0.00    -0.378 OA
ENDBRANCH  36  37
ENDBRANCH  25  36
ENDBRANCH   1  25
TORSDOF 10
