REMARK  Name = ZINC10210297
REMARK  9 active torsions:
REMARK  status: ('A' for Active; 'I' for Inactive)
REMARK    1  A    between atoms: C_1  and  C_2
REMARK    2  A    between atoms: N_7  and  C_9
REMARK    3  A    between atoms: C_12  and  C_18
REMARK    4  A    between atoms: C_14  and  N_15
REMARK    5  A    between atoms: C_18  and  O_20
REMARK    6  A    between atoms: O_20  and  C_21
REMARK    7  A    between atoms: C_21  and  C_22
REMARK    8  A    between atoms: N_24  and  C_25
REMARK    9  A    between atoms: C_26  and  C_33
REMARK                            x       y       z     vdW  Elec       q    Type
REMARK                         _______ _______ _______ _____ _____    ______ ____
ROOT
ATOM      1  O   UNL     1      -4.299   3.257   4.430  0.00  0.00    -0.452 OA
ENDROOT
BRANCH   1   2
ATOM      2  C   UNL     1      -2.963   3.428   4.389  0.00  0.00    +0.340 C 
ATOM      3  O   UNL     1      -2.396   4.007   5.294  0.00  0.00    -0.245 OA
BRANCH   2   7
ATOM      4  C   UNL     1      -0.741   1.940   1.098  0.00  0.00    +0.060 A 
ATOM      5  C   UNL     1      -2.122   1.771   1.142  0.00  0.00    +0.026 A 
ATOM      6  C   UNL     1      -2.839   2.244   2.203  0.00  0.00    +0.017 A 
ATOM      7  C   UNL     1      -2.189   2.912   3.246  0.00  0.00    +0.061 A 
ATOM      8  C   UNL     1      -0.802   3.088   3.201  0.00  0.00    +0.049 A 
ATOM      9  C   UNL     1      -0.085   2.603   2.131  0.00  0.00    +0.148 A 
BRANCH   4  15
ATOM     10  C   UNL     1       0.556  -2.036  -1.365  0.00  0.00    +0.009 C 
ATOM     11  C   UNL     1       0.743  -0.525  -1.216  0.00  0.00    +0.003 C 
ATOM     12  C   UNL     1       0.392   0.166  -2.537  0.00  0.00    +0.006 C 
ATOM     13  C   UNL     1       0.523   1.682  -2.361  0.00  0.00    +0.019 C 
ATOM     14  C   UNL     1      -0.393   2.140  -1.224  0.00  0.00    +0.105 C 
ATOM     15  N   UNL     1      -0.016   1.451   0.017  0.00  0.00    -0.328 N 
ATOM     16  C   UNL     1      -0.179  -0.002  -0.112  0.00  0.00    +0.108 C 
ENDBRANCH   4  15
BRANCH   9  17
ATOM     17  N   UNL     1       1.383   2.788   2.079  0.00  0.00    +0.058 N 
ATOM     18  O   UNL     1       1.969   3.280   3.027  0.00  0.00    -0.126 OA
ATOM     19  O   UNL     1       2.005   2.447   1.089  0.00  0.00    -0.126 OA
ENDBRANCH   9  17
ENDBRANCH   2   7
ENDBRANCH   1   2
BRANCH   1  20
ATOM     20  C   UNL     1      -4.996   3.792   5.586  0.00  0.00    +0.328 C 
BRANCH  20  21
ATOM     21  C   UNL     1      -6.471   3.508   5.458  0.00  0.00    +0.255 C 
ATOM     22  O   UNL     1      -6.893   2.914   4.488  0.00  0.00    -0.272 OA
ATOM     23  N   UNL     1      -7.321   3.914   6.422  0.00  0.00    -0.277 N 
ATOM     24  H   UNL     1      -6.984   4.389   7.197  0.00  0.00    +0.155 HD
BRANCH  23  25
ATOM     25  C   UNL     1      -8.678   3.654   6.304  0.00  0.00    +0.084 A 
ATOM     26  C   UNL     1      -9.697   3.982   7.182  0.00  0.00    +0.068 A 
ATOM     27  C   UNL     1     -11.058   3.591   6.817  0.00  0.00    -0.023 A 
ATOM     28  C   UNL     1     -11.169   2.934   5.649  0.00  0.00    -0.004 A 
ATOM     29  S   UNL     1      -9.509   2.832   5.027  0.00  0.00    -0.077 S 
ATOM     30  C   UNL     1     -12.595   2.563   5.344  0.00  0.00    +0.043 C 
ATOM     31  C   UNL     1     -13.438   3.459   6.279  0.00  0.00    +0.010 C 
ATOM     32  C   UNL     1     -12.451   3.726   7.433  0.00  0.00    +0.037 C 
BRANCH  26  33
ATOM     33  C   UNL     1      -9.421   4.700   8.431  0.00  0.00    +0.244 C 
ATOM     34  O   UNL     1      -9.441   5.917   8.450  0.00  0.00    -0.270 OA
ATOM     35  N   UNL     1      -9.146   4.012   9.557  0.00  0.00    -0.325 N 
ATOM     36  H   UNL     1      -9.131   3.042   9.541  0.00  0.00    +0.145 HD
ATOM     37  H   UNL     1      -8.964   4.487  10.383  0.00  0.00    +0.145 HD
ENDBRANCH  26  33
ENDBRANCH  23  25
ENDBRANCH  20  21
ENDBRANCH   1  20
TORSDOF 8
