REMARK  Name = ZINC12946575
REMARK  6 active torsions:
REMARK  status: ('A' for Active; 'I' for Inactive)
REMARK    1  A    between atoms: C_8  and  C_10
REMARK    2  A    between atoms: C_10  and  C_11
REMARK    3  A    between atoms: C_11  and  C_12
REMARK    4  A    between atoms: N_14  and  C_15
REMARK    5  A    between atoms: C_19  and  S_21
REMARK    6  A    between atoms: S_21  and  N_24
REMARK                            x       y       z     vdW  Elec       q    Type
REMARK                         _______ _______ _______ _____ _____    ______ ____
ROOT
ATOM      1  C   UNL     1       5.993  -6.776  -2.648  0.00  0.00    +0.035 A 
ATOM      2  C   UNL     1       6.283  -7.371  -1.427  0.00  0.00    +0.023 A 
ATOM      3  C   UNL     1       6.983  -8.561  -1.390  0.00  0.00    +0.004 A 
ATOM      4  C   UNL     1       7.397  -9.159  -2.566  0.00  0.00    +0.029 A 
ATOM      5  C   UNL     1       7.110  -8.568  -3.783  0.00  0.00    +0.114 A 
ATOM      6  C   UNL     1       6.404  -7.382  -3.828  0.00  0.00    +0.052 A 
ENDROOT
BRANCH   1   9
ATOM      7  C   UNL     1       4.411  -5.336  -3.689  0.00  0.00    +0.218 C 
ATOM      8  O   UNL     1       4.302  -6.132  -4.598  0.00  0.00    -0.275 OA
ATOM      9  N   UNL     1       5.284  -5.570  -2.689  0.00  0.00    -0.285 N 
ATOM     10  H   UNL     1       5.420  -4.903  -1.998  0.00  0.00    +0.155 HD
BRANCH   7  11
ATOM     11  C   UNL     1       3.571  -4.085  -3.679  0.00  0.00    +0.104 C 
BRANCH  11  12
ATOM     12  C   UNL     1       2.673  -4.063  -4.917  0.00  0.00    +0.083 C 
BRANCH  12  20
ATOM     13  C   UNL     1      -0.339   1.203  -5.130  0.00  0.00    +0.001 A 
ATOM     14  C   UNL     1      -1.287   0.474  -4.426  0.00  0.00    +0.004 A 
ATOM     15  C   UNL     1      -1.063  -0.849  -4.109  0.00  0.00    +0.047 A 
ATOM     16  C   UNL     1       0.122  -1.462  -4.497  0.00  0.00    +0.135 A 
ATOM     17  C   UNL     1       1.077  -0.718  -5.210  0.00  0.00    +0.020 A 
ATOM     18  C   UNL     1       0.834   0.619  -5.521  0.00  0.00    +0.011 A 
ATOM     19  C   UNL     1       2.188  -1.645  -5.459  0.00  0.00    +0.053 A 
ATOM     20  C   UNL     1       1.833  -2.812  -4.906  0.00  0.00    +0.107 A 
ATOM     21  O   UNL     1       0.618  -2.706  -4.340  0.00  0.00    -0.460 OA
ENDBRANCH  12  20
ENDBRANCH  11  12
ENDBRANCH   7  11
ENDBRANCH   1   9
BRANCH   5  22
ATOM     22  S   UNL     1       7.640  -9.334  -5.279  0.00  0.00    +0.100 S 
ATOM     23  O   UNL     1       7.723  -8.305  -6.255  0.00  0.00    -0.146 OA
ATOM     24  O   UNL     1       8.749 -10.157  -4.944  0.00  0.00    -0.146 OA
BRANCH  22  25
ATOM     25  N   UNL     1       6.426 -10.351  -5.765  0.00  0.00    -0.118 NA
ATOM     26  C   UNL     1       6.559 -11.044  -6.848  0.00  0.00    +0.117 C 
ATOM     27  N   UNL     1       7.655 -11.026  -7.669  0.00  0.00    -0.331 N 
ATOM     28  C   UNL     1       7.667 -12.249  -8.489  0.00  0.00    +0.103 C 
ATOM     29  C   UNL     1       6.175 -12.609  -8.666  0.00  0.00    +0.026 C 
ATOM     30  C   UNL     1       5.530 -12.006  -7.401  0.00  0.00    +0.074 C 
ATOM     31  H   UNL     1       8.319 -10.319  -7.705  0.00  0.00    +0.147 HD
ENDBRANCH  22  25
ENDBRANCH   5  22
TORSDOF 6
