REMARK  Name = ZINC54744568
REMARK  5 active torsions:
REMARK  status: ('A' for Active; 'I' for Inactive)
REMARK    1  A    between atoms: C_1  and  C_2
REMARK    2  A    between atoms: C_5  and  N_9
REMARK    3  A    between atoms: C_10  and  C_14
REMARK    4  A    between atoms: C_14  and  N_15
REMARK    5  A    between atoms: N_15  and  C_16
REMARK                            x       y       z     vdW  Elec       q    Type
REMARK                         _______ _______ _______ _____ _____    ______ ____
ROOT
ATOM      1  N   UNL     1       0.211  -4.312   0.018  0.00  0.00    -0.197 N 
ATOM      2  C   UNL     1       0.192  -5.132   1.091  0.00  0.00    +0.140 A 
ATOM      3  N   UNL     1       0.063  -6.354   0.645  0.00  0.00    -0.115 NA
ATOM      4  N   UNL     1      -0.001  -6.363  -0.638  0.00  0.00    -0.023 NA
ATOM      5  N   UNL     1       0.075  -5.160  -1.096  0.00  0.00    -0.039 NA
ENDROOT
BRANCH   1  10
ATOM      6  C   UNL     1       0.704   1.344   0.008  0.00  0.00    +0.044 C 
ATOM      7  C   UNL     1       0.573  -0.157   0.011  0.00  0.00    -0.048 A 
ATOM      8  C   UNL     1      -0.567  -0.751  -0.499  0.00  0.00    +0.020 A 
ATOM      9  C   UNL     1      -0.690  -2.128  -0.498  0.00  0.00    +0.045 A 
ATOM     10  C   UNL     1       0.333  -2.915   0.015  0.00  0.00    +0.097 A 
ATOM     11  C   UNL     1       1.476  -2.315   0.527  0.00  0.00    +0.045 A 
ATOM     12  C   UNL     1       1.595  -0.938   0.518  0.00  0.00    +0.020 A 
ATOM     13 BR   UNL     1       2.871  -3.381   1.229  0.00  0.00    -0.048 Br
ATOM     14 BR   UNL     1      -2.249  -2.939  -1.196  0.00  0.00    -0.048 Br
ENDBRANCH   1  10
BRANCH   2  15
ATOM     15  C   UNL     1       0.300  -4.715   2.536  0.00  0.00    -0.003 C 
BRANCH  15  16
ATOM     16  N   UNL     1      -1.046  -4.584   3.109  0.00  0.00    +0.386 N 
ATOM     17  H   UNL     1      -1.591  -3.947   2.547  0.00  0.00    -0.085 HD
ATOM     18  H   UNL     1      -1.495  -5.487   3.124  0.00  0.00    -0.085 HD
BRANCH  16  19
ATOM     19  C   UNL     1      -0.946  -4.065   4.480  0.00  0.00    -0.071 C 
ATOM     20  C   UNL     1      -1.409  -4.978   5.617  0.00  0.00    -0.017 C 
ATOM     21  C   UNL     1      -2.252  -3.764   5.219  0.00  0.00    -0.017 C 
ENDBRANCH  16  19
ENDBRANCH  15  16
ENDBRANCH   2  15
TORSDOF 4
