REMARK  Name = ZINC06443617
REMARK  9 active torsions:
REMARK  status: ('A' for Active; 'I' for Inactive)
REMARK    1  A    between atoms: C_1  and  C_2
REMARK    2  A    between atoms: C_12  and  C_14
REMARK    3  A    between atoms: C_14  and  C_16
REMARK    4  A    between atoms: C_14  and  N_67
REMARK    5  A    between atoms: N_20  and  C_21
REMARK    6  A    between atoms: C_26  and  C_27
REMARK    7  A    between atoms: C_26  and  N_67
REMARK    8  A    between atoms: C_33  and  C_34
REMARK    9  A    between atoms: C_33  and  N_67
REMARK                            x       y       z     vdW  Elec       q    Type
REMARK                         _______ _______ _______ _____ _____    ______ ____
ROOT
ATOM      1  C   UNL     1       0.702  -2.967   4.946  0.00  0.00    +0.040 C 
ENDROOT
BRANCH   1  13
ATOM      2  C   UNL     1       2.586   0.168  -0.516  0.00  0.00    +0.046 C 
ATOM      3  C   UNL     1       2.319  -1.291  -0.247  0.00  0.00    -0.026 A 
ATOM      4  C   UNL     1       2.460  -2.218  -1.258  0.00  0.00    +0.005 A 
ATOM      5  C   UNL     1       2.223  -3.565  -1.022  0.00  0.00    +0.001 A 
ATOM      6  C   UNL     1       1.833  -3.996   0.214  0.00  0.00    +0.010 A 
ATOM      7  C   UNL     1       1.678  -3.073   1.253  0.00  0.00    -0.001 A 
ATOM      8  C   UNL     1       1.924  -1.707   1.020  0.00  0.00    +0.052 A 
ATOM      9  N   UNL     1       1.770  -0.801   2.047  0.00  0.00    -0.322 N 
ATOM     10  H   UNL     1       1.940   0.140   1.885  0.00  0.00    +0.169 HD
ATOM     11  C   UNL     1       1.387  -1.203   3.272  0.00  0.00    +0.251 A 
ATOM     12  O   UNL     1       1.261  -0.374   4.157  0.00  0.00    -0.268 OA
ATOM     13  C   UNL     1       1.129  -2.561   3.559  0.00  0.00    +0.011 A 
ATOM     14  C   UNL     1       1.262  -3.500   2.591  0.00  0.00    +0.017 A 
ENDBRANCH   1  13
BRANCH   1  15
ATOM     15  C   UNL     1       1.823  -2.695   5.916  0.00  0.00    +0.143 A 
ATOM     16  N   UNL     1       2.029  -1.585   6.582  0.00  0.00    -0.115 NA
ATOM     17  N   UNL     1       3.084  -1.745   7.305  0.00  0.00    -0.023 NA
ATOM     18  N   UNL     1       3.556  -2.928   7.117  0.00  0.00    -0.044 NA
ATOM     19  N   UNL     1       2.803  -3.546   6.271  0.00  0.00    -0.227 N 
BRANCH  19  20
ATOM     20  C   UNL     1       2.983  -4.917   5.785  0.00  0.00    +0.111 C 
ATOM     21  C   UNL     1       3.029  -5.897   6.976  0.00  0.00    +0.027 C 
ATOM     22  C   UNL     1       4.084  -6.952   6.557  0.00  0.00    +0.002 C 
ATOM     23  C   UNL     1       5.152  -6.098   5.829  0.00  0.00    +0.002 C 
ATOM     24  C   UNL     1       4.332  -5.045   5.056  0.00  0.00    +0.027 C 
ENDBRANCH  19  20
ENDBRANCH   1  15
BRANCH   1  25
ATOM     25  N   UNL     1      -0.477  -2.167   5.341  0.00  0.00    +0.397 N 
ATOM     26  H   UNL     1      -0.204  -1.179   5.401  0.00  0.00    -0.079 HD
BRANCH  25  27
ATOM     27  C   UNL     1      -0.968  -2.611   6.662  0.00  0.00    -0.041 C 
BRANCH  27  28
ATOM     28  C   UNL     1      -1.347  -4.069   6.623  0.00  0.00    -0.064 A 
ATOM     29  C   UNL     1      -2.636  -4.439   6.286  0.00  0.00    +0.002 A 
ATOM     30  C   UNL     1      -2.982  -5.777   6.245  0.00  0.00    +0.000 A 
ATOM     31  C   UNL     1      -2.043  -6.743   6.551  0.00  0.00    +0.000 A 
ATOM     32  C   UNL     1      -0.756  -6.373   6.894  0.00  0.00    +0.000 A 
ATOM     33  C   UNL     1      -0.408  -5.035   6.929  0.00  0.00    +0.002 A 
ENDBRANCH  27  28
ENDBRANCH  25  27
BRANCH  25  34
ATOM     34  C   UNL     1      -1.546  -2.310   4.330  0.00  0.00    -0.001 C 
BRANCH  34  35
ATOM     35  C   UNL     1      -2.584  -1.244   4.569  0.00  0.00    +0.089 A 
ATOM     36  C   UNL     1      -2.626  -0.039   3.974  0.00  0.00    +0.042 A 
ATOM     37  C   UNL     1      -3.757   0.634   4.489  0.00  0.00    +0.041 A 
ATOM     38  C   UNL     1      -4.340  -0.201   5.368  0.00  0.00    +0.195 A 
ATOM     39  O   UNL     1      -3.628  -1.339   5.409  0.00  0.00    -0.470 OA
ENDBRANCH  34  35
ENDBRANCH  25  34
ENDBRANCH   1  25
TORSDOF 8
