REMARK  Name = ZINC02705552
REMARK  10 active torsions:
REMARK  status: ('A' for Active; 'I' for Inactive)
REMARK    1  A    between atoms: C_1  and  C_2
REMARK    2  A    between atoms: C_5  and  C_31
REMARK    3  A    between atoms: C_6  and  C_12
REMARK    4  A    between atoms: C_10  and  C_11
REMARK    5  A    between atoms: N_14  and  C_15
REMARK    6  A    between atoms: C_16  and  C_24
REMARK    7  A    between atoms: N_26  and  C_27
REMARK    8  A    between atoms: C_27  and  C_28
REMARK    9  A    between atoms: C_28  and  O_29
REMARK   10  A    between atoms: O_29  and  C_30
REMARK                            x       y       z     vdW  Elec       q    Type
REMARK                         _______ _______ _______ _____ _____    ______ ____
ROOT
ATOM      1  C   UNL     1       0.088  -7.962  -2.174  0.00  0.00    +0.085 A 
ATOM      2  C   UNL     1       0.116  -9.224  -1.596  0.00  0.00    +0.069 A 
ATOM      3  C   UNL     1       0.118 -10.370  -2.489  0.00  0.00    -0.023 A 
ATOM      4  C   UNL     1       0.101 -10.074  -3.806  0.00  0.00    -0.004 A 
ATOM      5  S   UNL     1       0.077  -8.305  -3.872  0.00  0.00    -0.077 S 
ATOM      6  C   UNL     1       0.105 -11.041  -4.950  0.00  0.00    +0.043 C 
ATOM      7  C   UNL     1       0.507 -12.422  -4.414  0.00  0.00    +0.005 C 
ATOM      8  C   UNL     1      -0.314 -12.722  -3.156  0.00  0.00    +0.005 C 
ATOM      9  C   UNL     1       0.141 -11.817  -2.010  0.00  0.00    +0.037 C 
ENDROOT
BRANCH   1  12
ATOM     10  C   UNL     1       0.056  -5.597  -2.279  0.00  0.00    +0.284 C 
ATOM     11  O   UNL     1       0.045  -5.661  -3.494  0.00  0.00    -0.266 OA
ATOM     12  N   UNL     1       0.078  -6.728  -1.545  0.00  0.00    -0.273 N 
ATOM     13  H   UNL     1       0.087  -6.677  -0.576  0.00  0.00    +0.156 HD
BRANCH  10  19
ATOM     14  C   UNL     1      -0.018   1.503   0.010  0.00  0.00    +0.044 C 
ATOM     15  C   UNL     1       0.002  -0.004   0.002  0.00  0.00    -0.047 A 
ATOM     16  C   UNL     1      -0.006  -0.676  -1.188  0.00  0.00    +0.015 A 
ATOM     17  C   UNL     1       0.019  -2.073  -1.194  0.00  0.00    +0.024 A 
ATOM     18  C   UNL     1       0.023  -3.088  -2.247  0.00  0.00    +0.008 A 
ATOM     19  C   UNL     1       0.045  -4.289  -1.612  0.00  0.00    +0.194 A 
ATOM     20  O   UNL     1       0.055  -4.098  -0.276  0.00  0.00    -0.450 OA
ATOM     21  C   UNL     1       0.040  -2.784   0.021  0.00  0.00    +0.136 A 
ATOM     22  C   UNL     1       0.042  -2.078   1.218  0.00  0.00    +0.050 A 
ATOM     23  C   UNL     1       0.023  -0.700   1.203  0.00  0.00    -0.044 A 
ATOM     24  C   UNL     1       0.024   0.060   2.504  0.00  0.00    +0.044 C 
ATOM     25  C   UNL     1       0.005  -2.850  -3.735  0.00  0.00    +0.048 C 
ENDBRANCH  10  19
ENDBRANCH   1  12
BRANCH   2  26
ATOM     26  C   UNL     1       0.139  -9.393  -0.140  0.00  0.00    +0.247 C 
ATOM     27  O   UNL     1      -0.905  -9.481   0.479  0.00  0.00    -0.270 OA
ATOM     28  N   UNL     1       1.316  -9.453   0.513  0.00  0.00    -0.309 N 
ATOM     29  H   UNL     1       2.149  -9.383   0.020  0.00  0.00    +0.149 HD
BRANCH  28  30
ATOM     30  C   UNL     1       1.339  -9.622   1.968  0.00  0.00    +0.132 C 
BRANCH  30  31
ATOM     31  C   UNL     1       2.789  -9.658   2.454  0.00  0.00    +0.178 C 
BRANCH  31  32
ATOM     32  O   UNL     1       3.405  -8.391   2.212  0.00  0.00    -0.381 OA
ATOM     33  C   UNL     1       4.769  -8.317   2.632  0.00  0.00    +0.194 C 
ENDBRANCH  31  32
ENDBRANCH  30  31
ENDBRANCH  28  30
ENDBRANCH   2  26
TORSDOF 6
