REMARK  Name = ZINC63654811
REMARK  8 active torsions:
REMARK  status: ('A' for Active; 'I' for Inactive)
REMARK    1  A    between atoms: C_1  and  C_2
REMARK    2  A    between atoms: C_3  and  C_14
REMARK    3  A    between atoms: C_4  and  C_7
REMARK    4  A    between atoms: N_16  and  C_17
REMARK    5  A    between atoms: C_17  and  C_18
REMARK    6  A    between atoms: C_18  and  S_19
REMARK    7  A    between atoms: S_19  and  C_20
REMARK    8  A    between atoms: C_28  and  C_30
REMARK                            x       y       z     vdW  Elec       q    Type
REMARK                         _______ _______ _______ _____ _____    ______ ____
ROOT
ATOM      1  C   UNL     1      -2.520  -0.446   0.011  0.00  0.00    +0.250 C 
ATOM      2  O   UNL     1      -3.111  -0.273  -1.038  0.00  0.00    -0.270 OA
ATOM      3  N   UNL     1      -3.153  -0.242   1.183  0.00  0.00    -0.310 N 
ATOM      4  H   UNL     1      -2.682  -0.379   2.019  0.00  0.00    +0.149 HD
ENDROOT
BRANCH   1   7
ATOM      5  C   UNL     1      -0.026   1.438  -0.023  0.00  0.00    +0.090 C 
ATOM      6  C   UNL     1      -0.013  -0.069  -0.014  0.00  0.00    +0.147 A 
ATOM      7  C   UNL     1      -1.112  -0.878  -0.000  0.00  0.00    +0.106 A 
ATOM      8  C   UNL     1      -0.619  -2.263   0.003  0.00  0.00    +0.127 A 
ATOM      9  N   UNL     1       0.688  -2.202  -0.009  0.00  0.00    -0.077 NA
ATOM     10  O   UNL     1       1.076  -0.843  -0.025  0.00  0.00    -0.359 OA
BRANCH   8  11
ATOM     11  C   UNL     1      -1.446  -3.495   0.017  0.00  0.00    +0.023 A 
ATOM     12  C   UNL     1      -2.837  -3.404   0.023  0.00  0.00    +0.011 A 
ATOM     13  C   UNL     1      -3.601  -4.552   0.036  0.00  0.00    +0.001 A 
ATOM     14  C   UNL     1      -2.989  -5.794   0.044  0.00  0.00    +0.001 A 
ATOM     15  C   UNL     1      -1.610  -5.891   0.038  0.00  0.00    +0.020 A 
ATOM     16  C   UNL     1      -0.834  -4.748   0.019  0.00  0.00    +0.050 A 
ATOM     17 CL   UNL     1       0.897  -4.872   0.004  0.00  0.00    -0.083 Cl
ENDBRANCH   8  11
ENDBRANCH   1   7
BRANCH   3  18
ATOM     18  C   UNL     1      -4.554   0.188   1.193  0.00  0.00    +0.115 C 
BRANCH  18  19
ATOM     19  C   UNL     1      -5.028   0.345   2.639  0.00  0.00    +0.093 C 
BRANCH  19  20
ATOM     20  S   UNL     1      -6.762   0.877   2.652  0.00  0.00    -0.125 S 
BRANCH  20  21
ATOM     21  C   UNL     1      -7.179   0.849   4.259  0.00  0.00    +0.016 C 
ATOM     22  C   UNL     1      -6.341   0.594   5.340  0.00  0.00    +0.009 A 
ATOM     23  C   UNL     1      -4.963   0.297   5.428  0.00  0.00    +0.011 A 
ATOM     24  C   UNL     1      -4.395   0.089   6.644  0.00  0.00    +0.001 A 
ATOM     25  C   UNL     1      -5.142   0.162   7.821  0.00  0.00    +0.002 A 
ATOM     26  C   UNL     1      -6.469   0.444   7.810  0.00  0.00    +0.026 A 
ATOM     27  C   UNL     1      -7.131   0.672   6.578  0.00  0.00    +0.044 A 
ATOM     28  N   UNL     1      -8.391   0.958   6.304  0.00  0.00    -0.377 N 
ATOM     29  C   UNL     1      -8.547   1.101   4.853  0.00  0.00    +0.113 C 
ATOM     30  C   UNL     1      -9.018   2.515   4.508  0.00  0.00    +0.036 C 
ATOM     31  H   UNL     1      -9.099   1.061   6.958  0.00  0.00    +0.160 HD
ENDBRANCH  20  21
ENDBRANCH  19  20
ENDBRANCH  18  19
ENDBRANCH   3  18
TORSDOF 6
