REMARK  Name = ZINC59015709
REMARK  6 active torsions:
REMARK  status: ('A' for Active; 'I' for Inactive)
REMARK    1  A    between atoms: C_3  and  C_9
REMARK    2  A    between atoms: N_10  and  N_11
REMARK    3  A    between atoms: C_14  and  S_17
REMARK    4  A    between atoms: S_17  and  C_18
REMARK    5  A    between atoms: C_18  and  C_19
REMARK    6  A    between atoms: N_21  and  C_22
REMARK                            x       y       z     vdW  Elec       q    Type
REMARK                         _______ _______ _______ _____ _____    ______ ____
ROOT
ATOM      1  N   UNL     1       5.988   2.239  -0.108  0.00  0.00    -0.205 N 
ATOM      2  C   UNL     1       7.194   1.563  -0.114  0.00  0.00    +0.232 A 
ATOM      3  N   UNL     1       7.348   0.255  -0.118  0.00  0.00    -0.186 NA
ATOM      4  C   UNL     1       8.652  -0.044  -0.124  0.00  0.00    +0.211 A 
ATOM      5  N   UNL     1       9.345   1.070  -0.122  0.00  0.00    -0.144 NA
ATOM      6  N   UNL     1       8.421   2.127  -0.121  0.00  0.00    -0.245 N 
ATOM      7  H   UNL     1       5.976   3.209  -0.110  0.00  0.00    +0.177 HD
ATOM      8  H   UNL     1       8.623   3.076  -0.123  0.00  0.00    +0.192 HD
ENDROOT
BRANCH   1  10
ATOM      9  C   UNL     1       3.651   2.159  -0.096  0.00  0.00    +0.139 C 
ATOM     10  N   UNL     1       4.784   1.524  -0.101  0.00  0.00    -0.188 NA
BRANCH   9  13
ATOM     11  C   UNL     1      -0.019   1.375  -0.076  0.00  0.00    +0.002 A 
ATOM     12  C   UNL     1       1.164   2.085  -0.083  0.00  0.00    +0.011 A 
ATOM     13  C   UNL     1       2.384   1.405  -0.088  0.00  0.00    +0.014 A 
ATOM     14  C   UNL     1       2.397   0.007  -0.087  0.00  0.00    +0.068 A 
ATOM     15  C   UNL     1       1.206  -0.691  -0.080  0.00  0.00    +0.060 A 
ATOM     16  C   UNL     1       0.001  -0.009  -0.075  0.00  0.00    +0.021 A 
ATOM     17 CL   UNL     1       1.218  -2.427  -0.078  0.00  0.00    -0.082 Cl
ATOM     18 CL   UNL     1       3.908  -0.849  -0.094  0.00  0.00    -0.081 Cl
ENDBRANCH   9  13
ENDBRANCH   1  10
BRANCH   4  19
ATOM     19  S   UNL     1       9.329  -1.671  -0.131  0.00  0.00    -0.075 S 
BRANCH  19  20
ATOM     20  C   UNL     1      11.122  -1.400  -0.136  0.00  0.00    +0.173 C 
BRANCH  20  21
ATOM     21  C   UNL     1      11.831  -2.730  -0.142  0.00  0.00    +0.228 C 
ATOM     22  O   UNL     1      11.190  -3.759  -0.143  0.00  0.00    -0.275 OA
ATOM     23  N   UNL     1      13.178  -2.775  -0.146  0.00  0.00    -0.284 N 
ATOM     24  H   UNL     1      13.691  -1.954  -0.211  0.00  0.00    +0.155 HD
BRANCH  23  25
ATOM     25  C   UNL     1      13.837  -4.007  -0.057  0.00  0.00    +0.053 A 
ATOM     26  C   UNL     1      13.289  -5.134  -0.655  0.00  0.00    +0.025 A 
ATOM     27  C   UNL     1      13.941  -6.348  -0.566  0.00  0.00    +0.003 A 
ATOM     28  C   UNL     1      15.139  -6.444   0.117  0.00  0.00    +0.021 A 
ATOM     29  C   UNL     1      15.689  -5.323   0.715  0.00  0.00    +0.061 A 
ATOM     30  C   UNL     1      15.044  -4.103   0.624  0.00  0.00    +0.080 A 
ATOM     31 CL   UNL     1      15.737  -2.696   1.367  0.00  0.00    -0.080 Cl
ATOM     32 CL   UNL     1      17.194  -5.448   1.572  0.00  0.00    -0.082 Cl
ENDBRANCH  23  25
ENDBRANCH  20  21
ENDBRANCH  19  20
ENDBRANCH   4  19
TORSDOF 6
