REMARK  Name = ZINC56157718
REMARK  9 active torsions:
REMARK  status: ('A' for Active; 'I' for Inactive)
REMARK    1  A    between atoms: C_1  and  C_2
REMARK    2  A    between atoms: C_2  and  C_4
REMARK    3  A    between atoms: C_2  and  N_16
REMARK    4  A    between atoms: N_6  and  C_7
REMARK    5  A    between atoms: C_12  and  C_13
REMARK    6  A    between atoms: C_13  and  C_14
REMARK    7  A    between atoms: C_13  and  C_15
REMARK    8  A    between atoms: N_16  and  C_17
REMARK    9  A    between atoms: C_21  and  N_23
REMARK                            x       y       z     vdW  Elec       q    Type
REMARK                         _______ _______ _______ _____ _____    ______ ____
ROOT
ATOM      1  C   UNL     1       0.012   1.504   0.311  0.00  0.00    +0.038 C 
ATOM      2  C   UNL     1       0.032  -0.025   0.297  0.00  0.00    +0.154 C 
ENDROOT
BRANCH   2   3
ATOM      3  C   UNL     1       0.770  -0.529   1.511  0.00  0.00    +0.237 C 
ATOM      4  O   UNL     1       0.204  -1.241   2.313  0.00  0.00    -0.273 OA
ATOM      5  N   UNL     1       2.060  -0.189   1.704  0.00  0.00    -0.284 N 
ATOM      6  H   UNL     1       2.537   0.313   1.024  0.00  0.00    +0.155 HD
BRANCH   5   7
ATOM      7  C   UNL     1       2.712  -0.558   2.885  0.00  0.00    +0.037 A 
ATOM      8  C   UNL     1       1.978  -0.793   4.041  0.00  0.00    +0.023 A 
ATOM      9  C   UNL     1       2.624  -1.158   5.205  0.00  0.00    +0.002 A 
ATOM     10  C   UNL     1       4.001  -1.289   5.222  0.00  0.00    +0.000 A 
ATOM     11  C   UNL     1       4.735  -1.055   4.074  0.00  0.00    +0.006 A 
ATOM     12  C   UNL     1       4.093  -0.696   2.904  0.00  0.00    -0.024 A 
BRANCH  12  13
ATOM     13  C   UNL     1       4.893  -0.449   1.651  0.00  0.00    +0.015 C 
ATOM     14  C   UNL     1       5.970   0.601   1.932  0.00  0.00    +0.012 C 
ATOM     15  C   UNL     1       5.557  -1.753   1.204  0.00  0.00    +0.012 C 
ENDBRANCH  12  13
ENDBRANCH   5   7
ENDBRANCH   2   3
BRANCH   2  16
ATOM     16  N   UNL     1      -1.343  -0.531   0.318  0.00  0.00    -0.333 N 
ATOM     17  H   UNL     1      -1.758  -0.775   1.160  0.00  0.00    +0.147 HD
BRANCH  16  18
ATOM     18  C   UNL     1      -2.056  -0.664  -0.876  0.00  0.00    +0.029 A 
ATOM     19  C   UNL     1      -1.461  -0.321  -2.084  0.00  0.00    +0.023 A 
ATOM     20  C   UNL     1      -2.166  -0.452  -3.264  0.00  0.00    +0.004 A 
ATOM     21  C   UNL     1      -3.464  -0.923  -3.249  0.00  0.00    +0.024 A 
ATOM     22  C   UNL     1      -4.066  -1.267  -2.045  0.00  0.00    +0.040 A 
ATOM     23  C   UNL     1      -3.358  -1.143  -0.857  0.00  0.00    +0.046 A 
BRANCH  22  24
ATOM     24  N   UNL     1      -5.381  -1.744  -2.030  0.00  0.00    -0.254 N 
ATOM     25  C   UNL     1      -6.269  -1.833  -3.199  0.00  0.00    +0.134 C 
ATOM     26  C   UNL     1      -7.575  -2.417  -2.627  0.00  0.00    +0.125 C 
ATOM     27  N   UNL     1      -7.285  -2.596  -1.197  0.00  0.00    -0.297 N 
ATOM     28  C   UNL     1      -6.030  -2.199  -0.949  0.00  0.00    +0.307 C 
ATOM     29  O   UNL     1      -5.526  -2.243   0.156  0.00  0.00    -0.252 OA
ATOM     30  H   UNL     1      -7.903  -2.949  -0.538  0.00  0.00    +0.150 HD
ENDBRANCH  22  24
ENDBRANCH  16  18
ENDBRANCH   2  16
TORSDOF 6
