REMARK  Name = ZINC39665786
REMARK  9 active torsions:
REMARK  status: ('A' for Active; 'I' for Inactive)
REMARK    1  A    between atoms: C_1  and  C_2
REMARK    2  A    between atoms: C_2  and  C_4
REMARK    3  A    between atoms: C_2  and  O_32
REMARK    4  A    between atoms: C_4  and  N_5
REMARK    5  A    between atoms: C_6  and  C_8
REMARK    6  A    between atoms: C_19  and  C_21
REMARK    7  A    between atoms: O_32  and  C_33
REMARK    8  A    between atoms: C_36  and  O_39
REMARK    9  A    between atoms: O_39  and  C_40
REMARK                            x       y       z     vdW  Elec       q    Type
REMARK                         _______ _______ _______ _____ _____    ______ ____
ROOT
ATOM      1  C   UNL     1       1.533  -4.331   2.674  0.00  0.00    +0.100 C 
ATOM      2  C   UNL     1       2.513  -4.935   1.644  0.00  0.00    +0.121 C 
ATOM      3  N   UNL     1       3.796  -5.059   2.375  0.00  0.00    -0.297 N 
ATOM      4  C   UNL     1       3.404  -5.502   3.735  0.00  0.00    +0.115 C 
ATOM      5  C   UNL     1       2.120  -4.708   4.045  0.00  0.00    -0.004 C 
ATOM      6  C   UNL     1       2.457  -3.450   4.840  0.00  0.00    -0.010 C 
ATOM      7  C   UNL     1       2.985  -3.851   6.220  0.00  0.00    -0.082 C 
ATOM      8  N   UNL     1       1.968  -4.641   6.925  0.00  0.00    +0.379 N 
ATOM      9  C   UNL     1       1.717  -5.893   6.201  0.00  0.00    -0.082 C 
ATOM     10  C   UNL     1       1.135  -5.579   4.820  0.00  0.00    -0.010 C 
ATOM     11  C   UNL     1       5.039  -4.823   1.909  0.00  0.00    +0.260 C 
ATOM     12  O   UNL     1       5.997  -4.971   2.637  0.00  0.00    -0.271 OA
ATOM     13  H   UNL     1       2.294  -4.851   7.856  0.00  0.00    -0.086 HD
ATOM     14  H   UNL     1       1.112  -4.109   6.983  0.00  0.00    -0.086 HD
ENDROOT
BRANCH  11  15
ATOM     15  C   UNL     1       5.237  -4.375   0.484  0.00  0.00    +0.296 C 
ATOM     16  C   UNL     1       4.810  -5.494  -0.475  0.00  0.00    +0.283 C 
ATOM     17  O   UNL     1       5.024  -5.041  -1.816  0.00  0.00    -0.484 OA
ATOM     18  C   UNL     1       6.218  -4.442  -2.076  0.00  0.00    +0.162 A 
ATOM     19  C   UNL     1       6.641  -4.309  -3.390  0.00  0.00    +0.049 A 
ATOM     20  C   UNL     1       7.849  -3.700  -3.670  0.00  0.00    +0.004 A 
ATOM     21  C   UNL     1       8.639  -3.221  -2.642  0.00  0.00    +0.004 A 
ATOM     22  C   UNL     1       8.224  -3.351  -1.330  0.00  0.00    +0.049 A 
ATOM     23  C   UNL     1       7.013  -3.963  -1.042  0.00  0.00    +0.163 A 
ATOM     24  O   UNL     1       6.621  -4.090   0.256  0.00  0.00    -0.473 OA
ENDBRANCH  11  15
BRANCH   1  26
ATOM     25  N   UNL     1       0.347  -2.168   2.856  0.00  0.00    -0.312 N 
ATOM     26  C   UNL     1       1.472  -2.833   2.524  0.00  0.00    +0.218 C 
ATOM     27  O   UNL     1       2.434  -2.225   2.105  0.00  0.00    -0.275 OA
ATOM     28  H   UNL     1      -0.422  -2.654   3.192  0.00  0.00    +0.149 HD
BRANCH  25  29
ATOM     29  C   UNL     1       0.287  -0.712   2.710  0.00  0.00    +0.148 C 
BRANCH  29  31
ATOM     30  C   UNL     1      -1.196   1.291   2.884  0.00  0.00    +0.053 C 
ATOM     31  C   UNL     1      -1.089  -0.211   3.152  0.00  0.00    +0.187 C 
BRANCH  31  32
ATOM     32  O   UNL     1      -1.260  -0.458   4.550  0.00  0.00    -0.488 OA
BRANCH  32  33
ATOM     33  C   UNL     1      -2.536  -0.560   5.007  0.00  0.00    +0.121 A 
ATOM     34  C   UNL     1      -2.773  -0.905   6.330  0.00  0.00    +0.049 A 
ATOM     35  C   UNL     1      -4.070  -1.008   6.795  0.00  0.00    +0.049 A 
ATOM     36  C   UNL     1      -5.135  -0.767   5.939  0.00  0.00    +0.120 A 
ATOM     37  C   UNL     1      -4.898  -0.421   4.617  0.00  0.00    +0.049 A 
ATOM     38  C   UNL     1      -3.601  -0.314   4.153  0.00  0.00    +0.049 A 
BRANCH  36  39
ATOM     39  O   UNL     1      -6.411  -0.869   6.397  0.00  0.00    -0.495 OA
ATOM     40  C   UNL     1      -7.459  -0.607   5.461  0.00  0.00    +0.277 C 
ENDBRANCH  36  39
ENDBRANCH  32  33
ENDBRANCH  31  32
ENDBRANCH  29  31
ENDBRANCH  25  29
ENDBRANCH   1  26
TORSDOF 7
