REMARK  Name = ZINC43427776
REMARK  4 active torsions:
REMARK  status: ('A' for Active; 'I' for Inactive)
REMARK    1  A    between atoms: C_1  and  C_2
REMARK    2  A    between atoms: C_3  and  C_23
REMARK    3  A    between atoms: C_7  and  C_8
REMARK    4  A    between atoms: C_8  and  N_10
REMARK                            x       y       z     vdW  Elec       q    Type
REMARK                         _______ _______ _______ _____ _____    ______ ____
ROOT
ATOM      1  C   UNL     1      -2.363  -0.669  -1.417  0.00  0.00    +0.046 C 
ATOM      2  C   UNL     1      -1.112  -1.049  -0.667  0.00  0.00    -0.015 A 
ATOM      3  C   UNL     1       0.142  -0.752  -1.173  0.00  0.00    +0.064 A 
ATOM      4  N   UNL     1       1.226  -1.092  -0.503  0.00  0.00    -0.152 NA
ATOM      5  N   UNL     1       1.179  -1.700   0.625  0.00  0.00    -0.133 NA
ATOM      6  C   UNL     1       0.033  -2.033   1.202  0.00  0.00    +0.154 A 
ATOM      7  C   UNL     1      -1.181  -1.708   0.567  0.00  0.00    +0.049 A 
ATOM      8  N   UNL     1       0.029  -2.689   2.420  0.00  0.00    -0.306 N 
ATOM      9  C   UNL     1      -0.061  -1.948   3.691  0.00  0.00    +0.135 C 
ATOM     10  C   UNL     1       1.050  -2.433   4.627  0.00  0.00    +0.179 C 
ATOM     11  O   UNL     1       1.026  -3.862   4.711  0.00  0.00    -0.373 OA
ATOM     12  C   UNL     1       1.253  -4.510   3.462  0.00  0.00    +0.139 C 
ATOM     13  C   UNL     1       0.108  -4.154   2.500  0.00  0.00    +0.104 C 
ATOM     14  C   UNL     1       0.404  -4.758   1.129  0.00  0.00    +0.025 C 
ATOM     15  C   UNL     1       0.476  -6.283   1.265  0.00  0.00    +0.002 C 
ATOM     16  C   UNL     1       1.577  -6.667   2.254  0.00  0.00    +0.003 C 
ATOM     17  C   UNL     1       1.295  -6.028   3.621  0.00  0.00    +0.033 C 
ATOM     18  C   UNL     1       0.270  -0.038  -2.495  0.00  0.00    +0.068 C 
ENDROOT
BRANCH   7  19
ATOM     19  C   UNL     1      -2.479  -2.054   1.176  0.00  0.00    +0.081 C 
ATOM     20  S   UNL     1      -3.296  -0.912   2.156  0.00  0.00    -0.035 S 
BRANCH  19  21
ATOM     21  N   UNL     1      -3.022  -3.268   0.962  0.00  0.00    -0.352 N 
ATOM     22  H   UNL     1      -2.603  -3.885   0.341  0.00  0.00    +0.143 HD
ATOM     23  H   UNL     1      -3.833  -3.527   1.428  0.00  0.00    +0.143 HD
ENDBRANCH  19  21
ENDBRANCH   7  19
TORSDOF 2
