REMARK  Name = ZINC39685971
REMARK  8 active torsions:
REMARK  status: ('A' for Active; 'I' for Inactive)
REMARK    1  A    between atoms: C_1  and  C_2
REMARK    2  A    between atoms: C_2  and  C_3
REMARK    3  A    between atoms: C_6  and  C_9
REMARK    4  A    between atoms: C_13  and  C_22
REMARK    5  A    between atoms: N_24  and  C_25
REMARK    6  A    between atoms: C_31  and  C_33
REMARK    7  A    between atoms: C_33  and  C_34
REMARK    8  A    between atoms: C_33  and  C_35
REMARK                            x       y       z     vdW  Elec       q    Type
REMARK                         _______ _______ _______ _____ _____    ______ ____
ROOT
ATOM      1  C   UNL     1       2.916  -1.854   6.494  0.00  0.00    +0.247 C 
ATOM      2  O   UNL     1       4.093  -2.151   6.565  0.00  0.00    -0.270 OA
ATOM      3  N   UNL     1       2.090  -2.123   7.524  0.00  0.00    -0.296 N 
ATOM      4  C   UNL     1       0.619  -1.955   7.577  0.00  0.00    +0.121 C 
ATOM      5  C   UNL     1       0.113  -3.189   8.357  0.00  0.00    +0.100 C 
ATOM      6  C   UNL     1       1.317  -3.643   9.199  0.00  0.00    -0.004 C 
ATOM      7  C   UNL     1       2.448  -2.661   8.859  0.00  0.00    +0.115 C 
ATOM      8  C   UNL     1       1.725  -5.062   8.816  0.00  0.00    -0.010 C 
ATOM      9  C   UNL     1       2.888  -5.511   9.706  0.00  0.00    -0.082 C 
ATOM     10  N   UNL     1       2.476  -5.462  11.114  0.00  0.00    +0.379 N 
ATOM     11  C   UNL     1       2.174  -4.079  11.499  0.00  0.00    -0.082 C 
ATOM     12  C   UNL     1       0.981  -3.569  10.685  0.00  0.00    -0.010 C 
ATOM     13  H   UNL     1       1.654  -6.033  11.242  0.00  0.00    -0.086 HD
ATOM     14  H   UNL     1       3.222  -5.816  11.694  0.00  0.00    -0.086 HD
ENDROOT
BRANCH   1  18
ATOM     15  C   UNL     1       1.407   0.030   2.999  0.00  0.00    -0.048 A 
ATOM     16  C   UNL     1       2.585  -0.692   2.938  0.00  0.00    +0.004 A 
ATOM     17  C   UNL     1       3.081  -1.306   4.069  0.00  0.00    +0.013 A 
ATOM     18  C   UNL     1       2.391  -1.198   5.278  0.00  0.00    +0.037 A 
ATOM     19  C   UNL     1       1.202  -0.468   5.333  0.00  0.00    +0.013 A 
ATOM     20  C   UNL     1       0.721   0.146   4.195  0.00  0.00    +0.004 A 
BRANCH  15  22
ATOM     21  C   UNL     1       1.442   2.115   1.656  0.00  0.00    +0.009 C 
ATOM     22  C   UNL     1       0.871   0.699   1.760  0.00  0.00    +0.032 C 
ENDBRANCH  15  22
ENDBRANCH   1  18
BRANCH   5  23
ATOM     23  C   UNL     1      -0.303  -4.279   7.403  0.00  0.00    +0.218 C 
ATOM     24  O   UNL     1       0.284  -4.421   6.351  0.00  0.00    -0.275 OA
ATOM     25  N   UNL     1      -1.329  -5.095   7.718  0.00  0.00    -0.312 N 
ATOM     26  H   UNL     1      -1.799  -4.981   8.558  0.00  0.00    +0.149 HD
BRANCH  25  27
ATOM     27  C   UNL     1      -1.733  -6.154   6.790  0.00  0.00    +0.076 C 
ATOM     28  C   UNL     1      -0.865  -7.394   7.021  0.00  0.00    +0.041 C 
ATOM     29  C   UNL     1      -1.268  -8.487   6.026  0.00  0.00    +0.109 C 
ATOM     30  N   UNL     1      -2.711  -8.730   6.149  0.00  0.00    -0.301 N 
ATOM     31  C   UNL     1      -3.632  -7.590   6.034  0.00  0.00    +0.109 C 
ATOM     32  C   UNL     1      -3.203  -6.507   7.028  0.00  0.00    +0.041 C 
ATOM     33  C   UNL     1      -3.183  -9.974   6.363  0.00  0.00    +0.218 C 
ATOM     34  O   UNL     1      -4.370 -10.152   6.531  0.00  0.00    -0.275 OA
BRANCH  33  35
ATOM     35  C   UNL     1      -2.233 -11.144   6.394  0.00  0.00    +0.069 C 
ATOM     36  C   UNL     1      -2.995 -12.409   6.797  0.00  0.00    +0.017 C 
ATOM     37  C   UNL     1      -1.619 -11.340   5.006  0.00  0.00    +0.017 C 
ENDBRANCH  33  35
ENDBRANCH  25  27
ENDBRANCH   5  23
TORSDOF 5
