REMARK  Name = ZINC06014933
REMARK  13 active torsions:
REMARK  status: ('A' for Active; 'I' for Inactive)
REMARK    1  A    between atoms: C_1  and  C_2
REMARK    2  A    between atoms: C_2  and  C_3
REMARK    3  A    between atoms: C_2  and  C_4
REMARK    4  A    between atoms: C_2  and  N_5
REMARK    5  A    between atoms: C_6  and  C_10
REMARK    6  A    between atoms: C_10  and  C_12
REMARK    7  A    between atoms: C_10  and  N_68
REMARK    8  A    between atoms: C_16  and  O_24
REMARK    9  A    between atoms: O_24  and  C_25
REMARK   10  A    between atoms: C_26  and  C_27
REMARK   11  A    between atoms: C_26  and  N_68
REMARK   12  A    between atoms: C_32  and  C_33
REMARK   13  A    between atoms: C_32  and  N_68
REMARK                            x       y       z     vdW  Elec       q    Type
REMARK                         _______ _______ _______ _____ _____    ______ ____
ROOT
ATOM      1  C   UNL     1       0.181   1.453   0.222  0.00  0.00    +0.039 C 
ENDROOT
BRANCH   1   2
ATOM      2  C   UNL     1       1.615   1.915   0.162  0.00  0.00    +0.011 A 
ATOM      3  C   UNL     1       2.320   2.080   1.308  0.00  0.00    +0.017 A 
ATOM      4  C   UNL     1       3.711   2.529   1.216  0.00  0.00    +0.002 A 
ATOM      5  C   UNL     1       4.487   2.716   2.364  0.00  0.00    +0.055 A 
ATOM      6  C   UNL     1       5.794   3.140   2.241  0.00  0.00    +0.121 A 
ATOM      7  C   UNL     1       6.340   3.381   0.982  0.00  0.00    +0.047 A 
ATOM      8  C   UNL     1       5.585   3.201  -0.156  0.00  0.00    +0.030 A 
ATOM      9  C   UNL     1       4.266   2.774  -0.054  0.00  0.00    +0.049 A 
ATOM     10  N   UNL     1       3.494   2.587  -1.183  0.00  0.00    -0.322 N 
ATOM     11  H   UNL     1       3.888   2.766  -2.084  0.00  0.00    +0.169 HD
ATOM     12  C   UNL     1       2.219   2.169  -1.088  0.00  0.00    +0.251 A 
ATOM     13  O   UNL     1       1.569   2.009  -2.106  0.00  0.00    -0.268 OA
BRANCH   6  14
ATOM     14  O   UNL     1       6.554   3.323   3.354  0.00  0.00    -0.495 OA
ATOM     15  C   UNL     1       7.899   3.763   3.156  0.00  0.00    +0.277 C 
ENDBRANCH   6  14
ENDBRANCH   1   2
BRANCH   1  17
ATOM     16  N   UNL     1      -1.429   1.804  -1.724  0.00  0.00    -0.225 N 
ATOM     17  C   UNL     1      -0.651   2.272  -0.731  0.00  0.00    +0.143 A 
ATOM     18  N   UNL     1      -0.761   3.578  -0.750  0.00  0.00    -0.115 NA
ATOM     19  N   UNL     1      -1.559   3.896  -1.711  0.00  0.00    -0.023 NA
ATOM     20  N   UNL     1      -1.967   2.826  -2.299  0.00  0.00    -0.043 NA
BRANCH  16  22
ATOM     21  C   UNL     1      -2.241  -0.351  -0.899  0.00  0.00    +0.036 C 
ATOM     22  C   UNL     1      -1.628   0.398  -2.085  0.00  0.00    +0.059 C 
ATOM     23  C   UNL     1      -2.570   0.308  -3.287  0.00  0.00    +0.036 C 
ATOM     24  C   UNL     1      -0.281  -0.232  -2.445  0.00  0.00    +0.036 C 
ENDBRANCH  16  22
ENDBRANCH   1  17
BRANCH   1  25
ATOM     25  N   UNL     1      -0.309   1.618   1.607  0.00  0.00    +0.394 N 
ATOM     26  H   UNL     1       0.464   1.437   2.258  0.00  0.00    -0.080 HD
BRANCH  25  27
ATOM     27  C   UNL     1      -1.398   0.655   1.875  0.00  0.00    -0.034 C 
BRANCH  27  28
ATOM     28  C   UNL     1      -1.760   0.724   3.336  0.00  0.00    -0.027 A 
ATOM     29  C   UNL     1      -2.757   1.417   3.937  0.00  0.00    +0.009 A 
ATOM     30  C   UNL     1      -2.905   1.327   5.309  0.00  0.00    +0.008 A 
ATOM     31  C   UNL     1      -2.042   0.555   6.013  0.00  0.00    +0.045 A 
ATOM     32  S   UNL     1      -0.981  -0.081   4.726  0.00  0.00    -0.103 S 
ENDBRANCH  27  28
ENDBRANCH  25  27
BRANCH  25  33
ATOM     33  C   UNL     1      -0.794   2.999   1.810  0.00  0.00    -0.045 C 
BRANCH  33  34
ATOM     34  C   UNL     1       0.413   3.918   2.008  0.00  0.00    +0.102 C 
ATOM     35  C   UNL     1      -0.049   5.327   2.443  0.00  0.00    +0.032 C 
ATOM     36  C   UNL     1       0.926   6.282   1.720  0.00  0.00    +0.030 C 
ATOM     37  C   UNL     1       1.862   5.338   0.933  0.00  0.00    +0.160 C 
ATOM     38  O   UNL     1       1.097   4.127   0.753  0.00  0.00    -0.378 OA
ENDBRANCH  33  34
ENDBRANCH  25  33
ENDBRANCH   1  25
TORSDOF 9
