REMARK  Name = ZINC29902230
REMARK  10 active torsions:
REMARK  status: ('A' for Active; 'I' for Inactive)
REMARK    1  A    between atoms: C_1  and  O_2
REMARK    2  A    between atoms: O_2  and  C_3
REMARK    3  A    between atoms: C_6  and  S_28
REMARK    4  A    between atoms: C_8  and  N_9
REMARK    5  A    between atoms: N_9  and  C_10
REMARK    6  A    between atoms: C_10  and  C_11
REMARK    7  A    between atoms: N_13  and  C_14
REMARK    8  A    between atoms: N_13  and  C_22
REMARK    9  A    between atoms: S_28  and  N_31
REMARK   10  A    between atoms: N_31  and  C_32
REMARK                            x       y       z     vdW  Elec       q    Type
REMARK                         _______ _______ _______ _____ _____    ______ ____
ROOT
ATOM      1  N   UNL     1       0.356  -2.813  -0.064  0.00  0.00    -0.333 N 
ATOM      2  H   UNL     1       0.213  -2.422  -0.940  0.00  0.00    +0.147 HD
ENDROOT
BRANCH   1   8
ATOM      3  C   UNL     1       1.231  -0.705   0.740  0.00  0.00    +0.141 A 
ATOM      4  C   UNL     1       1.761   0.058   1.766  0.00  0.00    +0.049 A 
ATOM      5  C   UNL     1       1.963  -0.504   3.014  0.00  0.00    +0.032 A 
ATOM      6  C   UNL     1       1.637  -1.828   3.240  0.00  0.00    +0.107 A 
ATOM      7  C   UNL     1       1.108  -2.597   2.220  0.00  0.00    +0.055 A 
ATOM      8  C   UNL     1       0.897  -2.038   0.968  0.00  0.00    +0.072 A 
BRANCH   6   9
ATOM      9  S   UNL     1       1.898  -2.538   4.831  0.00  0.00    +0.059 S 
ATOM     10  O   UNL     1       2.022  -3.940   4.636  0.00  0.00    -0.153 OA
ATOM     11  O   UNL     1       2.911  -1.764   5.460  0.00  0.00    -0.153 OA
BRANCH   9  12
ATOM     12  N   UNL     1       0.512  -2.303   5.706  0.00  0.00    -0.187 NA
ATOM     13  H   UNL     1       0.524  -1.734   6.491  0.00  0.00    +0.148 HD
BRANCH  12  14
ATOM     14  C   UNL     1      -0.734  -2.953   5.293  0.00  0.00    +0.077 C 
ATOM     15  C   UNL     1      -2.041  -2.197   5.539  0.00  0.00    +0.022 C 
ATOM     16  C   UNL     1      -1.689  -3.415   6.395  0.00  0.00    +0.022 C 
ENDBRANCH  12  14
ENDBRANCH   9  12
ENDBRANCH   6   9
BRANCH   3  18
ATOM     17  C   UNL     1       1.397   1.218  -0.649  0.00  0.00    +0.277 C 
ATOM     18  O   UNL     1       1.032  -0.154  -0.488  0.00  0.00    -0.493 OA
ENDBRANCH   3  18
ENDBRANCH   1   8
BRANCH   1  19
ATOM     19  C   UNL     1       0.006  -4.215   0.179  0.00  0.00    +0.197 C 
BRANCH  19  20
ATOM     20  C   UNL     1      -0.553  -4.819  -1.084  0.00  0.00    +0.233 C 
ATOM     21  O   UNL     1      -1.029  -4.103  -1.940  0.00  0.00    -0.274 OA
ATOM     22  N   UNL     1      -0.524  -6.155  -1.262  0.00  0.00    -0.292 N 
BRANCH  22  23
ATOM     23  C   UNL     1      -0.896  -6.729  -2.557  0.00  0.00    +0.099 C 
ATOM     24  C   UNL     1      -0.065  -6.076  -3.674  0.00  0.00    +0.046 C 
ATOM     25  C   UNL     1      -0.664  -6.433  -5.055  0.00  0.00    +0.168 C 
ATOM     26  S   UNL     1      -2.445  -6.688  -4.670  0.00  0.00    -0.029 S 
ATOM     27  O   UNL     1      -3.199  -5.636  -5.256  0.00  0.00    -0.174 OA
ATOM     28  O   UNL     1      -2.790  -8.037  -4.951  0.00  0.00    -0.174 OA
ATOM     29  C   UNL     1      -2.399  -6.447  -2.844  0.00  0.00    +0.188 C 
ENDBRANCH  22  23
BRANCH  22  30
ATOM     30  C   UNL     1      -0.119  -7.032  -0.161  0.00  0.00    +0.076 C 
ATOM     31  C   UNL     1      -0.809  -6.582   1.129  0.00  0.00    +0.022 C 
ATOM     32  C   UNL     1      -0.386  -7.498   2.279  0.00  0.00    +0.002 C 
ATOM     33  C   UNL     1       1.131  -7.424   2.460  0.00  0.00    +0.000 C 
ATOM     34  C   UNL     1       1.821  -7.874   1.170  0.00  0.00    +0.002 C 
ATOM     35  C   UNL     1       1.398  -6.958   0.020  0.00  0.00    +0.022 C 
ENDBRANCH  22  30
ENDBRANCH  19  20
ENDBRANCH   1  19
TORSDOF 9
