REMARK  Name = ZINC55872476
REMARK  12 active torsions:
REMARK  status: ('A' for Active; 'I' for Inactive)
REMARK    1  A    between atoms: C_1  and  C_2
REMARK    2  A    between atoms: C_7  and  C_8
REMARK    3  A    between atoms: C_8  and  C_9
REMARK    4  A    between atoms: C_9  and  N_10
REMARK    5  A    between atoms: C_11  and  C_13
REMARK    6  A    between atoms: C_13  and  N_14
REMARK    7  A    between atoms: N_14  and  C_15
REMARK    8  A    between atoms: C_19  and  C_21
REMARK    9  A    between atoms: N_23  and  C_24
REMARK   10  A    between atoms: C_24  and  C_25
REMARK   11  A    between atoms: C_24  and  C_26
REMARK   12  A    between atoms: C_24  and  C_27
REMARK                            x       y       z     vdW  Elec       q    Type
REMARK                         _______ _______ _______ _____ _____    ______ ____
ROOT
ATOM      1  N   UNL     1      -3.949   2.594   6.404  0.00  0.00    -0.335 N 
ATOM      2  H   UNL     1      -4.685   2.327   5.832  0.00  0.00    +0.147 HD
ENDROOT
BRANCH   1   3
ATOM      3  C   UNL     1      -4.201   3.290   7.589  0.00  0.00    +0.028 A 
ATOM      4  C   UNL     1      -3.145   3.676   8.407  0.00  0.00    +0.023 A 
ATOM      5  C   UNL     1      -3.390   4.366   9.579  0.00  0.00    +0.003 A 
ATOM      6  C   UNL     1      -4.684   4.675   9.947  0.00  0.00    +0.013 A 
ATOM      7  C   UNL     1      -5.751   4.291   9.133  0.00  0.00    +0.038 A 
ATOM      8  C   UNL     1      -5.504   3.600   7.947  0.00  0.00    +0.036 A 
BRANCH   7   9
ATOM      9  C   UNL     1      -7.138   4.620   9.524  0.00  0.00    +0.245 C 
ATOM     10  O   UNL     1      -8.066   4.285   8.814  0.00  0.00    -0.270 OA
ATOM     11  N   UNL     1      -7.374   5.292  10.669  0.00  0.00    -0.307 N 
ATOM     12  H   UNL     1      -6.634   5.560  11.235  0.00  0.00    +0.150 HD
BRANCH  11  13
ATOM     13  C   UNL     1      -8.748   5.619  11.056  0.00  0.00    +0.026 C 
ATOM     14  C   UNL     1      -9.555   4.328  11.213  0.00  0.00    +0.031 C 
ATOM     15  C   UNL     1      -8.737   6.377  12.385  0.00  0.00    +0.031 C 
ATOM     16  C   UNL     1      -9.390   6.492   9.976  0.00  0.00    +0.031 C 
ENDBRANCH  11  13
ENDBRANCH   7   9
ENDBRANCH   1   3
BRANCH   1  17
ATOM     17  C   UNL     1      -2.571   2.266   6.027  0.00  0.00    +0.197 C 
BRANCH  17  19
ATOM     18  N   UNL     1      -1.411   1.113   4.171  0.00  0.00    -0.314 N 
ATOM     19  C   UNL     1      -2.574   1.519   4.718  0.00  0.00    +0.230 C 
ATOM     20  O   UNL     1      -3.623   1.284   4.155  0.00  0.00    -0.274 OA
ATOM     21  H   UNL     1      -0.572   1.301   4.621  0.00  0.00    +0.149 HD
BRANCH  18  22
ATOM     22  C   UNL     1      -1.413   0.387   2.899  0.00  0.00    +0.109 C 
BRANCH  22  23
ATOM     23  C   UNL     1       0.025   0.045   2.504  0.00  0.00    +0.054 C 
BRANCH  23  30
ATOM     24  C   UNL     1      -0.018   1.503   0.010  0.00  0.00    +0.044 C 
ATOM     25  C   UNL     1       0.002  -0.004   0.002  0.00  0.00    -0.047 A 
ATOM     26  C   UNL     1       0.006  -0.689  -1.199  0.00  0.00    +0.003 A 
ATOM     27  C   UNL     1       0.025  -2.071  -1.207  0.00  0.00    +0.000 A 
ATOM     28  C   UNL     1       0.040  -2.768  -0.013  0.00  0.00    +0.000 A 
ATOM     29  C   UNL     1       0.037  -2.084   1.188  0.00  0.00    +0.004 A 
ATOM     30  C   UNL     1       0.023  -0.702   1.195  0.00  0.00    -0.043 A 
ENDBRANCH  23  30
ENDBRANCH  22  23
ENDBRANCH  18  22
ENDBRANCH  17  19
ENDBRANCH   1  17
TORSDOF 8
