REMARK  Name = ZINC51341043
REMARK  3 active torsions:
REMARK  status: ('A' for Active; 'I' for Inactive)
REMARK    1  A    between atoms: C_8  and  C_10
REMARK    2  A    between atoms: C_13  and  C_15
REMARK    3  A    between atoms: C_18  and  N_21
REMARK                            x       y       z     vdW  Elec       q    Type
REMARK                         _______ _______ _______ _____ _____    ______ ____
ROOT
ATOM      1  C   UNL     1      -4.602  -3.042   0.007  0.00  0.00    +0.134 A 
ATOM      2  C   UNL     1      -4.525  -4.410   0.005  0.00  0.00    +0.080 A 
ATOM      3  S   UNL     1      -6.145  -4.866   0.008  0.00  0.00    -0.075 S 
ATOM      4  C   UNL     1      -6.868  -3.235   0.012  0.00  0.00    +0.109 A 
ATOM      5  N   UNL     1      -5.796  -2.465   0.017  0.00  0.00    -0.234 NA
ENDROOT
BRANCH   1  13
ATOM      6  C   UNL     1      -0.017   1.376   0.010  0.00  0.00    +0.024 A 
ATOM      7  C   UNL     1      -1.236   2.040   0.019  0.00  0.00    +0.056 A 
ATOM      8  C   UNL     1      -2.400   1.285   0.021  0.00  0.00    +0.219 A 
ATOM      9  C   UNL     1      -2.303  -0.107   0.012  0.00  0.00    +0.172 A 
ATOM     10  N   UNL     1      -1.121  -0.698   0.004  0.00  0.00    -0.236 NA
ATOM     11  C   UNL     1       0.002  -0.004   0.002  0.00  0.00    +0.113 A 
ATOM     12  N   UNL     1      -3.464  -0.880   0.014  0.00  0.00    -0.262 N 
ATOM     13  C   UNL     1      -3.377  -2.225   0.006  0.00  0.00    +0.268 C 
ATOM     14  O   UNL     1      -2.287  -2.764  -0.002  0.00  0.00    -0.268 OA
ATOM     15  O   UNL     1      -3.616   1.893   0.030  0.00  0.00    -0.284 OA
ATOM     16  H   UNL     1      -4.333  -0.451   0.020  0.00  0.00    +0.157 HD
ENDBRANCH   1  13
BRANCH   4  17
ATOM     17  C   UNL     1      -8.296  -2.847   0.015  0.00  0.00    +0.007 A 
ATOM     18  C   UNL     1      -8.655  -1.499   0.013  0.00  0.00    +0.013 A 
ATOM     19  C   UNL     1      -9.988  -1.143   0.016  0.00  0.00    +0.033 A 
ATOM     20  C   UNL     1     -10.968  -2.121   0.022  0.00  0.00    +0.126 A 
ATOM     21  C   UNL     1     -10.618  -3.459   0.025  0.00  0.00    +0.033 A 
ATOM     22  C   UNL     1      -9.288  -3.828   0.016  0.00  0.00    +0.013 A 
BRANCH  20  23
ATOM     23  N   UNL     1     -12.396  -1.732   0.025  0.00  0.00    +0.056 N 
ATOM     24  O   UNL     1     -12.705  -0.563   0.023  0.00  0.00    -0.126 OA
ATOM     25  O   UNL     1     -13.254  -2.584   0.031  0.00  0.00    -0.126 OA
ENDBRANCH  20  23
ENDBRANCH   4  17
TORSDOF 3
