REMARK  Name = ZINC17099165
REMARK  10 active torsions:
REMARK  status: ('A' for Active; 'I' for Inactive)
REMARK    1  A    between atoms: C_1  and  C_2
REMARK    2  A    between atoms: C_2  and  C_3
REMARK    3  A    between atoms: C_10  and  N_21
REMARK    4  A    between atoms: C_11  and  C_12
REMARK    5  A    between atoms: N_14  and  C_15
REMARK    6  A    between atoms: C_22  and  C_24
REMARK    7  A    between atoms: C_24  and  C_25
REMARK    8  A    between atoms: C_25  and  C_27
REMARK    9  A    between atoms: C_25  and  C_28
REMARK   10  A    between atoms: C_28  and  C_29
REMARK                            x       y       z     vdW  Elec       q    Type
REMARK                         _______ _______ _______ _____ _____    ______ ____
ROOT
ATOM      1  C   UNL     1      -3.246  -7.533   1.530  0.00  0.00    -0.006 C 
ATOM      2  C   UNL     1      -4.511  -7.178   2.316  0.00  0.00    +0.008 C 
ATOM      3  C   UNL     1      -5.136  -5.902   1.748  0.00  0.00    +0.037 C 
ATOM      4  C   UNL     1      -4.067  -4.818   1.688  0.00  0.00    -0.023 A 
ATOM      5  C   UNL     1      -2.754  -5.132   1.739  0.00  0.00    -0.004 A 
ATOM      6  S   UNL     1      -1.913  -3.578   1.638  0.00  0.00    -0.077 S 
ATOM      7  C   UNL     1      -3.284  -2.524   1.528  0.00  0.00    +0.084 A 
ATOM      8  C   UNL     1      -4.360  -3.399   1.579  0.00  0.00    +0.069 A 
ATOM      9  C   UNL     1      -2.156  -6.500   1.855  0.00  0.00    +0.046 C 
ENDROOT
BRANCH   8  10
ATOM     10  C   UNL     1      -5.741  -2.910   1.520  0.00  0.00    +0.247 C 
ATOM     11  O   UNL     1      -6.299  -2.788   0.446  0.00  0.00    -0.270 OA
ATOM     12  N   UNL     1      -6.394  -2.596   2.657  0.00  0.00    -0.308 N 
ATOM     13  H   UNL     1      -5.949  -2.694   3.514  0.00  0.00    +0.149 HD
BRANCH  12  14
ATOM     14  C   UNL     1      -7.774  -2.108   2.599  0.00  0.00    +0.073 C 
ATOM     15  C   UNL     1      -7.770  -0.597   2.357  0.00  0.00    +0.022 C 
ATOM     16  C   UNL     1      -9.211  -0.087   2.296  0.00  0.00    +0.002 C 
ATOM     17  C   UNL     1      -9.916  -0.390   3.620  0.00  0.00    +0.000 C 
ATOM     18  C   UNL     1      -9.919  -1.901   3.862  0.00  0.00    +0.002 C 
ATOM     19  C   UNL     1      -8.478  -2.411   3.923  0.00  0.00    +0.022 C 
ENDBRANCH  12  14
ENDBRANCH   8  10
BRANCH   7  20
ATOM     20  N   UNL     1      -3.303  -1.142   1.422  0.00  0.00    -0.279 N 
ATOM     21  C   UNL     1      -2.144  -0.453   1.393  0.00  0.00    +0.218 C 
ATOM     22  O   UNL     1      -1.087  -1.042   1.460  0.00  0.00    -0.275 OA
ATOM     23  H   UNL     1      -4.149  -0.670   1.368  0.00  0.00    +0.155 HD
BRANCH  21  24
ATOM     24  C   UNL     1      -2.164   1.050   1.278  0.00  0.00    +0.100 C 
BRANCH  24  25
ATOM     25  C   UNL     1      -0.729   1.579   1.267  0.00  0.00    +0.005 C 
ATOM     26  C   UNL     1      -0.013   1.086   0.008  0.00  0.00    +0.008 C 
BRANCH  25  27
ATOM     27  C   UNL     1      -0.750   3.109   1.275  0.00  0.00    +0.129 C 
BRANCH  27  28
ATOM     28  C   UNL     1       0.660   3.630   1.388  0.00  0.00    +0.356 C 
ATOM     29  O   UNL     1       1.586   2.857   1.456  0.00  0.00    -0.246 OA
ATOM     30  O   UNL     1       0.887   4.953   1.415  0.00  0.00    -0.246 OA
ENDBRANCH  27  28
ENDBRANCH  25  27
ENDBRANCH  24  25
ENDBRANCH  21  24
ENDBRANCH   7  20
BRANCH   1  32
ATOM     31  C   UNL     1      -1.579  -9.332   1.056  0.00  0.00    +0.004 C 
ATOM     32  C   UNL     1      -2.768  -8.930   1.930  0.00  0.00    +0.000 C 
ENDBRANCH   1  32
TORSDOF 8
