REMARK  Name = ZINC39021986
REMARK  8 active torsions:
REMARK  status: ('A' for Active; 'I' for Inactive)
REMARK    1  A    between atoms: C_2  and  C_3
REMARK    2  A    between atoms: C_3  and  N_4
REMARK    3  A    between atoms: C_5  and  C_27
REMARK    4  A    between atoms: C_9  and  S_11
REMARK    5  A    between atoms: S_11  and  C_12
REMARK    6  A    between atoms: C_12  and  C_13
REMARK    7  A    between atoms: C_19  and  C_21
REMARK    8  A    between atoms: C_32  and  O_33
REMARK                            x       y       z     vdW  Elec       q    Type
REMARK                         _______ _______ _______ _____ _____    ______ ____
ROOT
ATOM      1  N   UNL     1       1.368  -1.678   1.115  0.00  0.00    +0.423 N 
ATOM      2  C   UNL     1       2.667  -2.395   1.154  0.00  0.00    +0.114 C 
ATOM      3  N   UNL     1       2.989  -2.509   2.582  0.00  0.00    -0.204 NA
ATOM      4  N   UNL     1       2.305  -1.733   3.257  0.00  0.00    -0.198 NA
ATOM      5  C   UNL     1       1.394  -0.953   2.410  0.00  0.00    +0.138 C 
ATOM      6  H   UNL     1       0.596  -2.327   1.079  0.00  0.00    -0.073 HD
ENDROOT
BRANCH   2   7
ATOM      7  C   UNL     1       2.531  -3.762   0.534  0.00  0.00    +0.003 A 
ATOM      8  C   UNL     1       1.544  -4.002  -0.402  0.00  0.00    +0.007 A 
ATOM      9  C   UNL     1       1.418  -5.256  -0.971  0.00  0.00    +0.000 A 
ATOM     10  C   UNL     1       2.280  -6.273  -0.604  0.00  0.00    +0.004 A 
ATOM     11  C   UNL     1       3.269  -6.039   0.331  0.00  0.00    +0.045 A 
ATOM     12  C   UNL     1       3.400  -4.780   0.899  0.00  0.00    +0.120 A 
BRANCH  12  13
ATOM     13  O   UNL     1       4.376  -4.545   1.815  0.00  0.00    -0.506 OA
ATOM     14  H   UNL     1       4.108  -4.715   2.729  0.00  0.00    +0.292 HD
ENDBRANCH  12  13
ENDBRANCH   2   7
BRANCH   1  15
ATOM     15  C   UNL     1       1.317  -0.740  -0.015  0.00  0.00    -0.044 C 
BRANCH  15  17
ATOM     16  C   UNL     1      -0.016   1.306   0.009  0.00  0.00    +0.002 C 
ATOM     17  C   UNL     1       0.002  -0.004   0.002  0.00  0.00    -0.053 C 
ENDBRANCH  15  17
ENDBRANCH   1  15
BRANCH   5  18
ATOM     18  S   UNL     1      -0.265  -0.905   3.142  0.00  0.00    -0.142 S 
BRANCH  18  19
ATOM     19  C   UNL     1      -0.699  -2.653   3.359  0.00  0.00    +0.165 C 
BRANCH  19  20
ATOM     20  C   UNL     1      -2.074  -2.757   3.967  0.00  0.00    +0.229 C 
ATOM     21  O   UNL     1      -2.699  -1.752   4.229  0.00  0.00    -0.275 OA
ATOM     22  N   UNL     1      -2.608  -3.968   4.221  0.00  0.00    -0.263 N 
ATOM     23  C   UNL     1      -3.875  -4.065   4.782  0.00  0.00    +0.188 A 
ATOM     24  N   UNL     1      -4.706  -3.099   5.129  0.00  0.00    -0.125 NA
ATOM     25  N   UNL     1      -5.840  -3.341   5.633  0.00  0.00    -0.140 NA
ATOM     26  C   UNL     1      -6.201  -4.605   5.818  0.00  0.00    +0.134 A 
ATOM     27  S   UNL     1      -4.753  -5.444   5.191  0.00  0.00    -0.030 S 
ATOM     28  H   UNL     1      -2.108  -4.773   4.013  0.00  0.00    +0.157 HD
BRANCH  26  29
ATOM     29  C   UNL     1      -7.451  -5.161   6.380  0.00  0.00    +0.009 A 
ATOM     30  C   UNL     1      -7.617  -6.542   6.488  0.00  0.00    +0.010 A 
ATOM     31  C   UNL     1      -8.785  -7.055   7.013  0.00  0.00    +0.001 A 
ATOM     32  C   UNL     1      -9.791  -6.202   7.432  0.00  0.00    +0.000 A 
ATOM     33  C   UNL     1      -9.633  -4.832   7.327  0.00  0.00    +0.001 A 
ATOM     34  C   UNL     1      -8.467  -4.306   6.809  0.00  0.00    +0.010 A 
ENDBRANCH  26  29
ENDBRANCH  19  20
ENDBRANCH  18  19
ENDBRANCH   5  18
TORSDOF 8
