REMARK  Name = ZINC59887381
REMARK  14 active torsions:
REMARK  status: ('A' for Active; 'I' for Inactive)
REMARK    1  A    between atoms: C_1  and  C_2
REMARK    2  A    between atoms: C_2  and  C_32
REMARK    3  A    between atoms: C_4  and  N_10
REMARK    4  A    between atoms: C_6  and  C_8
REMARK    5  A    between atoms: C_6  and  C_9
REMARK    6  A    between atoms: C_11  and  C_13
REMARK    7  A    between atoms: C_13  and  S_14
REMARK    8  A    between atoms: S_14  and  C_15
REMARK    9  A    between atoms: N_20  and  N_21
REMARK   10  A    between atoms: C_22  and  C_23
REMARK   11  A    between atoms: N_26  and  C_28
REMARK   12  A    between atoms: C_28  and  C_29
REMARK   13  A    between atoms: C_29  and  O_30
REMARK   14  A    between atoms: O_30  and  C_31
REMARK                            x       y       z     vdW  Elec       q    Type
REMARK                         _______ _______ _______ _____ _____    ______ ____
ROOT
ATOM      1  C   UNL     1       6.365  -0.743  -6.352  0.00  0.00    +0.211 A 
ATOM      2  N   UNL     1       7.472  -0.431  -7.034  0.00  0.00    -0.186 NA
ATOM      3  C   UNL     1       7.537  -1.159  -8.129  0.00  0.00    +0.232 A 
ATOM      4  N   UNL     1       6.451  -1.961  -8.162  0.00  0.00    -0.245 N 
ATOM      5  N   UNL     1       5.713  -1.678  -7.002  0.00  0.00    -0.144 NA
ATOM      6  N   UNL     1       8.541  -1.111  -9.079  0.00  0.00    -0.205 N 
ATOM      7  H   UNL     1       8.501  -1.689  -9.857  0.00  0.00    +0.177 HD
ATOM      8  H   UNL     1       6.227  -2.607  -8.849  0.00  0.00    +0.192 HD
ENDROOT
BRANCH   6   9
ATOM      9  N   UNL     1       9.616  -0.227  -8.918  0.00  0.00    -0.187 NA
ATOM     10  C   UNL     1      10.557  -0.182  -9.809  0.00  0.00    +0.141 C 
BRANCH  10  11
ATOM     11  C   UNL     1      11.690   0.749  -9.639  0.00  0.00    +0.032 A 
ATOM     12  C   UNL     1      11.886   1.641  -8.563  0.00  0.00    +0.143 A 
ATOM     13  N   UNL     1      12.999   2.292  -8.772  0.00  0.00    -0.179 NA
ATOM     14  N   UNL     1      13.559   1.853  -9.977  0.00  0.00    -0.269 N 
ATOM     15  C   UNL     1      12.755   0.905 -10.499  0.00  0.00    +0.117 A 
BRANCH  14  16
ATOM     16  C   UNL     1      14.810   2.338 -10.567  0.00  0.00    +0.171 C 
BRANCH  16  17
ATOM     17  C   UNL     1      14.746   3.859 -10.718  0.00  0.00    +0.182 C 
BRANCH  17  18
ATOM     18  O   UNL     1      15.966   4.332 -11.294  0.00  0.00    -0.381 OA
ATOM     19  C   UNL     1      16.011   5.748 -11.479  0.00  0.00    +0.194 C 
ENDBRANCH  17  18
ENDBRANCH  16  17
ENDBRANCH  14  16
ENDBRANCH  10  11
ENDBRANCH   6   9
BRANCH   1  20
ATOM     20  S   UNL     1       5.867  -0.020  -4.824  0.00  0.00    -0.075 S 
BRANCH  20  21
ATOM     21  C   UNL     1       4.312  -0.866  -4.426  0.00  0.00    +0.173 C 
BRANCH  21  23
ATOM     22  N   UNL     1       2.615  -0.819  -2.626  0.00  0.00    -0.312 N 
ATOM     23  C   UNL     1       3.770  -0.334  -3.123  0.00  0.00    +0.224 C 
ATOM     24  O   UNL     1       4.374   0.530  -2.523  0.00  0.00    -0.275 OA
ATOM     25  H   UNL     1       2.133  -1.510  -3.106  0.00  0.00    +0.149 HD
BRANCH  22  29
ATOM     26  C   UNL     1      -0.019   1.528   0.010  0.00  0.00    -0.010 C 
ATOM     27  C   UNL     1       0.002  -0.004   0.002  0.00  0.00    -0.072 C 
ATOM     28  C   UNL     1       0.573  -0.505  -1.321  0.00  0.00    +0.009 C 
ATOM     29  C   UNL     1       2.088  -0.301  -1.357  0.00  0.00    +0.070 C 
ATOM     30  C   UNL     1       2.703  -1.086  -0.198  0.00  0.00    +0.009 C 
ATOM     31  C   UNL     1       2.147  -0.590   1.133  0.00  0.00    -0.072 C 
ATOM     32  N   UNL     1       0.697  -0.529   1.164  0.00  0.00    +0.386 N 
ATOM     33  C   UNL     1       2.769   0.766   1.481  0.00  0.00    -0.010 C 
ATOM     34  C   UNL     1       2.600  -1.589   2.223  0.00  0.00    -0.010 C 
ATOM     35  C   UNL     1      -1.468  -0.478   0.079  0.00  0.00    -0.010 C 
ATOM     36  H   UNL     1       0.416   0.021   1.982  0.00  0.00    -0.084 HD
ATOM     37  H   UNL     1       0.341  -1.472   1.351  0.00  0.00    -0.084 HD
ENDBRANCH  22  29
ENDBRANCH  21  23
ENDBRANCH  20  21
ENDBRANCH   1  20
TORSDOF 9
