REMARK  Name = ZINC22637467
REMARK  12 active torsions:
REMARK  status: ('A' for Active; 'I' for Inactive)
REMARK    1  A    between atoms: C_1  and  N_2
REMARK    2  A    between atoms: N_2  and  C_3
REMARK    3  A    between atoms: N_2  and  C_4
REMARK    4  A    between atoms: C_7  and  C_10
REMARK    5  A    between atoms: C_11  and  C_12
REMARK    6  A    between atoms: C_11  and  N_31
REMARK    7  A    between atoms: N_14  and  N_15
REMARK    8  A    between atoms: N_23  and  C_26
REMARK    9  A    between atoms: C_26  and  C_27
REMARK   10  A    between atoms: C_27  and  O_29
REMARK   11  A    between atoms: O_29  and  C_30
REMARK   12  A    between atoms: C_32  and  C_34
REMARK                            x       y       z     vdW  Elec       q    Type
REMARK                         _______ _______ _______ _____ _____    ______ ____
ROOT
ATOM      1  C   UNL     1      -2.294   4.210   0.005  0.00  0.00    +0.036 C 
ATOM      2  C   UNL     1      -3.269   3.273  -0.096  0.00  0.00    +0.098 C 
ENDROOT
BRANCH   1   6
ATOM      3  C   UNL     1       1.778   3.071  -0.319  0.00  0.00    +0.029 A 
ATOM      4  C   UNL     1       0.786   2.263  -0.867  0.00  0.00    +0.023 A 
ATOM      5  C   UNL     1      -0.536   2.631  -0.769  0.00  0.00    +0.010 A 
ATOM      6  C   UNL     1      -0.883   3.816  -0.107  0.00  0.00    -0.023 A 
ATOM      7  C   UNL     1       0.118   4.625   0.443  0.00  0.00    +0.010 A 
ATOM      8  C   UNL     1       1.438   4.252   0.336  0.00  0.00    +0.023 A 
BRANCH   3  10
ATOM      9  C   UNL     1       3.476   1.456  -1.114  0.00  0.00    +0.129 C 
ATOM     10  N   UNL     1       3.116   2.697  -0.426  0.00  0.00    -0.336 N 
ATOM     11  C   UNL     1       4.162   3.546   0.151  0.00  0.00    +0.129 C 
ENDBRANCH   3  10
ENDBRANCH   1   6
BRANCH   2  12
ATOM     12  C   UNL     1      -4.676   3.683  -0.143  0.00  0.00    +0.277 C 
ATOM     13  O   UNL     1      -4.968   4.863  -0.090  0.00  0.00    -0.267 OA
ATOM     14  N   UNL     1      -5.646   2.753  -0.244  0.00  0.00    -0.201 N 
ATOM     15  H   UNL     1      -5.382   1.686  -0.291  0.00  0.00    +0.178 HD
BRANCH  14  16
ATOM     16  N   UNL     1      -6.991   3.144  -0.288  0.00  0.00    -0.174 NA
ATOM     17  C   UNL     1      -7.930   2.246  -0.465  0.00  0.00    +0.153 C 
ATOM     18  C   UNL     1      -7.776   0.773  -0.492  0.00  0.00    +0.028 A 
ATOM     19  C   UNL     1      -6.683  -0.073  -0.340  0.00  0.00    +0.012 A 
ATOM     20  C   UNL     1      -6.860  -1.440  -0.412  0.00  0.00    +0.001 A 
ATOM     21  C   UNL     1      -8.123  -1.966  -0.629  0.00  0.00    +0.002 A 
ATOM     22  C   UNL     1      -9.214  -1.135  -0.776  0.00  0.00    +0.024 A 
ATOM     23  C   UNL     1      -9.056   0.245  -0.707  0.00  0.00    +0.047 A 
ATOM     24  N   UNL     1      -9.969   1.287  -0.819  0.00  0.00    -0.255 N 
ATOM     25  C   UNL     1      -9.370   2.483  -0.686  0.00  0.00    +0.272 C 
ATOM     26  O   UNL     1      -9.918   3.568  -0.739  0.00  0.00    -0.268 OA
BRANCH  24  27
ATOM     27  C   UNL     1     -11.404   1.105  -1.053  0.00  0.00    +0.234 C 
BRANCH  27  28
ATOM     28  C   UNL     1     -11.673   1.086  -2.535  0.00  0.00    +0.325 C 
ATOM     29  O   UNL     1     -10.761   1.212  -3.317  0.00  0.00    -0.249 OA
BRANCH  28  30
ATOM     30  O   UNL     1     -12.927   0.929  -2.988  0.00  0.00    -0.467 OA
ATOM     31  C   UNL     1     -13.112   0.921  -4.428  0.00  0.00    +0.280 C 
ENDBRANCH  28  30
ENDBRANCH  27  28
ENDBRANCH  24  27
ENDBRANCH  14  16
ENDBRANCH   2  12
BRANCH   2  32
ATOM     32  N   UNL     1      -2.934   1.917  -0.157  0.00  0.00    -0.277 N 
ATOM     33  C   UNL     1      -3.332   1.170  -1.206  0.00  0.00    +0.248 C 
ATOM     34  O   UNL     1      -3.909   1.692  -2.140  0.00  0.00    -0.270 OA
ATOM     35  H   UNL     1      -2.345   1.459   0.652  0.00  0.00    +0.155 HD
BRANCH  33  36
ATOM     36  C   UNL     1      -3.067  -0.284  -1.221  0.00  0.00    +0.037 A 
ATOM     37  C   UNL     1      -2.501  -0.905  -0.106  0.00  0.00    +0.013 A 
ATOM     38  C   UNL     1      -2.262  -2.264  -0.125  0.00  0.00    +0.001 A 
ATOM     39  C   UNL     1      -2.571  -3.009  -1.249  0.00  0.00    +0.000 A 
ATOM     40  C   UNL     1      -3.127  -2.398  -2.360  0.00  0.00    +0.001 A 
ATOM     41  C   UNL     1      -3.376  -1.041  -2.352  0.00  0.00    +0.013 A 
ENDBRANCH  33  36
ENDBRANCH   2  32
TORSDOF 9
