REMARK  Name = ZINC33834435
REMARK  19 active torsions:
REMARK  status: ('A' for Active; 'I' for Inactive)
REMARK    1  A    between atoms: C_1  and  C_2
REMARK    2  A    between atoms: C_2  and  S_3
REMARK    3  A    between atoms: S_3  and  C_4
REMARK    4  A    between atoms: C_4  and  C_5
REMARK    5  A    between atoms: C_5  and  O_6
REMARK    6  A    between atoms: O_6  and  C_7
REMARK    7  A    between atoms: C_7  and  C_9
REMARK    8  A    between atoms: C_10  and  C_40
REMARK    9  A    between atoms: C_14  and  C_16
REMARK   10  A    between atoms: C_18  and  O_26
REMARK   11  A    between atoms: C_19  and  O_24
REMARK   12  A    between atoms: C_20  and  O_22
REMARK   13  A    between atoms: O_22  and  C_23
REMARK   14  A    between atoms: O_24  and  C_25
REMARK   15  A    between atoms: O_26  and  C_27
REMARK   16  A    between atoms: C_30  and  C_36
REMARK   17  A    between atoms: C_32  and  C_35
REMARK   18  A    between atoms: C_36  and  O_38
REMARK   19  A    between atoms: O_38  and  C_39
REMARK                            x       y       z     vdW  Elec       q    Type
REMARK                         _______ _______ _______ _____ _____    ______ ____
ROOT
ATOM      1  C   UNL     1       3.653   1.922   0.271  0.00  0.00    +0.065 C 
ATOM      2  C   UNL     1       3.634   3.266   0.292  0.00  0.00    +0.016 C 
ATOM      3  N   UNL     1       2.475   3.946   0.040  0.00  0.00    -0.321 N 
ATOM      4  C   UNL     1       1.262   3.323   0.152  0.00  0.00    +0.016 C 
ATOM      5  C   UNL     1       1.178   1.976   0.131  0.00  0.00    +0.025 C 
ATOM      6  C   UNL     1       2.416   1.131  -0.036  0.00  0.00    +0.092 C 
ATOM      7  C   UNL     1      -0.061   1.324   0.260  0.00  0.00    +0.176 C 
ATOM      8  O   UNL     1      -0.102   0.110   0.228  0.00  0.00    -0.291 OA
ATOM      9  C   UNL     1      -1.337   2.101   0.432  0.00  0.00    +0.171 C 
ATOM     10  C   UNL     1      -1.019   3.431   1.130  0.00  0.00    +0.013 C 
ATOM     11  C   UNL     1       0.025   4.176   0.294  0.00  0.00    +0.055 C 
ATOM     12  C   UNL     1      -2.291   4.274   1.233  0.00  0.00    +0.009 C 
ATOM     13  C   UNL     1       4.898   4.027   0.597  0.00  0.00    +0.061 C 
ATOM     14  H   UNL     1       2.513   5.005  -0.256  0.00  0.00    +0.152 HD
ENDROOT
BRANCH   6  15
ATOM     15  C   UNL     1       2.487   0.633  -1.456  0.00  0.00    -0.028 A 
ATOM     16  C   UNL     1       2.543   1.536  -2.501  0.00  0.00    +0.054 A 
ATOM     17  C   UNL     1       2.615   1.082  -3.810  0.00  0.00    +0.165 A 
ATOM     18  C   UNL     1       2.618  -0.283  -4.070  0.00  0.00    +0.204 A 
ATOM     19  C   UNL     1       2.555  -1.188  -3.017  0.00  0.00    +0.165 A 
ATOM     20  C   UNL     1       2.489  -0.726  -1.712  0.00  0.00    +0.054 A 
BRANCH  19  21
ATOM     21  O   UNL     1       2.558  -2.525  -3.267  0.00  0.00    -0.491 OA
ATOM     22  C   UNL     1       2.491  -3.396  -2.137  0.00  0.00    +0.277 C 
ENDBRANCH  19  21
BRANCH  18  23
ATOM     23  O   UNL     1       2.683  -0.732  -5.353  0.00  0.00    -0.488 OA
ATOM     24  C   UNL     1       1.443  -0.937  -6.033  0.00  0.00    +0.277 C 
ENDBRANCH  18  23
BRANCH  17  25
ATOM     25  O   UNL     1       2.676   1.972  -4.837  0.00  0.00    -0.491 OA
ATOM     26  C   UNL     1       2.668   3.359  -4.494  0.00  0.00    +0.277 C 
ENDBRANCH  17  25
ENDBRANCH   6  15
BRANCH   1  27
ATOM     27  C   UNL     1       4.863   1.241   0.541  0.00  0.00    +0.338 C 
ATOM     28  O   UNL     1       5.019   0.679   1.610  0.00  0.00    -0.245 OA
BRANCH  27  29
ATOM     29  O   UNL     1       5.844   1.214  -0.385  0.00  0.00    -0.460 OA
BRANCH  29  30
ATOM     30  C   UNL     1       7.039   0.507  -0.044  0.00  0.00    +0.243 C 
BRANCH  30  31
ATOM     31  C   UNL     1       8.027   0.586  -1.209  0.00  0.00    +0.110 C 
BRANCH  31  32
ATOM     32  S   UNL     1       9.544  -0.310  -0.776  0.00  0.00    -0.158 S 
BRANCH  32  34
ATOM     33  C   UNL     1      11.928  -0.843  -2.008  0.00  0.00    +0.015 C 
ATOM     34  C   UNL     1      10.597  -0.123  -2.241  0.00  0.00    +0.066 C 
ENDBRANCH  32  34
ENDBRANCH  31  32
ENDBRANCH  30  31
ENDBRANCH  29  30
ENDBRANCH  27  29
ENDBRANCH   1  27
BRANCH   9  35
ATOM     35  C   UNL     1      -2.301   1.308   1.276  0.00  0.00    +0.318 C 
ATOM     36  O   UNL     1      -2.703   1.762   2.321  0.00  0.00    -0.250 OA
BRANCH  35  37
ATOM     37  O   UNL     1      -2.712   0.098   0.868  0.00  0.00    -0.467 OA
ATOM     38  C   UNL     1      -3.641  -0.609   1.732  0.00  0.00    +0.280 C 
ENDBRANCH  35  37
ENDBRANCH   9  35
TORSDOF 12
