REMARK  Name = ZINC35324529
REMARK  2 active torsions:
REMARK  status: ('A' for Active; 'I' for Inactive)
REMARK    1  A    between atoms: C_3  and  C_8
REMARK    2  A    between atoms: C_13  and  C_19
REMARK                            x       y       z     vdW  Elec       q    Type
REMARK                         _______ _______ _______ _____ _____    ______ ____
ROOT
ATOM      1  C   UNL     1       3.659   2.167  -0.022  0.00  0.00    +0.102 A 
ATOM      2  C   UNL     1       4.758   1.748   0.727  0.00  0.00    +0.072 A 
ATOM      3  C   UNL     1       5.856   2.554   0.599  0.00  0.00    +0.039 A 
ATOM      4  S   UNL     1       5.373   3.758  -0.440  0.00  0.00    +0.010 S 
ATOM      5  N   UNL     1       3.801   3.263  -0.742  0.00  0.00    -0.208 NA
ATOM      6  C   UNL     1       7.170   2.325   1.276  0.00  0.00    +0.068 C 
ATOM      7  C   UNL     1       6.912   1.557   2.578  0.00  0.00    +0.109 C 
ATOM      8  C   UNL     1       5.907   0.462   2.362  0.00  0.00    +0.218 C 
ATOM      9  O   UNL     1       6.068  -0.595   2.936  0.00  0.00    -0.275 OA
ATOM     10  N   UNL     1       4.835   0.601   1.560  0.00  0.00    -0.283 N 
ATOM     11  H   UNL     1       4.132  -0.066   1.551  0.00  0.00    +0.155 HD
ENDROOT
BRANCH   6  12
ATOM     12  C   UNL     1       8.070   1.517   0.378  0.00  0.00    -0.035 A 
ATOM     13  C   UNL     1       7.681   0.256  -0.035  0.00  0.00    +0.008 A 
ATOM     14  C   UNL     1       8.503  -0.490  -0.859  0.00  0.00    +0.050 A 
ATOM     15  C   UNL     1       9.720   0.025  -1.273  0.00  0.00    +0.166 A 
ATOM     16  C   UNL     1      10.113   1.295  -0.858  0.00  0.00    +0.167 A 
ATOM     17  C   UNL     1       9.281   2.039  -0.036  0.00  0.00    +0.053 A 
ATOM     18  O   UNL     1      11.337   1.571  -1.395  0.00  0.00    -0.453 OA
ATOM     19  C   UNL     1      11.871   0.299  -1.808  0.00  0.00    +0.466 C 
ATOM     20  O   UNL     1      10.699  -0.494  -2.071  0.00  0.00    -0.453 OA
ENDBRANCH   6  12
BRANCH   1  23
ATOM     21  C   UNL     1       0.696   0.194   1.186  0.00  0.00    +0.003 A 
ATOM     22  C   UNL     1       1.883   0.898   1.183  0.00  0.00    +0.010 A 
ATOM     23  C   UNL     1       2.385   1.409  -0.013  0.00  0.00    +0.006 A 
ATOM     24  C   UNL     1       1.684   1.206  -1.201  0.00  0.00    +0.048 A 
ATOM     25  C   UNL     1       0.496   0.499  -1.186  0.00  0.00    +0.124 A 
ATOM     26  C   UNL     1       0.004  -0.006   0.006  0.00  0.00    +0.038 A 
ATOM     27  F   UNL     1      -0.185   0.300  -2.336  0.00  0.00    -0.205 F 
ENDBRANCH   1  23
TORSDOF 2
