REMARK  Name = ZINC14020601
REMARK  7 active torsions:
REMARK  status: ('A' for Active; 'I' for Inactive)
REMARK    1  A    between atoms: C_1  and  C_2
REMARK    2  A    between atoms: C_5  and  C_8
REMARK    3  A    between atoms: C_14  and  C_16
REMARK    4  A    between atoms: N_21  and  S_23
REMARK    5  A    between atoms: S_23  and  C_26
REMARK    6  A    between atoms: C_29  and  O_32
REMARK    7  A    between atoms: O_32  and  C_33
REMARK                            x       y       z     vdW  Elec       q    Type
REMARK                         _______ _______ _______ _____ _____    ______ ____
ROOT
ATOM      1  C   UNL     1      -3.543   3.091   0.037  0.00  0.00    +0.091 C 
ATOM      2  C   UNL     1      -3.501   3.980  -1.208  0.00  0.00    +0.015 C 
ATOM      3  C   UNL     1      -4.681   4.954  -1.181  0.00  0.00    +0.018 C 
ATOM      4  C   UNL     1      -5.992   4.163  -1.196  0.00  0.00    +0.109 C 
ATOM      5  N   UNL     1      -5.978   3.203  -0.085  0.00  0.00    -0.176 NA
ATOM      6  C   UNL     1      -4.842   2.278   0.036  0.00  0.00    +0.122 C 
ENDROOT
BRANCH   1  13
ATOM      7  C   UNL     1       2.180   1.104  -0.013  0.00  0.00    +0.080 A 
ATOM      8  C   UNL     1       1.779  -0.203  -0.016  0.00  0.00    +0.076 A 
ATOM      9  S   UNL     1       0.002  -0.004   0.002  0.00  0.00    -0.060 S 
ATOM     10  C   UNL     1      -0.022   1.783   0.012  0.00  0.00    +0.165 A 
ATOM     11  N   UNL     1       1.268   2.064   0.001  0.00  0.00    -0.225 NA
ATOM     12  N   UNL     1      -1.110   2.648   0.022  0.00  0.00    -0.264 N 
ATOM     13  C   UNL     1      -2.364   2.153   0.026  0.00  0.00    +0.223 C 
ATOM     14  O   UNL     1      -2.542   0.954   0.021  0.00  0.00    -0.275 OA
ATOM     15  H   UNL     1      -0.967   3.607   0.026  0.00  0.00    +0.157 HD
BRANCH   7  20
ATOM     16  C   UNL     1       7.785   2.423  -0.061  0.00  0.00    +0.044 C 
ATOM     17  C   UNL     1       6.319   2.078  -0.048  0.00  0.00    -0.050 A 
ATOM     18  C   UNL     1       5.373   3.088  -0.033  0.00  0.00    +0.004 A 
ATOM     19  C   UNL     1       4.029   2.777  -0.022  0.00  0.00    +0.010 A 
ATOM     20  C   UNL     1       3.624   1.444  -0.025  0.00  0.00    +0.001 A 
ATOM     21  C   UNL     1       4.581   0.430  -0.035  0.00  0.00    +0.010 A 
ATOM     22  C   UNL     1       5.923   0.753  -0.052  0.00  0.00    +0.004 A 
ENDBRANCH   7  20
ENDBRANCH   1  13
BRANCH   5  23
ATOM     23  S   UNL     1      -7.219   3.162   1.011  0.00  0.00    +0.061 S 
ATOM     24  O   UNL     1      -6.691   2.591   2.201  0.00  0.00    -0.153 OA
ATOM     25  O   UNL     1      -7.824   4.447   0.987  0.00  0.00    -0.153 OA
BRANCH  23  26
ATOM     26  C   UNL     1      -8.419   2.028   0.398  0.00  0.00    +0.106 A 
ATOM     27  C   UNL     1      -9.438   2.477  -0.422  0.00  0.00    +0.032 A 
ATOM     28  C   UNL     1     -10.377   1.589  -0.909  0.00  0.00    +0.047 A 
ATOM     29  C   UNL     1     -10.304   0.247  -0.566  0.00  0.00    +0.120 A 
ATOM     30  C   UNL     1      -9.284  -0.201   0.261  0.00  0.00    +0.047 A 
ATOM     31  C   UNL     1      -8.344   0.691   0.741  0.00  0.00    +0.032 A 
BRANCH  29  32
ATOM     32  O   UNL     1     -11.230  -0.628  -1.040  0.00  0.00    -0.495 OA
ATOM     33  C   UNL     1     -12.251  -0.097  -1.886  0.00  0.00    +0.277 C 
ENDBRANCH  29  32
ENDBRANCH  23  26
ENDBRANCH   5  23
TORSDOF 5
