REMARK  Name = ZINC12629238
REMARK  14 active torsions:
REMARK  status: ('A' for Active; 'I' for Inactive)
REMARK    1  A    between atoms: C_1  and  C_2
REMARK    2  A    between atoms: C_2  and  O_3
REMARK    3  A    between atoms: O_3  and  C_4
REMARK    4  A    between atoms: C_4  and  C_6
REMARK    5  A    between atoms: C_6  and  N_7
REMARK    6  A    between atoms: C_11  and  S_30
REMARK    7  A    between atoms: N_16  and  C_17
REMARK    8  A    between atoms: C_17  and  C_19
REMARK    9  A    between atoms: C_19  and  C_20
REMARK   10  A    between atoms: C_20  and  C_21
REMARK   11  A    between atoms: C_21  and  S_22
REMARK   12  A    between atoms: S_22  and  C_23
REMARK   13  A    between atoms: C_26  and  C_29
REMARK   14  A    between atoms: S_30  and  N_33
REMARK                            x       y       z     vdW  Elec       q    Type
REMARK                         _______ _______ _______ _____ _____    ______ ____
ROOT
ATOM      1  N   UNL     1     -11.054   2.800  -0.080  0.00  0.00    -0.310 N 
ATOM      2  C   UNL     1     -11.971   1.887  -0.567  0.00  0.00    +0.058 A 
ATOM      3  C   UNL     1     -13.303   2.110  -0.949  0.00  0.00    +0.029 A 
ATOM      4  C   UNL     1     -14.084   1.078  -1.412  0.00  0.00    +0.030 A 
ATOM      5  C   UNL     1     -13.583  -0.210  -1.516  0.00  0.00    +0.106 A 
ATOM      6  C   UNL     1     -12.273  -0.458  -1.146  0.00  0.00    +0.045 A 
ATOM      7  C   UNL     1     -11.492   0.575  -0.684  0.00  0.00    +0.041 A 
ATOM      8  S   UNL     1      -9.813   0.702  -0.120  0.00  0.00    -0.052 S 
ATOM      9  C   UNL     1      -9.794   2.400   0.235  0.00  0.00    +0.167 A 
ATOM     10  N   UNL     1      -8.789   3.132   0.709  0.00  0.00    -0.156 NA
ENDROOT
BRANCH   5  11
ATOM     11  S   UNL     1     -14.604  -1.517  -2.112  0.00  0.00    +0.056 S 
ATOM     12  O   UNL     1     -14.060  -2.724  -1.596  0.00  0.00    -0.153 OA
ATOM     13  O   UNL     1     -15.948  -1.124  -1.873  0.00  0.00    -0.153 OA
BRANCH  11  14
ATOM     14  N   UNL     1     -14.413  -1.576  -3.756  0.00  0.00    -0.204 NA
ATOM     15  H   UNL     1     -13.818  -0.950  -4.198  0.00  0.00    +0.144 HD
ATOM     16  H   UNL     1     -14.896  -2.236  -4.277  0.00  0.00    +0.144 HD
ENDBRANCH  11  14
ENDBRANCH   5  11
BRANCH  10  17
ATOM     17  C   UNL     1      -7.616   2.564   0.968  0.00  0.00    +0.238 C 
ATOM     18  O   UNL     1      -7.461   1.373   0.772  0.00  0.00    -0.274 OA
BRANCH  17  19
ATOM     19  C   UNL     1      -6.478   3.393   1.503  0.00  0.00    +0.099 C 
BRANCH  19  20
ATOM     20  C   UNL     1      -5.252   2.502   1.713  0.00  0.00    +0.020 C 
BRANCH  20  21
ATOM     21  C   UNL     1      -4.096   3.345   2.257  0.00  0.00    +0.075 C 
BRANCH  21  22
ATOM     22  S   UNL     1      -2.643   2.289   2.505  0.00  0.00    -0.125 S 
BRANCH  22  23
ATOM     23  C   UNL     1      -1.416   3.391   3.126  0.00  0.00    +0.008 A 
ATOM     24  C   UNL     1      -0.146   2.917   3.435  0.00  0.00    +0.015 A 
ATOM     25  C   UNL     1       0.814   3.785   3.916  0.00  0.00    +0.004 A 
ATOM     26  C   UNL     1       0.512   5.123   4.094  0.00  0.00    -0.050 A 
ATOM     27  C   UNL     1      -0.751   5.597   3.792  0.00  0.00    +0.004 A 
ATOM     28  C   UNL     1      -1.717   4.735   3.312  0.00  0.00    +0.015 A 
ATOM     29  C   UNL     1       1.564   6.067   4.619  0.00  0.00    +0.044 C 
ENDBRANCH  22  23
ENDBRANCH  21  22
ENDBRANCH  20  21
ENDBRANCH  19  20
ENDBRANCH  17  19
ENDBRANCH  10  17
BRANCH   1  30
ATOM     30  C   UNL     1     -11.440   4.203   0.092  0.00  0.00    +0.244 C 
BRANCH  30  31
ATOM     31  C   UNL     1     -10.861   4.729   1.381  0.00  0.00    +0.327 C 
ATOM     32  O   UNL     1     -10.339   3.970   2.162  0.00  0.00    -0.249 OA
BRANCH  31  33
ATOM     33  O   UNL     1     -10.926   6.040   1.660  0.00  0.00    -0.464 OA
BRANCH  33  35
ATOM     34  C   UNL     1     -10.516   7.989   3.061  0.00  0.00    +0.048 C 
ATOM     35  C   UNL     1     -10.348   6.475   2.919  0.00  0.00    +0.229 C 
ENDBRANCH  33  35
ENDBRANCH  31  33
ENDBRANCH  30  31
ENDBRANCH   1  30
TORSDOF 12
