REMARK  Name = ZINC06240125
REMARK  13 active torsions:
REMARK  status: ('A' for Active; 'I' for Inactive)
REMARK    1  A    between atoms: C_1  and  O_2
REMARK    2  A    between atoms: O_2  and  C_3
REMARK    3  A    between atoms: C_6  and  C_11
REMARK    4  A    between atoms: C_8  and  O_9
REMARK    5  A    between atoms: O_9  and  C_10
REMARK    6  A    between atoms: C_11  and  C_12
REMARK    7  A    between atoms: C_12  and  N_13
REMARK    8  A    between atoms: N_13  and  C_14
REMARK    9  A    between atoms: C_14  and  N_16
REMARK   10  A    between atoms: N_16  and  C_17
REMARK   11  A    between atoms: N_16  and  C_33
REMARK   12  A    between atoms: C_17  and  C_18
REMARK   13  A    between atoms: C_33  and  C_34
REMARK                            x       y       z     vdW  Elec       q    Type
REMARK                         _______ _______ _______ _____ _____    ______ ____
ROOT
ATOM      1  N   UNL     1      -2.400   0.842   0.024  0.00  0.00    -0.306 N 
ENDROOT
BRANCH   1   2
ATOM      2  C   UNL     1      -1.197   1.448  -0.011  0.00  0.00    +0.133 C 
ATOM      3  S   UNL     1      -1.099   3.156  -0.054  0.00  0.00    -0.019 S 
BRANCH   2   4
ATOM      4  N   UNL     1      -0.070   0.708  -0.013  0.00  0.00    -0.326 N 
ATOM      5  H   UNL     1      -0.126  -0.260   0.012  0.00  0.00    +0.148 HD
BRANCH   4   6
ATOM      6  C   UNL     1       1.238   1.366  -0.057  0.00  0.00    +0.108 C 
BRANCH   6   7
ATOM      7  C   UNL     1       2.342   0.306  -0.056  0.00  0.00    +0.054 C 
BRANCH   7  11
ATOM      8  C   UNL     1       6.161   2.227  -0.193  0.00  0.00    +0.161 A 
ATOM      9  C   UNL     1       5.511   1.885  -1.368  0.00  0.00    +0.049 A 
ATOM     10  C   UNL     1       4.280   1.259  -1.321  0.00  0.00    +0.007 A 
ATOM     11  C   UNL     1       3.688   0.983  -0.102  0.00  0.00    -0.042 A 
ATOM     12  C   UNL     1       4.330   1.322   1.074  0.00  0.00    +0.053 A 
ATOM     13  C   UNL     1       5.567   1.944   1.034  0.00  0.00    +0.162 A 
BRANCH   8  15
ATOM     14  C   UNL     1       7.923   3.096  -1.531  0.00  0.00    +0.277 C 
ATOM     15  O   UNL     1       7.375   2.837  -0.237  0.00  0.00    -0.491 OA
ENDBRANCH   8  15
BRANCH  13  16
ATOM     16  O   UNL     1       6.201   2.277   2.190  0.00  0.00    -0.491 OA
ATOM     17  C   UNL     1       5.532   1.956   3.412  0.00  0.00    +0.277 C 
ENDBRANCH  13  16
ENDBRANCH   7  11
ENDBRANCH   6   7
ENDBRANCH   4   6
ENDBRANCH   2   4
ENDBRANCH   1   2
BRANCH   1  18
ATOM     18  C   UNL     1      -3.621   1.645   0.139  0.00  0.00    +0.147 C 
BRANCH  18  19
ATOM     19  C   UNL     1      -4.189   1.894  -1.235  0.00  0.00    +0.035 A 
ATOM     20  C   UNL     1      -3.874   3.035  -1.899  0.00  0.00    +0.020 A 
ATOM     21  C   UNL     1      -4.437   3.246  -3.232  0.00  0.00    +0.003 A 
ATOM     22  C   UNL     1      -4.144   4.402  -3.966  0.00  0.00    +0.059 A 
ATOM     23  C   UNL     1      -4.692   4.574  -5.218  0.00  0.00    +0.167 A 
ATOM     24  C   UNL     1      -5.539   3.598  -5.758  0.00  0.00    +0.168 A 
ATOM     25  C   UNL     1      -5.835   2.454  -5.040  0.00  0.00    +0.075 A 
ATOM     26  C   UNL     1      -5.291   2.266  -3.776  0.00  0.00    +0.053 A 
ATOM     27  N   UNL     1      -5.575   1.130  -3.045  0.00  0.00    -0.322 N 
ATOM     28  H   UNL     1      -6.163   0.456  -3.419  0.00  0.00    +0.169 HD
ATOM     29  C   UNL     1      -5.048   0.944  -1.822  0.00  0.00    +0.254 A 
ATOM     30  O   UNL     1      -5.321  -0.072  -1.206  0.00  0.00    -0.268 OA
ATOM     31  O   UNL     1      -5.939   4.010  -6.995  0.00  0.00    -0.453 OA
ATOM     32  C   UNL     1      -5.011   5.041  -7.378  0.00  0.00    +0.466 C 
ATOM     33  O   UNL     1      -4.568   5.590  -6.123  0.00  0.00    -0.453 OA
ENDBRANCH  18  19
ENDBRANCH   1  18
BRANCH   1  34
ATOM     34  C   UNL     1      -2.488  -0.618  -0.051  0.00  0.00    +0.138 C 
BRANCH  34  35
ATOM     35  C   UNL     1      -2.436  -1.206   1.360  0.00  0.00    +0.136 C 
ATOM     36  C   UNL     1      -2.401  -2.749   1.299  0.00  0.00    +0.035 C 
ATOM     37  C   UNL     1      -3.265  -3.192   2.501  0.00  0.00    +0.031 C 
ATOM     38  C   UNL     1      -3.720  -1.865   3.146  0.00  0.00    +0.160 C 
ATOM     39  O   UNL     1      -3.648  -0.893   2.080  0.00  0.00    -0.375 OA
ENDBRANCH  34  35
ENDBRANCH   1  34
TORSDOF 11
