REMARK  Name = ZINC14464415
REMARK  6 active torsions:
REMARK  status: ('A' for Active; 'I' for Inactive)
REMARK    1  A    between atoms: C_4  and  O_7
REMARK    2  A    between atoms: O_7  and  C_8
REMARK    3  A    between atoms: C_8  and  C_9
REMARK    4  A    between atoms: C_9  and  O_10
REMARK    5  A    between atoms: O_10  and  C_11
REMARK    6  A    between atoms: C_18  and  C_27
REMARK                            x       y       z     vdW  Elec       q    Type
REMARK                         _______ _______ _______ _____ _____    ______ ____
ROOT
ATOM      1  C   UNL     1       1.243  -0.652   0.010  0.00  0.00    +0.142 A 
ATOM      2  C   UNL     1       2.418   0.074   0.011  0.00  0.00    +0.047 A 
ATOM      3  C   UNL     1       2.381   1.456   0.003  0.00  0.00    +0.004 A 
ATOM      4  C   UNL     1       1.163   2.108   0.002  0.00  0.00    +0.006 A 
ATOM      5  C   UNL     1      -0.017   1.392   0.010  0.00  0.00    -0.016 A 
ATOM      6  C   UNL     1       0.002  -0.004   0.002  0.00  0.00    +0.074 A 
ATOM      7  N   UNL     1      -1.143  -0.802  -0.035  0.00  0.00    -0.334 N 
ATOM      8  C   UNL     1      -2.437  -0.106   0.059  0.00  0.00    +0.106 C 
ATOM      9  C   UNL     1      -2.321   1.163  -0.759  0.00  0.00    +0.029 C 
ATOM     10  C   UNL     1      -1.334   2.063   0.048  0.00  0.00    +0.049 C 
ATOM     11  C   UNL     1      -1.562   3.411  -0.528  0.00  0.00    -0.023 C 
ATOM     12  C   UNL     1      -2.812   3.474  -0.976  0.00  0.00    -0.030 C 
ATOM     13  C   UNL     1      -3.511   2.129  -0.759  0.00  0.00    +0.033 C 
ATOM     14  H   UNL     1      -1.124  -1.424  -0.829  0.00  0.00    +0.147 HD
ENDROOT
BRANCH   8  15
ATOM     15  C   UNL     1      -2.734   0.232   1.497  0.00  0.00    -0.019 A 
ATOM     16  C   UNL     1      -1.717   0.369   2.392  0.00  0.00    +0.006 A 
ATOM     17  C   UNL     1      -1.972   0.689   3.724  0.00  0.00    +0.001 A 
ATOM     18  C   UNL     1      -3.245   0.861   4.172  0.00  0.00    +0.008 A 
ATOM     19  C   UNL     1      -4.321   0.722   3.280  0.00  0.00    -0.018 A 
ATOM     20  C   UNL     1      -4.062   0.404   1.923  0.00  0.00    -0.013 A 
ATOM     21  C   UNL     1      -5.138   0.264   1.030  0.00  0.00    +0.009 A 
ATOM     22  C   UNL     1      -6.412   0.436   1.478  0.00  0.00    +0.001 A 
ATOM     23  C   UNL     1      -6.667   0.749   2.812  0.00  0.00    +0.001 A 
ATOM     24  C   UNL     1      -5.650   0.892   3.705  0.00  0.00    +0.008 A 
ENDBRANCH   8  15
BRANCH   1  25
ATOM     25  O   UNL     1       1.292  -2.011   0.018  0.00  0.00    -0.487 OA
BRANCH  25  26
ATOM     26  C   UNL     1       2.588  -2.614   0.026  0.00  0.00    +0.270 C 
BRANCH  26  27
ATOM     27  C   UNL     1       2.442  -4.137   0.034  0.00  0.00    +0.270 C 
BRANCH  27  28
ATOM     28  O   UNL     1       1.835  -4.564  -1.186  0.00  0.00    -0.489 OA
BRANCH  28  32
ATOM     29  C   UNL     1       1.220  -8.616  -1.655  0.00  0.00    +0.000 A 
ATOM     30  C   UNL     1       0.842  -7.740  -2.656  0.00  0.00    +0.004 A 
ATOM     31  C   UNL     1       1.047  -6.383  -2.502  0.00  0.00    +0.045 A 
ATOM     32  C   UNL     1       1.632  -5.899  -1.341  0.00  0.00    +0.121 A 
ATOM     33  C   UNL     1       2.016  -6.780  -0.341  0.00  0.00    +0.045 A 
ATOM     34  C   UNL     1       1.803  -8.136  -0.497  0.00  0.00    +0.004 A 
ENDBRANCH  28  32
ENDBRANCH  27  28
ENDBRANCH  26  27
ENDBRANCH  25  26
ENDBRANCH   1  25
TORSDOF 6
