REMARK  Name = ZINC64921988
REMARK  8 active torsions:
REMARK  status: ('A' for Active; 'I' for Inactive)
REMARK    1  A    between atoms: C_1  and  C_2
REMARK    2  A    between atoms: C_2  and  C_3
REMARK    3  A    between atoms: C_10  and  S_15
REMARK    4  A    between atoms: S_15  and  N_18
REMARK    5  A    between atoms: C_21  and  C_24
REMARK    6  A    between atoms: N_26  and  C_27
REMARK    7  A    between atoms: N_26  and  C_28
REMARK    8  A    between atoms: C_31  and  C_34
REMARK                            x       y       z     vdW  Elec       q    Type
REMARK                         _______ _______ _______ _____ _____    ______ ____
ROOT
ATOM      1  S   UNL     1       5.462  -3.711  -2.706  0.00  0.00    +0.061 S 
ATOM      2  O   UNL     1       6.527  -2.858  -2.311  0.00  0.00    -0.153 OA
ATOM      3  O   UNL     1       5.596  -5.125  -2.758  0.00  0.00    -0.153 OA
ENDROOT
BRANCH   1  10
ATOM      4  C   UNL     1      -0.262  -3.216   0.682  0.00  0.00    +0.259 C 
ATOM      5  C   UNL     1      -0.041  -4.661   0.314  0.00  0.00    +0.258 C 
ATOM      6  O   UNL     1      -0.871  -5.497   0.604  0.00  0.00    -0.271 OA
ATOM      7  N   UNL     1       1.083  -5.021  -0.339  0.00  0.00    -0.279 N 
ATOM      8  C   UNL     1       2.086  -4.065  -0.553  0.00  0.00    +0.078 A 
ATOM      9  C   UNL     1       3.143  -4.332  -1.409  0.00  0.00    +0.055 A 
ATOM     10  C   UNL     1       4.117  -3.373  -1.619  0.00  0.00    +0.107 A 
ATOM     11  C   UNL     1       4.039  -2.151  -0.978  0.00  0.00    +0.032 A 
ATOM     12  C   UNL     1       2.989  -1.880  -0.119  0.00  0.00    +0.049 A 
ATOM     13  C   UNL     1       2.013  -2.837   0.101  0.00  0.00    +0.143 A 
ATOM     14  O   UNL     1       0.994  -2.595   0.967  0.00  0.00    -0.478 OA
ATOM     15  H   UNL     1       1.196  -5.931  -0.657  0.00  0.00    +0.155 HD
BRANCH   4  17
ATOM     16  C   UNL     1      -1.274  -1.058  -0.067  0.00  0.00    +0.008 C 
ATOM     17  C   UNL     1      -0.935  -2.490  -0.484  0.00  0.00    +0.051 C 
ENDBRANCH   4  17
ENDBRANCH   1  10
BRANCH   1  18
ATOM     18  N   UNL     1       5.001  -3.224  -4.220  0.00  0.00    -0.177 NA
ATOM     19  C   UNL     1       4.316  -4.152  -5.129  0.00  0.00    +0.110 C 
ATOM     20  C   UNL     1       3.014  -3.501  -5.609  0.00  0.00    +0.030 C 
ATOM     21  C   UNL     1       3.328  -2.136  -6.224  0.00  0.00    +0.078 C 
ATOM     22  C   UNL     1       3.959  -1.230  -5.165  0.00  0.00    +0.030 C 
ATOM     23  C   UNL     1       5.266  -1.853  -4.678  0.00  0.00    +0.110 C 
BRANCH  21  24
ATOM     24  C   UNL     1       2.054  -1.507  -6.728  0.00  0.00    +0.223 C 
ATOM     25  O   UNL     1       0.989  -2.048  -6.522  0.00  0.00    -0.275 OA
ATOM     26  N   UNL     1       2.100  -0.345  -7.408  0.00  0.00    -0.274 N 
ATOM     27  C   UNL     1       3.392   0.251  -7.755  0.00  0.00    +0.138 C 
BRANCH  26  28
ATOM     28  C   UNL     1       0.912   0.294  -7.782  0.00  0.00    +0.036 A 
ATOM     29  C   UNL     1      -0.309  -0.189  -7.331  0.00  0.00    +0.024 A 
ATOM     30  C   UNL     1      -1.480   0.443  -7.703  0.00  0.00    +0.005 A 
ATOM     31  C   UNL     1      -1.436   1.556  -8.523  0.00  0.00    -0.050 A 
ATOM     32  C   UNL     1      -0.222   2.039  -8.974  0.00  0.00    +0.005 A 
ATOM     33  C   UNL     1       0.953   1.415  -8.601  0.00  0.00    +0.024 A 
ATOM     34  C   UNL     1      -2.715   2.243  -8.926  0.00  0.00    +0.044 C 
ENDBRANCH  26  28
ENDBRANCH  21  24
ENDBRANCH   1  18
TORSDOF 5
