REMARK  Name = ZINC14511807
REMARK  7 active torsions:
REMARK  status: ('A' for Active; 'I' for Inactive)
REMARK    1  A    between atoms: C_6  and  C_7
REMARK    2  A    between atoms: C_10  and  C_12
REMARK    3  A    between atoms: N_14  and  N_15
REMARK    4  A    between atoms: C_16  and  C_18
REMARK    5  A    between atoms: C_18  and  C_19
REMARK    6  A    between atoms: C_19  and  C_20
REMARK    7  A    between atoms: C_23  and  C_25
REMARK                            x       y       z     vdW  Elec       q    Type
REMARK                         _______ _______ _______ _____ _____    ______ ____
ROOT
ATOM      1  N   UNL     1      -3.356  -2.501   2.633  0.00  0.00    -0.234 N 
ATOM      2  C   UNL     1      -2.825  -2.096   1.462  0.00  0.00    +0.230 C 
ATOM      3  O   UNL     1      -3.324  -2.449   0.415  0.00  0.00    -0.274 OA
ATOM      4  H   UNL     1      -2.957  -2.219   3.470  0.00  0.00    +0.173 HD
ENDROOT
BRANCH   1   7
ATOM      5  C   UNL     1      -5.017  -3.735   3.810  0.00  0.00    +0.267 C 
ATOM      6  O   UNL     1      -4.516  -3.380   4.861  0.00  0.00    -0.268 OA
ATOM      7  N   UNL     1      -4.486  -3.330   2.640  0.00  0.00    -0.230 N 
ATOM      8  H   UNL     1      -4.885  -3.612   1.802  0.00  0.00    +0.173 HD
BRANCH   5  12
ATOM      9  C   UNL     1      -8.344  -6.171   3.354  0.00  0.00    +0.020 A 
ATOM     10  C   UNL     1      -7.976  -5.917   4.665  0.00  0.00    +0.017 A 
ATOM     11  C   UNL     1      -6.887  -5.127   4.901  0.00  0.00    +0.021 A 
ATOM     12  C   UNL     1      -6.198  -4.601   3.818  0.00  0.00    +0.076 A 
ATOM     13  S   UNL     1      -7.117  -5.257   2.434  0.00  0.00    -0.084 S 
BRANCH   9  19
ATOM     14  C   UNL     1     -10.322  -7.634   3.739  0.00  0.00    +0.012 A 
ATOM     15  C   UNL     1     -11.371  -8.391   3.260  0.00  0.00    +0.039 A 
ATOM     16  C   UNL     1     -11.569  -8.519   1.894  0.00  0.00    +0.123 A 
ATOM     17  C   UNL     1     -10.719  -7.883   1.003  0.00  0.00    +0.039 A 
ATOM     18  C   UNL     1      -9.671  -7.120   1.471  0.00  0.00    +0.012 A 
ATOM     19  C   UNL     1      -9.466  -6.987   2.846  0.00  0.00    -0.011 A 
ATOM     20  F   UNL     1     -12.594  -9.266   1.430  0.00  0.00    -0.205 F 
ENDBRANCH   9  19
ENDBRANCH   5  12
ENDBRANCH   1   7
BRANCH   2  21
ATOM     21  C   UNL     1      -1.610  -1.205   1.455  0.00  0.00    +0.106 C 
BRANCH  21  22
ATOM     22  C   UNL     1      -1.213  -0.895   0.010  0.00  0.00    +0.105 C 
BRANCH  22  23
ATOM     23  C   UNL     1       0.002  -0.004   0.002  0.00  0.00    +0.197 A 
ATOM     24  N   UNL     1       1.240  -0.412  -0.012  0.00  0.00    -0.221 NA
ATOM     25  C   UNL     1       2.050   0.657  -0.014  0.00  0.00    +0.161 A 
ATOM     26  C   UNL     1       1.265   1.764  -0.001  0.00  0.00    +0.155 A 
ATOM     27  O   UNL     1      -0.016   1.336   0.009  0.00  0.00    -0.440 OA
BRANCH  26  28
ATOM     28  C   UNL     1       1.724   3.170   0.002  0.00  0.00    +0.019 A 
ATOM     29  C   UNL     1       0.794   4.210   0.009  0.00  0.00    +0.014 A 
ATOM     30  C   UNL     1       1.228   5.520   0.017  0.00  0.00    +0.039 A 
ATOM     31  C   UNL     1       2.585   5.803   0.005  0.00  0.00    +0.123 A 
ATOM     32  C   UNL     1       3.512   4.773  -0.007  0.00  0.00    +0.039 A 
ATOM     33  C   UNL     1       3.089   3.461  -0.010  0.00  0.00    +0.014 A 
ATOM     34  F   UNL     1       3.004   7.087   0.007  0.00  0.00    -0.205 F 
ENDBRANCH  26  28
ENDBRANCH  22  23
ENDBRANCH  21  22
ENDBRANCH   2  21
TORSDOF 7
