REMARK  Name = ZINC26024619
REMARK  9 active torsions:
REMARK  status: ('A' for Active; 'I' for Inactive)
REMARK    1  A    between atoms: C_1  and  C_2
REMARK    2  A    between atoms: C_5  and  C_9
REMARK    3  A    between atoms: C_7  and  O_8
REMARK    4  A    between atoms: C_9  and  O_11
REMARK    5  A    between atoms: O_11  and  C_12
REMARK    6  A    between atoms: C_12  and  C_14
REMARK    7  A    between atoms: C_12  and  C_15
REMARK    8  A    between atoms: N_17  and  C_18
REMARK    9  A    between atoms: C_19  and  C_26
REMARK                            x       y       z     vdW  Elec       q    Type
REMARK                         _______ _______ _______ _____ _____    ______ ____
ROOT
ATOM      1  C   UNL     1      -0.628  -6.910  -2.341  0.00  0.00    +0.258 C 
ATOM      2  O   UNL     1      -1.023  -6.169  -3.215  0.00  0.00    -0.271 OA
ATOM      3  N   UNL     1      -0.823  -8.240  -2.445  0.00  0.00    -0.276 N 
ATOM      4  H   UNL     1      -0.506  -8.833  -1.746  0.00  0.00    +0.155 HD
ENDROOT
BRANCH   3   5
ATOM      5  C   UNL     1      -1.475  -8.760  -3.553  0.00  0.00    +0.084 A 
ATOM      6  C   UNL     1      -1.766 -10.084  -3.824  0.00  0.00    +0.068 A 
ATOM      7  C   UNL     1      -2.470 -10.373  -5.072  0.00  0.00    -0.023 A 
ATOM      8  C   UNL     1      -2.747  -9.283  -5.811  0.00  0.00    -0.004 A 
ATOM      9  S   UNL     1      -2.100  -7.926  -4.867  0.00  0.00    -0.077 S 
ATOM     10  C   UNL     1      -3.467  -9.637  -7.084  0.00  0.00    +0.043 C 
ATOM     11  C   UNL     1      -3.231 -11.154  -7.257  0.00  0.00    +0.010 C 
ATOM     12  C   UNL     1      -3.002 -11.605  -5.801  0.00  0.00    +0.037 C 
BRANCH   6  13
ATOM     13  C   UNL     1      -1.384 -11.154  -2.898  0.00  0.00    +0.244 C 
ATOM     14  O   UNL     1      -2.149 -11.498  -2.016  0.00  0.00    -0.270 OA
ATOM     15  N   UNL     1      -0.185 -11.758  -3.023  0.00  0.00    -0.325 N 
ATOM     16  H   UNL     1       0.424 -11.484  -3.726  0.00  0.00    +0.145 HD
ATOM     17  H   UNL     1       0.068 -12.466  -2.411  0.00  0.00    +0.145 HD
ENDBRANCH   6  13
ENDBRANCH   3   5
BRANCH   1  18
ATOM     18  C   UNL     1       0.082  -6.345  -1.137  0.00  0.00    +0.259 C 
ATOM     19  C   UNL     1       1.531  -6.835  -1.122  0.00  0.00    +0.062 C 
BRANCH  18  20
ATOM     20  O   UNL     1       0.062  -4.917  -1.200  0.00  0.00    -0.449 OA
BRANCH  20  21
ATOM     21  C   UNL     1       0.060  -4.254  -0.027  0.00  0.00    +0.340 C 
ATOM     22  O   UNL     1       0.073  -4.870   1.019  0.00  0.00    -0.245 OA
BRANCH  21  27
ATOM     23  C   UNL     1      -0.018   1.503   0.010  0.00  0.00    +0.047 C 
ATOM     24  C   UNL     1       0.002  -0.004   0.002  0.00  0.00    -0.009 A 
ATOM     25  C   UNL     1       0.006  -0.686  -1.201  0.00  0.00    +0.008 A 
ATOM     26  C   UNL     1       0.024  -2.066  -1.217  0.00  0.00    +0.015 A 
ATOM     27  C   UNL     1       0.040  -2.777  -0.015  0.00  0.00    +0.062 A 
ATOM     28  C   UNL     1       0.037  -2.087   1.198  0.00  0.00    +0.060 A 
ATOM     29  C   UNL     1       0.023  -0.702   1.202  0.00  0.00    +0.121 A 
BRANCH  29  30
ATOM     30  O   UNL     1       0.025  -0.026   2.381  0.00  0.00    -0.506 OA
ATOM     31  H   UNL     1      -0.858   0.158   2.730  0.00  0.00    +0.292 HD
ENDBRANCH  29  30
ENDBRANCH  21  27
ENDBRANCH  20  21
ENDBRANCH  18  20
ENDBRANCH   1  18
TORSDOF 7
