REMARK  Name = ZINC17315218
REMARK  10 active torsions:
REMARK  status: ('A' for Active; 'I' for Inactive)
REMARK    1  A    between atoms: C_1  and  C_2
REMARK    2  A    between atoms: C_5  and  C_8
REMARK    3  A    between atoms: C_8  and  N_9
REMARK    4  A    between atoms: C_10  and  C_26
REMARK    5  A    between atoms: C_11  and  C_15
REMARK    6  A    between atoms: C_12  and  C_14
REMARK    7  A    between atoms: C_15  and  N_51
REMARK    8  A    between atoms: C_16  and  C_18
REMARK    9  A    between atoms: C_16  and  C_19
REMARK   10  A    between atoms: C_16  and  N_51
REMARK                            x       y       z     vdW  Elec       q    Type
REMARK                         _______ _______ _______ _____ _____    ______ ____
ROOT
ATOM      1  N   UNL     1       7.136   2.692   2.968  0.00  0.00    -0.264 N 
ATOM      2  C   UNL     1       6.566   2.159   1.867  0.00  0.00    +0.038 A 
ATOM      3  C   UNL     1       5.431   1.531   2.253  0.00  0.00    -0.021 A 
ATOM      4  C   UNL     1       5.308   1.679   3.639  0.00  0.00    +0.062 A 
ATOM      5  N   UNL     1       6.329   2.374   4.069  0.00  0.00    -0.176 NA
ATOM      6  C   UNL     1       4.191   1.131   4.489  0.00  0.00    +0.068 C 
ATOM      7  C   UNL     1       7.097   2.250   0.460  0.00  0.00    +0.065 C 
ENDROOT
BRANCH   1   8
ATOM      8  C   UNL     1       8.382   3.463   3.007  0.00  0.00    +0.178 C 
BRANCH   8  13
ATOM      9  C   UNL     1      12.841  -0.125   3.801  0.00  0.00    +0.044 C 
ATOM     10  C   UNL     1      11.679   0.811   3.594  0.00  0.00    -0.050 A 
ATOM     11  C   UNL     1      11.258   1.117   2.313  0.00  0.00    +0.004 A 
ATOM     12  C   UNL     1      10.191   1.976   2.123  0.00  0.00    +0.006 A 
ATOM     13  C   UNL     1       9.545   2.527   3.214  0.00  0.00    -0.026 A 
ATOM     14  C   UNL     1       9.969   2.225   4.494  0.00  0.00    +0.006 A 
ATOM     15  C   UNL     1      11.034   1.363   4.684  0.00  0.00    +0.004 A 
ENDBRANCH   8  13
ENDBRANCH   1   8
BRANCH   3  16
ATOM     16  C   UNL     1       4.473   0.798   1.351  0.00  0.00    -0.042 C 
BRANCH  16  17
ATOM     17  N   UNL     1       3.444   1.739   0.871  0.00  0.00    +0.386 N 
ATOM     18  H   UNL     1       3.896   2.501   0.353  0.00  0.00    -0.085 HD
ATOM     19  H   UNL     1       2.937   2.126   1.677  0.00  0.00    -0.085 HD
BRANCH  17  20
ATOM     20  C   UNL     1       2.490   1.047  -0.016  0.00  0.00    -0.044 C 
ATOM     21  C   UNL     1       3.044   1.024  -1.442  0.00  0.00    -0.009 C 
BRANCH  20  22
ATOM     22  C   UNL     1       1.175   1.783   0.000  0.00  0.00    -0.062 A 
ATOM     23  C   UNL     1      -0.013   1.076   0.008  0.00  0.00    +0.003 A 
ATOM     24  C   UNL     1      -1.219   1.750   0.017  0.00  0.00    +0.020 A 
ATOM     25  C   UNL     1      -1.237   3.134   0.030  0.00  0.00    +0.041 A 
ATOM     26  C   UNL     1      -0.048   3.841   0.022  0.00  0.00    +0.020 A 
ATOM     27  C   UNL     1       1.157   3.165   0.008  0.00  0.00    +0.003 A 
ATOM     28 CL   UNL     1      -2.752   3.982   0.048  0.00  0.00    -0.084 Cl
ENDBRANCH  20  22
ENDBRANCH  17  20
ENDBRANCH  16  17
ENDBRANCH   3  16
TORSDOF 6
