REMARK  Name = ZINC38677270
REMARK  11 active torsions:
REMARK  status: ('A' for Active; 'I' for Inactive)
REMARK    1  A    between atoms: C_1  and  C_2
REMARK    2  A    between atoms: C_2  and  C_3
REMARK    3  A    between atoms: C_6  and  C_9
REMARK    4  A    between atoms: C_14  and  O_23
REMARK    5  A    between atoms: C_18  and  N_22
REMARK    6  A    between atoms: C_19  and  C_20
REMARK    7  A    between atoms: O_23  and  C_24
REMARK    8  A    between atoms: C_24  and  C_26
REMARK    9  A    between atoms: C_26  and  C_28
REMARK   10  A    between atoms: C_26  and  O_29
REMARK   11  A    between atoms: O_29  and  C_30
REMARK                            x       y       z     vdW  Elec       q    Type
REMARK                         _______ _______ _______ _____ _____    ______ ____
ROOT
ATOM      1  C   UNL     1       2.639  -1.916  -4.925  0.00  0.00    +0.098 C 
ATOM      2  C   UNL     1       3.691  -0.905  -5.296  0.00  0.00    +0.008 A 
ATOM      3  C   UNL     1       3.312   0.277  -5.909  0.00  0.00    +0.012 A 
ATOM      4  C   UNL     1       4.262   1.216  -6.257  0.00  0.00    +0.047 A 
ATOM      5  C   UNL     1       5.604   0.977  -5.992  0.00  0.00    +0.135 A 
ATOM      6  C   UNL     1       5.986  -0.205  -5.379  0.00  0.00    +0.093 A 
ATOM      7  C   UNL     1       5.029  -1.149  -5.029  0.00  0.00    +0.138 A 
ATOM      8  O   UNL     1       5.419  -2.301  -4.430  0.00  0.00    -0.441 OA
ATOM      9  C   UNL     1       4.604  -3.368  -4.434  0.00  0.00    +0.199 C 
ATOM     10  C   UNL     1       3.277  -3.251  -4.661  0.00  0.00    +0.098 C 
ENDROOT
BRANCH   1  14
ATOM     11  C   UNL     1       0.593  -0.608  -1.410  0.00  0.00    -0.048 A 
ATOM     12  C   UNL     1      -0.107  -0.802  -2.586  0.00  0.00    +0.004 A 
ATOM     13  C   UNL     1       0.555  -1.225  -3.723  0.00  0.00    +0.005 A 
ATOM     14  C   UNL     1       1.917  -1.454  -3.685  0.00  0.00    -0.035 A 
ATOM     15  C   UNL     1       2.618  -1.259  -2.510  0.00  0.00    +0.005 A 
ATOM     16  C   UNL     1       1.957  -0.832  -1.373  0.00  0.00    +0.004 A 
BRANCH  11  18
ATOM     17  C   UNL     1      -0.137   1.382  -0.125  0.00  0.00    +0.009 C 
ATOM     18  C   UNL     1      -0.128  -0.147  -0.170  0.00  0.00    +0.032 C 
ENDBRANCH  11  18
ENDBRANCH   1  14
BRANCH   9  19
ATOM     19  N   UNL     1       5.134  -4.612  -4.200  0.00  0.00    -0.328 N 
ATOM     20  H   UNL     1       6.085  -4.711  -4.035  0.00  0.00    +0.145 HD
ATOM     21  H   UNL     1       4.558  -5.393  -4.199  0.00  0.00    +0.145 HD
ENDBRANCH   9  19
BRANCH  10  22
ATOM     22  C   UNL     1       2.462  -4.428  -4.650  0.00  0.00    +0.101 C 
ATOM     23  N   UNL     1       1.815  -5.362  -4.641  0.00  0.00    -0.191 NA
ENDBRANCH  10  22
BRANCH   5  24
ATOM     24  O   UNL     1       6.540   1.900  -6.334  0.00  0.00    -0.423 OA
BRANCH  24  25
ATOM     25  C   UNL     1       7.429   1.573  -7.286  0.00  0.00    +0.353 C 
ATOM     26  O   UNL     1       7.324   0.524  -7.876  0.00  0.00    -0.246 OA
BRANCH  25  27
ATOM     27  C   UNL     1       8.557   2.515  -7.619  0.00  0.00    +0.279 C 
ATOM     28  C   UNL     1       7.987   3.806  -8.209  0.00  0.00    +0.064 C 
BRANCH  27  29
ATOM     29  O   UNL     1       9.427   1.900  -8.571  0.00  0.00    -0.475 OA
BRANCH  29  30
ATOM     30  C   UNL     1      10.751   2.197  -8.481  0.00  0.00    +0.157 A 
ATOM     31  C   UNL     1      11.186   3.162  -7.585  0.00  0.00    +0.048 A 
ATOM     32  C   UNL     1      12.532   3.463  -7.495  0.00  0.00    +0.004 A 
ATOM     33  C   UNL     1      13.445   2.804  -8.298  0.00  0.00    +0.003 A 
ATOM     34  C   UNL     1      13.015   1.842  -9.192  0.00  0.00    +0.042 A 
ATOM     35  C   UNL     1      11.670   1.532  -9.282  0.00  0.00    +0.165 A 
ATOM     36  F   UNL     1      11.250   0.587 -10.152  0.00  0.00    -0.202 F 
ENDBRANCH  29  30
ENDBRANCH  27  29
ENDBRANCH  25  27
ENDBRANCH  24  25
ENDBRANCH   5  24
TORSDOF 9
