REMARK  Name = ZINC32676141
REMARK  6 active torsions:
REMARK  status: ('A' for Active; 'I' for Inactive)
REMARK    1  A    between atoms: C_3  and  N_20
REMARK    2  A    between atoms: C_6  and  N_7
REMARK    3  A    between atoms: C_8  and  C_10
REMARK    4  A    between atoms: C_10  and  C_11
REMARK    5  A    between atoms: N_20  and  S_21
REMARK    6  A    between atoms: S_21  and  C_24
REMARK                            x       y       z     vdW  Elec       q    Type
REMARK                         _______ _______ _______ _____ _____    ______ ____
ROOT
ATOM      1  C   UNL     1       5.776   0.858  -4.254  0.00  0.00    +0.025 A 
ATOM      2  C   UNL     1       5.551  -0.169  -3.359  0.00  0.00    +0.026 A 
ATOM      3  C   UNL     1       4.478  -0.101  -2.480  0.00  0.00    +0.048 A 
ATOM      4  C   UNL     1       3.629   0.997  -2.505  0.00  0.00    +0.026 A 
ATOM      5  C   UNL     1       3.857   2.027  -3.396  0.00  0.00    +0.025 A 
ATOM      6  C   UNL     1       4.930   1.959  -4.275  0.00  0.00    +0.034 A 
ENDROOT
BRANCH   6   7
ATOM      7  N   UNL     1       5.158   3.002  -5.183  0.00  0.00    -0.285 N 
ATOM      8  C   UNL     1       5.675   2.735  -6.399  0.00  0.00    +0.222 C 
ATOM      9  O   UNL     1       5.854   1.585  -6.743  0.00  0.00    -0.275 OA
ATOM     10  H   UNL     1       4.916   4.037  -4.904  0.00  0.00    +0.155 HD
BRANCH   8  11
ATOM     11  C   UNL     1       6.029   3.864  -7.332  0.00  0.00    +0.131 C 
BRANCH  11  12
ATOM     12  C   UNL     1       6.583   3.301  -8.615  0.00  0.00    -0.038 A 
ATOM     13  C   UNL     1       5.734   3.008  -9.666  0.00  0.00    +0.004 A 
ATOM     14  C   UNL     1       6.243   2.492 -10.841  0.00  0.00    +0.004 A 
ATOM     15  C   UNL     1       7.604   2.267 -10.971  0.00  0.00    -0.044 A 
ATOM     16  C   UNL     1       8.453   2.560  -9.921  0.00  0.00    -0.044 A 
ATOM     17  C   UNL     1       7.941   3.083  -8.745  0.00  0.00    +0.008 A 
ATOM     18  C   UNL     1       9.879   2.229 -10.308  0.00  0.00    +0.036 C 
ATOM     19  C   UNL     1       9.864   2.117 -11.847  0.00  0.00    +0.009 C 
ATOM     20  C   UNL     1       8.400   1.719 -12.136  0.00  0.00    +0.036 C 
ENDBRANCH  11  12
ENDBRANCH   8  11
ENDBRANCH   6   7
BRANCH   3  21
ATOM     21  N   UNL     1       4.250  -1.142  -1.573  0.00  0.00    -0.216 N 
ATOM     22  H   UNL     1       3.421  -1.845  -1.740  0.00  0.00    +0.174 HD
BRANCH  21  23
ATOM     23  S   UNL     1       5.229  -1.315  -0.249  0.00  0.00    +0.072 S 
ATOM     24  O   UNL     1       6.566  -1.307  -0.728  0.00  0.00    -0.150 OA
ATOM     25  O   UNL     1       4.698  -2.393   0.510  0.00  0.00    -0.150 OA
BRANCH  23  26
ATOM     26  C   UNL     1       5.037   0.135   0.734  0.00  0.00    +0.112 A 
ATOM     27  C   UNL     1       3.993   0.224   1.636  0.00  0.00    +0.032 A 
ATOM     28  C   UNL     1       3.839   1.361   2.407  0.00  0.00    +0.051 A 
ATOM     29  C   UNL     1       4.731   2.415   2.278  0.00  0.00    +0.162 A 
ATOM     30  C   UNL     1       5.782   2.324   1.373  0.00  0.00    +0.164 A 
ATOM     31  C   UNL     1       5.930   1.181   0.601  0.00  0.00    +0.078 A 
ATOM     32  O   UNL     1       6.673   3.343   1.236  0.00  0.00    -0.485 OA
ATOM     33  C   UNL     1       6.277   4.618   1.753  0.00  0.00    +0.270 C 
ATOM     34  C   UNL     1       5.688   4.407   3.154  0.00  0.00    +0.270 C 
ATOM     35  O   UNL     1       4.561   3.531   3.038  0.00  0.00    -0.485 OA
ENDBRANCH  23  26
ENDBRANCH  21  23
ENDBRANCH   3  21
TORSDOF 6
