REMARK  Name = ZINC12635362
REMARK  8 active torsions:
REMARK  status: ('A' for Active; 'I' for Inactive)
REMARK    1  A    between atoms: C_1  and  C_2
REMARK    2  A    between atoms: C_8  and  N_10
REMARK    3  A    between atoms: C_14  and  C_16
REMARK    4  A    between atoms: C_16  and  O_17
REMARK    5  A    between atoms: O_17  and  C_18
REMARK    6  A    between atoms: C_18  and  C_20
REMARK    7  A    between atoms: C_23  and  S_26
REMARK    8  A    between atoms: S_26  and  N_29
REMARK                            x       y       z     vdW  Elec       q    Type
REMARK                         _______ _______ _______ _____ _____    ______ ____
ROOT
ATOM      1  C   UNL     1       1.121  -7.962  -5.164  0.00  0.00    +0.340 C 
ATOM      2  O   UNL     1       1.056  -8.709  -4.209  0.00  0.00    -0.245 OA
ENDROOT
BRANCH   1   3
ATOM      3  C   UNL     1       1.234  -8.517  -6.529  0.00  0.00    +0.059 A 
ATOM      4  C   UNL     1       1.303  -7.662  -7.630  0.00  0.00    +0.017 A 
ATOM      5  C   UNL     1       1.415  -8.186  -8.901  0.00  0.00    +0.029 A 
ATOM      6  C   UNL     1       1.448  -9.557  -9.087  0.00  0.00    +0.109 A 
ATOM      7  C   UNL     1       1.374 -10.410  -8.000  0.00  0.00    +0.029 A 
ATOM      8  C   UNL     1       1.268  -9.899  -6.723  0.00  0.00    +0.017 A 
BRANCH   6   9
ATOM      9  S   UNL     1       1.583 -10.218 -10.714  0.00  0.00    +0.075 S 
ATOM     10  O   UNL     1       2.184  -9.210 -11.514  0.00  0.00    -0.150 OA
ATOM     11  O   UNL     1       2.142 -11.518 -10.579  0.00  0.00    -0.150 OA
BRANCH   9  12
ATOM     12  N   UNL     1       0.043 -10.423 -11.289  0.00  0.00    -0.203 N 
ATOM     13  C   UNL     1      -0.630 -11.724 -11.174  0.00  0.00    +0.132 C 
ATOM     14  C   UNL     1      -1.310 -12.024 -12.511  0.00  0.00    +0.025 C 
ATOM     15  C   UNL     1      -2.378 -10.962 -12.775  0.00  0.00    +0.038 C 
ATOM     16  C   UNL     1      -1.798  -9.582 -12.620  0.00  0.00    -0.025 A 
ATOM     17  C   UNL     1      -0.636  -9.361 -11.897  0.00  0.00    +0.054 A 
ATOM     18  C   UNL     1      -0.130  -8.072 -11.769  0.00  0.00    +0.025 A 
ATOM     19  C   UNL     1      -0.783  -7.011 -12.364  0.00  0.00    +0.002 A 
ATOM     20  C   UNL     1      -1.941  -7.232 -13.087  0.00  0.00    +0.000 A 
ATOM     21  C   UNL     1      -2.446  -8.512 -13.215  0.00  0.00    +0.005 A 
ENDBRANCH   9  12
ENDBRANCH   6   9
ENDBRANCH   1   3
BRANCH   1  22
ATOM     22  O   UNL     1       1.089  -6.628  -4.980  0.00  0.00    -0.452 OA
BRANCH  22  23
ATOM     23  C   UNL     1       0.976  -6.154  -3.612  0.00  0.00    +0.328 C 
BRANCH  23  28
ATOM     24  N   UNL     1       0.737  -1.969  -1.259  0.00  0.00    -0.296 N 
ATOM     25  C   UNL     1       0.837  -2.634  -2.427  0.00  0.00    +0.306 C 
ATOM     26  O   UNL     1       0.910  -2.019  -3.473  0.00  0.00    -0.252 OA
ATOM     27  N   UNL     1       0.855  -3.982  -2.435  0.00  0.00    -0.237 N 
ATOM     28  C   UNL     1       0.955  -4.647  -3.603  0.00  0.00    +0.258 C 
ATOM     29  O   UNL     1       1.028  -4.034  -4.646  0.00  0.00    -0.272 OA
ATOM     30  H   UNL     1       0.678  -2.460  -0.425  0.00  0.00    +0.151 HD
ATOM     31  H   UNL     1       0.797  -4.473  -1.601  0.00  0.00    +0.159 HD
BRANCH  24  38
ATOM     32  C   UNL     1      -1.435  -0.542   0.020  0.00  0.00    +0.009 C 
ATOM     33  C   UNL     1       0.000  -0.012   0.009  0.00  0.00    +0.006 C 
ATOM     34  C   UNL     1      -0.021   1.518   0.019  0.00  0.00    +0.005 C 
ATOM     35  C   UNL     1       1.415   2.048   0.008  0.00  0.00    +0.000 C 
ATOM     36  C   UNL     1       2.131   1.556  -1.251  0.00  0.00    +0.002 C 
ATOM     37  C   UNL     1       2.152   0.026  -1.261  0.00  0.00    +0.022 C 
ATOM     38  C   UNL     1       0.717  -0.504  -1.250  0.00  0.00    +0.077 C 
ENDBRANCH  24  38
ENDBRANCH  23  28
ENDBRANCH  22  23
ENDBRANCH   1  22
TORSDOF 7
