REMARK  Name = ZINC13028278
REMARK  16 active torsions:
REMARK  status: ('A' for Active; 'I' for Inactive)
REMARK    1  A    between atoms: C_1  and  C_2
REMARK    2  A    between atoms: N_5  and  S_8
REMARK    3  A    between atoms: S_8  and  C_11
REMARK    4  A    between atoms: C_14  and  N_17
REMARK    5  A    between atoms: N_17  and  C_18
REMARK    6  A    between atoms: C_18  and  C_20
REMARK    7  A    between atoms: C_18  and  C_30
REMARK    8  A    between atoms: C_23  and  O_28
REMARK    9  A    between atoms: C_24  and  O_26
REMARK   10  A    between atoms: O_26  and  C_27
REMARK   11  A    between atoms: O_28  and  C_29
REMARK   12  A    between atoms: N_32  and  C_33
REMARK   13  A    between atoms: C_33  and  C_34
REMARK   14  A    between atoms: C_34  and  C_35
REMARK   15  A    between atoms: C_35  and  C_36
REMARK   16  A    between atoms: C_35  and  C_37
REMARK                            x       y       z     vdW  Elec       q    Type
REMARK                         _______ _______ _______ _____ _____    ______ ____
ROOT
ATOM      1  C   UNL     1      -2.482   0.853   0.018  0.00  0.00    +0.188 C 
ENDROOT
BRANCH   1   2
ATOM      2  C   UNL     1      -2.544  -0.021   1.244  0.00  0.00    -0.015 A 
ATOM      3  C   UNL     1      -2.906   0.523   2.462  0.00  0.00    +0.010 A 
ATOM      4  C   UNL     1      -2.966  -0.274   3.590  0.00  0.00    +0.050 A 
ATOM      5  C   UNL     1      -2.662  -1.623   3.501  0.00  0.00    +0.162 A 
ATOM      6  C   UNL     1      -2.297  -2.172   2.275  0.00  0.00    +0.162 A 
ATOM      7  C   UNL     1      -2.245  -1.368   1.148  0.00  0.00    +0.055 A 
BRANCH   6   8
ATOM      8  O   UNL     1      -1.998  -3.495   2.183  0.00  0.00    -0.491 OA
ATOM      9  C   UNL     1      -1.631  -3.989   0.892  0.00  0.00    +0.277 C 
ENDBRANCH   6   8
BRANCH   5  10
ATOM     10  O   UNL     1      -2.720  -2.410   4.609  0.00  0.00    -0.491 OA
ATOM     11  C   UNL     1      -3.103  -1.779   5.833  0.00  0.00    +0.277 C 
ENDBRANCH   5  10
ENDBRANCH   1   2
BRANCH   1  12
ATOM     12  C   UNL     1      -1.187   1.624   0.017  0.00  0.00    +0.238 C 
ATOM     13  O   UNL     1      -1.204   2.837   0.023  0.00  0.00    -0.273 OA
ATOM     14  N   UNL     1      -0.011   0.966   0.007  0.00  0.00    -0.313 N 
ATOM     15  H   UNL     1       0.002  -0.004   0.002  0.00  0.00    +0.149 HD
BRANCH  14  16
ATOM     16  C   UNL     1       1.248   1.716  -0.001  0.00  0.00    +0.104 C 
BRANCH  16  17
ATOM     17  C   UNL     1       2.424   0.737  -0.017  0.00  0.00    +0.022 C 
BRANCH  17  18
ATOM     18  C   UNL     1       3.738   1.520  -0.025  0.00  0.00    -0.016 C 
ATOM     19  C   UNL     1       4.913   0.546   0.084  0.00  0.00    +0.007 C 
ATOM     20  C   UNL     1       3.852   2.312  -1.330  0.00  0.00    +0.007 C 
ENDBRANCH  17  18
ENDBRANCH  16  17
ENDBRANCH  14  16
ENDBRANCH   1  12
BRANCH   1  21
ATOM     21  N   UNL     1      -3.608   1.789   0.029  0.00  0.00    -0.329 N 
ATOM     22  H   UNL     1      -4.024   2.039   0.869  0.00  0.00    +0.147 HD
BRANCH  21  26
ATOM     23  C   UNL     1      -5.024   3.382  -3.548  0.00  0.00    +0.106 A 
ATOM     24  C   UNL     1      -5.619   3.739  -2.351  0.00  0.00    +0.030 A 
ATOM     25  C   UNL     1      -5.152   3.212  -1.163  0.00  0.00    +0.025 A 
ATOM     26  C   UNL     1      -4.084   2.324  -1.171  0.00  0.00    +0.028 A 
ATOM     27  C   UNL     1      -3.486   1.972  -2.375  0.00  0.00    +0.025 A 
ATOM     28  C   UNL     1      -3.961   2.498  -3.560  0.00  0.00    +0.030 A 
BRANCH  23  29
ATOM     29  S   UNL     1      -5.623   4.057  -5.061  0.00  0.00    +0.061 S 
ATOM     30  O   UNL     1      -5.251   3.147  -6.087  0.00  0.00    -0.153 OA
ATOM     31  O   UNL     1      -6.973   4.436  -4.831  0.00  0.00    -0.153 OA
BRANCH  29  36
ATOM     32  C   UNL     1      -4.071   8.831  -7.834  0.00  0.00    +0.007 C 
ATOM     33  C   UNL     1      -3.999   7.814  -6.692  0.00  0.00    -0.012 C 
ATOM     34  C   UNL     1      -3.631   6.440  -7.255  0.00  0.00    +0.020 C 
ATOM     35  C   UNL     1      -3.526   5.433  -6.106  0.00  0.00    +0.110 C 
ATOM     36  N   UNL     1      -4.781   5.455  -5.341  0.00  0.00    -0.177 NA
ATOM     37  C   UNL     1      -5.277   6.742  -4.836  0.00  0.00    +0.110 C 
ATOM     38  C   UNL     1      -5.359   7.734  -5.995  0.00  0.00    +0.020 C 
ENDBRANCH  29  36
ENDBRANCH  23  29
ENDBRANCH  21  26
ENDBRANCH   1  21
TORSDOF 11
