REMARK  Name = ZINC32577034
REMARK  9 active torsions:
REMARK  status: ('A' for Active; 'I' for Inactive)
REMARK    1  A    between atoms: C_1  and  C_2
REMARK    2  A    between atoms: C_5  and  N_8
REMARK    3  A    between atoms: C_17  and  S_18
REMARK    4  A    between atoms: S_18  and  C_19
REMARK    5  A    between atoms: C_19  and  C_20
REMARK    6  A    between atoms: N_22  and  N_23
REMARK    7  A    between atoms: C_24  and  C_25
REMARK    8  A    between atoms: C_28  and  O_32
REMARK    9  A    between atoms: C_30  and  O_31
REMARK                            x       y       z     vdW  Elec       q    Type
REMARK                         _______ _______ _______ _____ _____    ______ ____
ROOT
ATOM      1  N   UNL     1       0.524  -5.254   4.854  0.00  0.00    -0.255 N 
ATOM      2  C   UNL     1       0.767  -4.509   5.958  0.00  0.00    +0.268 A 
ATOM      3  O   UNL     1       1.819  -4.583   6.569  0.00  0.00    -0.267 OA
ATOM      4  C   UNL     1      -0.288  -3.630   6.365  0.00  0.00    +0.076 A 
ATOM      5  C   UNL     1      -0.277  -2.731   7.508  0.00  0.00    -0.023 A 
ATOM      6  C   UNL     1      -1.389  -1.987   7.705  0.00  0.00    -0.004 A 
ATOM      7  S   UNL     1      -2.494  -2.442   6.392  0.00  0.00    -0.073 S 
ATOM      8  C   UNL     1      -1.465  -3.627   5.582  0.00  0.00    +0.117 A 
ATOM      9  N   UNL     1      -1.643  -4.384   4.507  0.00  0.00    -0.215 NA
ATOM     10  C   UNL     1      -0.647  -5.186   4.157  0.00  0.00    +0.178 A 
ATOM     11  C   UNL     1      -1.633  -0.993   8.799  0.00  0.00    +0.043 C 
ATOM     12  C   UNL     1      -0.575  -1.202   9.891  0.00  0.00    +0.005 C 
ATOM     13  C   UNL     1       0.802  -1.296   9.227  0.00  0.00    +0.005 C 
ATOM     14  C   UNL     1       0.915  -2.610   8.453  0.00  0.00    +0.037 C 
ENDROOT
BRANCH   1  19
ATOM     15  C   UNL     1       4.554  -8.816   3.046  0.00  0.00    +0.044 C 
ATOM     16  C   UNL     1       3.483  -7.870   3.526  0.00  0.00    -0.050 A 
ATOM     17  C   UNL     1       3.451  -6.570   3.058  0.00  0.00    +0.005 A 
ATOM     18  C   UNL     1       2.472  -5.700   3.496  0.00  0.00    +0.026 A 
ATOM     19  C   UNL     1       1.518  -6.134   4.407  0.00  0.00    +0.052 A 
ATOM     20  C   UNL     1       1.556  -7.439   4.880  0.00  0.00    +0.026 A 
ATOM     21  C   UNL     1       2.535  -8.305   4.434  0.00  0.00    +0.005 A 
ENDBRANCH   1  19
BRANCH  10  22
ATOM     22  S   UNL     1      -0.843  -6.207   2.735  0.00  0.00    -0.078 S 
BRANCH  22  23
ATOM     23  C   UNL     1      -2.513  -5.724   2.230  0.00  0.00    +0.174 C 
BRANCH  23  24
ATOM     24  C   UNL     1      -2.906  -6.493   0.995  0.00  0.00    +0.242 C 
ATOM     25  O   UNL     1      -2.134  -7.289   0.504  0.00  0.00    -0.273 OA
ATOM     26  N   UNL     1      -4.117  -6.296   0.435  0.00  0.00    -0.206 N 
ATOM     27  H   UNL     1      -4.817  -5.574   0.880  0.00  0.00    +0.177 HD
BRANCH  26  28
ATOM     28  N   UNL     1      -4.482  -7.011  -0.713  0.00  0.00    -0.188 NA
ATOM     29  C   UNL     1      -5.592  -6.731  -1.326  0.00  0.00    +0.142 C 
BRANCH  29  30
ATOM     30  C   UNL     1      -6.221  -5.412  -1.145  0.00  0.00    +0.036 A 
ATOM     31  C   UNL     1      -5.447  -4.311  -0.768  0.00  0.00    +0.016 A 
ATOM     32  C   UNL     1      -6.040  -3.079  -0.600  0.00  0.00    +0.046 A 
ATOM     33  C   UNL     1      -7.406  -2.925  -0.804  0.00  0.00    +0.120 A 
ATOM     34  C   UNL     1      -8.183  -4.012  -1.178  0.00  0.00    +0.091 A 
ATOM     35  C   UNL     1      -7.599  -5.254  -1.355  0.00  0.00    +0.129 A 
BRANCH  35  36
ATOM     36  O   UNL     1      -8.358  -6.317  -1.726  0.00  0.00    -0.506 OA
ATOM     37  H   UNL     1      -9.438  -6.191  -1.891  0.00  0.00    +0.292 HD
ENDBRANCH  35  36
BRANCH  33  38
ATOM     38  O   UNL     1      -7.982  -1.707  -0.637  0.00  0.00    -0.507 OA
ATOM     39  H   UNL     1      -9.063  -1.583  -0.797  0.00  0.00    +0.292 HD
ENDBRANCH  33  38
ENDBRANCH  29  30
ENDBRANCH  26  28
ENDBRANCH  23  24
ENDBRANCH  22  23
ENDBRANCH  10  22
TORSDOF 8
