REMARK  Name = ZINC08593008
REMARK  12 active torsions:
REMARK  status: ('A' for Active; 'I' for Inactive)
REMARK    1  A    between atoms: C_1  and  C_2
REMARK    2  A    between atoms: C_5  and  C_8
REMARK    3  A    between atoms: C_8  and  N_9
REMARK    4  A    between atoms: C_10  and  C_12
REMARK    5  A    between atoms: C_12  and  C_13
REMARK    6  A    between atoms: C_13  and  C_14
REMARK    7  A    between atoms: C_14  and  C_15
REMARK    8  A    between atoms: C_15  and  C_16
REMARK    9  A    between atoms: C_16  and  N_17
REMARK   10  A    between atoms: N_25  and  C_28
REMARK   11  A    between atoms: C_28  and  C_29
REMARK   12  A    between atoms: C_36  and  C_38
REMARK                            x       y       z     vdW  Elec       q    Type
REMARK                         _______ _______ _______ _____ _____    ______ ____
ROOT
ATOM      1  N   UNL     1       6.139 -12.140  -0.055  0.00  0.00    -0.260 N 
ATOM      2  C   UNL     1       6.123 -12.828   1.109  0.00  0.00    +0.271 A 
ATOM      3  O   UNL     1       6.120 -12.239   2.175  0.00  0.00    -0.266 OA
ATOM      4  C   UNL     1       6.110 -14.226   1.070  0.00  0.00    +0.100 A 
ATOM      5  C   UNL     1       6.112 -14.920  -0.143  0.00  0.00    +0.066 A 
ATOM      6  C   UNL     1       6.098 -16.304   0.004  0.00  0.00    +0.034 A 
ATOM      7  C   UNL     1       6.084 -16.845   1.241  0.00  0.00    +0.048 A 
ATOM      8  S   UNL     1       6.088 -15.521   2.277  0.00  0.00    -0.090 S 
ATOM      9  N   UNL     1       6.130 -14.136  -1.306  0.00  0.00    -0.284 N 
ATOM     10  C   UNL     1       6.136 -12.796  -1.228  0.00  0.00    +0.333 A 
ATOM     11  O   UNL     1       6.145 -12.151  -2.259  0.00  0.00    -0.246 OA
ENDROOT
BRANCH   1  12
ATOM     12  C   UNL     1       6.153 -10.675  -0.038  0.00  0.00    +0.130 C 
BRANCH  12  13
ATOM     13  C   UNL     1       4.715 -10.151  -0.037  0.00  0.00    +0.022 C 
BRANCH  13  14
ATOM     14  C   UNL     1       4.730  -8.621  -0.019  0.00  0.00    +0.002 C 
BRANCH  14  15
ATOM     15  C   UNL     1       3.293  -8.097  -0.017  0.00  0.00    +0.009 C 
BRANCH  15  16
ATOM     16  C   UNL     1       3.308  -6.568   0.001  0.00  0.00    +0.096 C 
BRANCH  16  18
ATOM     17  N   UNL     1       1.658  -4.724   0.017  0.00  0.00    -0.311 N 
ATOM     18  C   UNL     1       1.892  -6.051   0.002  0.00  0.00    +0.213 C 
ATOM     19  O   UNL     1       0.962  -6.831  -0.010  0.00  0.00    -0.276 OA
ATOM     20  H   UNL     1       2.401  -4.101   0.027  0.00  0.00    +0.149 HD
BRANCH  17  21
ATOM     21  C   UNL     1       0.282  -4.223   0.019  0.00  0.00    +0.139 C 
BRANCH  21  26
ATOM     22  C   UNL     1       0.334   1.556   0.086  0.00  0.00    +0.044 C 
ATOM     23  C   UNL     1       0.321   0.049   0.069  0.00  0.00    -0.050 A 
ATOM     24  C   UNL     1       0.319  -0.628  -1.137  0.00  0.00    +0.003 A 
ATOM     25  C   UNL     1       0.307  -2.011  -1.153  0.00  0.00    +0.005 A 
ATOM     26  C   UNL     1       0.296  -2.716   0.036  0.00  0.00    -0.030 A 
ATOM     27  C   UNL     1       0.299  -2.039   1.242  0.00  0.00    +0.005 A 
ATOM     28  C   UNL     1       0.315  -0.656   1.258  0.00  0.00    +0.003 A 
ENDBRANCH  21  26
ENDBRANCH  17  21
ENDBRANCH  16  18
ENDBRANCH  15  16
ENDBRANCH  14  15
ENDBRANCH  13  14
ENDBRANCH  12  13
ENDBRANCH   1  12
BRANCH   9  29
ATOM     29  C   UNL     1       6.133 -14.786  -2.619  0.00  0.00    +0.222 C 
BRANCH  29  30
ATOM     30  C   UNL     1       4.714 -14.995  -3.080  0.00  0.00    +0.236 C 
ATOM     31  O   UNL     1       3.790 -14.636  -2.381  0.00  0.00    -0.274 OA
ATOM     32  N   UNL     1       4.471 -15.580  -4.270  0.00  0.00    -0.297 N 
ATOM     33  C   UNL     1       5.576 -15.911  -5.181  0.00  0.00    +0.108 C 
ATOM     34  C   UNL     1       5.479 -17.393  -5.555  0.00  0.00    +0.019 C 
ATOM     35  C   UNL     1       4.088 -17.682  -6.123  0.00  0.00    +0.003 C 
ATOM     36  C   UNL     1       3.029 -17.382  -5.060  0.00  0.00    +0.022 C 
ATOM     37  C   UNL     1       3.098 -15.905  -4.678  0.00  0.00    +0.073 C 
ATOM     38  C   UNL     1       2.140 -15.633  -3.516  0.00  0.00    +0.028 C 
ENDBRANCH  29  30
ENDBRANCH   9  29
TORSDOF 10
