REMARK  Name = ZINC39654579
REMARK  8 active torsions:
REMARK  status: ('A' for Active; 'I' for Inactive)
REMARK    1  A    between atoms: C_1  and  C_2
REMARK    2  A    between atoms: C_2  and  C_3
REMARK    3  A    between atoms: C_6  and  C_9
REMARK    4  A    between atoms: C_9  and  C_10
REMARK    5  A    between atoms: C_10  and  N_11
REMARK    6  A    between atoms: C_12  and  C_14
REMARK    7  A    between atoms: C_25  and  C_27
REMARK    8  A    between atoms: C_30  and  C_32
REMARK                            x       y       z     vdW  Elec       q    Type
REMARK                         _______ _______ _______ _____ _____    ______ ____
ROOT
ATOM      1  C   UNL     1       5.207  -0.837   8.819  0.00  0.00    +0.100 C 
ATOM      2  C   UNL     1       6.407  -1.718   8.406  0.00  0.00    +0.121 C 
ATOM      3  N   UNL     1       7.566  -0.793   8.400  0.00  0.00    -0.294 N 
ATOM      4  C   UNL     1       7.347   0.079   9.579  0.00  0.00    +0.115 C 
ATOM      5  C   UNL     1       5.828   0.339   9.591  0.00  0.00    -0.004 C 
ATOM      6  C   UNL     1       5.513   1.657   8.890  0.00  0.00    -0.010 C 
ATOM      7  C   UNL     1       6.093   2.816   9.707  0.00  0.00    -0.082 C 
ATOM      8  N   UNL     1       5.511   2.805  11.054  0.00  0.00    +0.379 N 
ATOM      9  C   UNL     1       5.895   1.574  11.756  0.00  0.00    -0.082 C 
ATOM     10  C   UNL     1       5.308   0.363  11.026  0.00  0.00    -0.010 C 
ATOM     11  C   UNL     1       8.587  -0.755   7.521  0.00  0.00    +0.282 C 
ATOM     12  O   UNL     1       9.472   0.071   7.653  0.00  0.00    -0.267 OA
ATOM     13  H   UNL     1       5.847   3.604  11.571  0.00  0.00    -0.086 HD
ATOM     14  H   UNL     1       4.505   2.851  10.986  0.00  0.00    -0.086 HD
ENDROOT
BRANCH  11  15
ATOM     15  C   UNL     1       8.633  -1.706   6.409  0.00  0.00    +0.190 A 
ATOM     16  C   UNL     1       9.617  -1.780   5.447  0.00  0.00    +0.055 A 
ATOM     17  C   UNL     1       9.263  -2.824   4.587  0.00  0.00    +0.050 A 
ATOM     18  C   UNL     1       8.088  -3.344   5.049  0.00  0.00    +0.136 A 
ATOM     19  O   UNL     1       7.721  -2.667   6.150  0.00  0.00    -0.450 OA
BRANCH  18  20
ATOM     20  C   UNL     1       7.347  -4.469   4.443  0.00  0.00    +0.017 A 
ATOM     21  C   UNL     1       7.843  -5.099   3.299  0.00  0.00    +0.014 A 
ATOM     22  C   UNL     1       7.147  -6.149   2.738  0.00  0.00    +0.039 A 
ATOM     23  C   UNL     1       5.958  -6.579   3.306  0.00  0.00    +0.123 A 
ATOM     24  C   UNL     1       5.461  -5.956   4.441  0.00  0.00    +0.039 A 
ATOM     25  C   UNL     1       6.152  -4.909   5.014  0.00  0.00    +0.014 A 
ATOM     26  F   UNL     1       5.280  -7.608   2.752  0.00  0.00    -0.205 F 
ENDBRANCH  18  20
ENDBRANCH  11  15
BRANCH   1  28
ATOM     27  N   UNL     1       3.161  -0.061   7.666  0.00  0.00    -0.315 N 
ATOM     28  C   UNL     1       4.478  -0.337   7.598  0.00  0.00    +0.218 C 
ATOM     29  O   UNL     1       5.077  -0.182   6.555  0.00  0.00    -0.275 OA
ATOM     30  H   UNL     1       2.682  -0.184   8.500  0.00  0.00    +0.149 HD
BRANCH  27  31
ATOM     31  C   UNL     1       2.452   0.425   6.479  0.00  0.00    +0.109 C 
BRANCH  31  32
ATOM     32  C   UNL     1       0.980   0.659   6.824  0.00  0.00    +0.054 C 
BRANCH  32  36
ATOM     33  C   UNL     1      -1.087   2.077   3.366  0.00  0.00    -0.048 A 
ATOM     34  C   UNL     1      -1.004   0.719   3.613  0.00  0.00    +0.004 A 
ATOM     35  C   UNL     1      -0.335   0.260   4.732  0.00  0.00    +0.004 A 
ATOM     36  C   UNL     1       0.252   1.159   5.604  0.00  0.00    -0.046 A 
ATOM     37  C   UNL     1       0.169   2.516   5.356  0.00  0.00    +0.004 A 
ATOM     38  C   UNL     1      -0.497   2.975   4.234  0.00  0.00    +0.004 A 
BRANCH  33  40
ATOM     39  C   UNL     1      -0.840   2.677   0.972  0.00  0.00    +0.009 C 
ATOM     40  C   UNL     1      -1.817   2.577   2.146  0.00  0.00    +0.032 C 
ENDBRANCH  33  40
ENDBRANCH  32  36
ENDBRANCH  31  32
ENDBRANCH  27  31
ENDBRANCH   1  28
TORSDOF 7
