REMARK  Name = ZINC44874220
REMARK  8 active torsions:
REMARK  status: ('A' for Active; 'I' for Inactive)
REMARK    1  A    between atoms: C_1  and  C_2
REMARK    2  A    between atoms: C_2  and  C_3
REMARK    3  A    between atoms: C_6  and  N_9
REMARK    4  A    between atoms: N_9  and  C_10
REMARK    5  A    between atoms: C_11  and  C_13
REMARK    6  A    between atoms: C_13  and  C_15
REMARK    7  A    between atoms: C_13  and  C_16
REMARK    8  A    between atoms: N_17  and  O_18
REMARK                            x       y       z     vdW  Elec       q    Type
REMARK                         _______ _______ _______ _____ _____    ______ ____
ROOT
ATOM      1  N   UNL     1      -4.829  -2.792  -1.023  0.00  0.00    -0.301 N 
ATOM      2  C   UNL     1      -5.731  -2.367   0.050  0.00  0.00    +0.132 C 
ATOM      3  C   UNL     1      -5.327  -3.387  -2.126  0.00  0.00    +0.226 C 
ATOM      4  O   UNL     1      -6.526  -3.505  -2.262  0.00  0.00    -0.275 OA
ENDROOT
BRANCH   1   8
ATOM      5  C   UNL     1      -1.065  -1.713   0.669  0.00  0.00    -0.011 C 
ATOM      6  C   UNL     1      -1.613  -0.862  -0.477  0.00  0.00    +0.005 C 
ATOM      7  C   UNL     1      -3.120  -1.093  -0.608  0.00  0.00    +0.023 C 
ATOM      8  C   UNL     1      -3.386  -2.571  -0.898  0.00  0.00    +0.076 C 
ATOM      9  C   UNL     1      -2.838  -3.423   0.249  0.00  0.00    +0.023 C 
ATOM     10  C   UNL     1      -1.331  -3.192   0.380  0.00  0.00    +0.005 C 
BRANCH   5  12
ATOM     11  C   UNL     1       0.702  -0.032   1.212  0.00  0.00    +0.004 C 
ATOM     12  C   UNL     1       0.442  -1.483   0.800  0.00  0.00    -0.000 C 
ENDBRANCH   5  12
ENDBRANCH   1   8
BRANCH   3  13
ATOM     13  C   UNL     1      -4.393  -3.905  -3.189  0.00  0.00    +0.138 C 
ATOM     14  C   UNL     1      -3.888  -2.736  -4.037  0.00  0.00    +0.025 C 
BRANCH  13  15
ATOM     15  C   UNL     1      -5.127  -4.883  -4.069  0.00  0.00    +0.143 C 
ATOM     16  N   UNL     1      -5.665  -4.482  -5.173  0.00  0.00    -0.076 NA
ATOM     17  N   UNL     1      -5.224  -6.206  -3.696  0.00  0.00    -0.343 N 
ATOM     18  H   UNL     1      -4.819  -6.507  -2.868  0.00  0.00    +0.144 HD
ATOM     19  H   UNL     1      -5.696  -6.836  -4.263  0.00  0.00    +0.144 HD
BRANCH  16  20
ATOM     20  O   UNL     1      -6.355  -5.402  -5.999  0.00  0.00    -0.408 OA
ATOM     21  H   UNL     1      -6.723  -5.009  -6.803  0.00  0.00    +0.328 HD
ENDBRANCH  16  20
ENDBRANCH  13  15
ENDBRANCH   3  13
TORSDOF 5
