REMARK  Name = ZINC44170734
REMARK  14 active torsions:
REMARK  status: ('A' for Active; 'I' for Inactive)
REMARK    1  A    between atoms: C_1  and  C_2
REMARK    2  A    between atoms: C_2  and  C_3
REMARK    3  A    between atoms: C_2  and  C_4
REMARK    4  A    between atoms: C_2  and  O_39
REMARK    5  A    between atoms: C_12  and  O_13
REMARK    6  A    between atoms: O_13  and  C_14
REMARK    7  A    between atoms: C_18  and  C_20
REMARK    8  A    between atoms: C_20  and  O_21
REMARK    9  A    between atoms: O_21  and  C_22
REMARK   10  A    between atoms: C_24  and  O_37
REMARK   11  A    between atoms: C_26  and  O_36
REMARK   12  A    between atoms: C_28  and  O_35
REMARK   13  A    between atoms: C_30  and  C_33
REMARK   14  A    between atoms: C_33  and  O_34
REMARK                            x       y       z     vdW  Elec       q    Type
REMARK                         _______ _______ _______ _____ _____    ______ ____
ROOT
ATOM      1  C   UNL     1      -1.433  -0.534   0.013  0.00  0.00    +0.209 C 
ATOM      2  C   UNL     1      -1.448  -2.079  -0.058  0.00  0.00    +0.090 C 
ATOM      3  C   UNL     1      -2.669  -2.341  -0.919  0.00  0.00    +0.040 A 
ATOM      4  C   UNL     1      -3.000  -1.136  -1.535  0.00  0.00    +0.131 A 
ATOM      5  C   UNL     1      -4.102  -1.080  -2.385  0.00  0.00    +0.093 A 
ATOM      6  C   UNL     1      -4.861  -2.212  -2.624  0.00  0.00    +0.146 A 
ATOM      7  C   UNL     1      -4.514  -3.425  -2.003  0.00  0.00    +0.106 A 
ATOM      8  C   UNL     1      -3.408  -3.482  -1.145  0.00  0.00    +0.141 A 
ATOM      9  C   UNL     1      -5.337  -4.613  -2.278  0.00  0.00    +0.196 A 
ATOM     10  O   UNL     1      -5.084  -5.693  -1.770  0.00  0.00    -0.287 OA
ATOM     11  C   UNL     1      -6.439  -4.451  -3.162  0.00  0.00    +0.095 A 
ATOM     12  C   UNL     1      -6.684  -3.244  -3.701  0.00  0.00    +0.135 A 
ATOM     13  O   UNL     1      -5.931  -2.168  -3.446  0.00  0.00    -0.457 OA
ATOM     14  O   UNL     1      -2.127  -0.148  -1.186  0.00  0.00    -0.485 OA
ENDROOT
BRANCH   1  16
ATOM     15  C   UNL     1      -0.019   1.526   0.010  0.00  0.00    +0.045 C 
ATOM     16  C   UNL     1       0.002  -0.004   0.002  0.00  0.00    +0.097 C 
ATOM     17  C   UNL     1       0.742  -0.511   1.242  0.00  0.00    +0.045 C 
BRANCH  16  18
ATOM     18  O   UNL     1       0.671  -0.465  -1.174  0.00  0.00    -0.385 OA
ATOM     19  H   UNL     1       0.256  -0.181  -1.999  0.00  0.00    +0.210 HD
ENDBRANCH  16  18
ENDBRANCH   1  16
BRANCH   8  20
ATOM     20  O   UNL     1      -3.067  -4.649  -0.543  0.00  0.00    -0.494 OA
ATOM     21  C   UNL     1      -3.654  -4.917   0.732  0.00  0.00    +0.277 C 
ENDBRANCH   8  20
BRANCH  12  22
ATOM     22  C   UNL     1      -7.857  -3.097  -4.635  0.00  0.00    +0.237 C 
BRANCH  22  23
ATOM     23  O   UNL     1      -8.824  -2.221  -4.051  0.00  0.00    -0.341 OA
BRANCH  23  24
ATOM     24  C   UNL     1      -9.983  -2.013  -4.860  0.00  0.00    +0.282 C 
ATOM     25  C   UNL     1     -10.998  -1.165  -4.088  0.00  0.00    +0.201 C 
ATOM     26  C   UNL     1     -12.211  -0.895  -4.983  0.00  0.00    +0.179 C 
ATOM     27  C   UNL     1     -11.741  -0.211  -6.271  0.00  0.00    +0.177 C 
ATOM     28  C   UNL     1     -10.698  -1.096  -6.957  0.00  0.00    +0.178 C 
ATOM     29  O   UNL     1      -9.611  -1.333  -6.060  0.00  0.00    -0.341 OA
BRANCH  27  30
ATOM     30  O   UNL     1     -11.160   1.055  -5.954  0.00  0.00    -0.386 OA
ATOM     31  H   UNL     1     -11.766   1.666  -5.511  0.00  0.00    +0.210 HD
ENDBRANCH  27  30
BRANCH  26  32
ATOM     32  O   UNL     1     -13.132  -0.045  -4.297  0.00  0.00    -0.386 OA
ATOM     33  H   UNL     1     -13.466  -0.414  -3.468  0.00  0.00    +0.210 HD
ENDBRANCH  26  32
BRANCH  25  34
ATOM     34  O   UNL     1     -11.414  -1.867  -2.916  0.00  0.00    -0.384 OA
ATOM     35  H   UNL     1     -10.694  -2.075  -2.305  0.00  0.00    +0.210 HD
ENDBRANCH  25  34
BRANCH  28  36
ATOM     36  C   UNL     1     -10.179  -0.393  -8.213  0.00  0.00    +0.190 C 
BRANCH  36  37
ATOM     37  O   UNL     1      -9.293  -1.266  -8.917  0.00  0.00    -0.392 OA
ATOM     38  H   UNL     1      -8.925  -0.884  -9.726  0.00  0.00    +0.210 HD
ENDBRANCH  36  37
ENDBRANCH  28  36
ENDBRANCH  23  24
ENDBRANCH  22  23
ENDBRANCH  12  22
TORSDOF 11
