REMARK  Name = ZINC36506241
REMARK  8 active torsions:
REMARK  status: ('A' for Active; 'I' for Inactive)
REMARK    1  A    between atoms: C_4  and  O_34
REMARK    2  A    between atoms: C_5  and  C_7
REMARK    3  A    between atoms: C_7  and  C_9
REMARK    4  A    between atoms: C_7  and  N_18
REMARK    5  A    between atoms: N_11  and  C_12
REMARK    6  A    between atoms: N_18  and  C_19
REMARK    7  A    between atoms: C_19  and  C_20
REMARK    8  A    between atoms: C_25  and  C_27
REMARK                            x       y       z     vdW  Elec       q    Type
REMARK                         _______ _______ _______ _____ _____    ______ ____
ROOT
ATOM      1  C   UNL     1       2.875  -6.801   3.208  0.00  0.00    +0.196 C 
ENDROOT
BRANCH   1   6
ATOM      2  C   UNL     1       1.757  -7.369  -0.354  0.00  0.00    +0.001 A 
ATOM      3  C   UNL     1       0.965  -8.495  -0.222  0.00  0.00    +0.004 A 
ATOM      4  C   UNL     1       0.789  -9.075   1.019  0.00  0.00    +0.046 A 
ATOM      5  C   UNL     1       1.407  -8.528   2.134  0.00  0.00    +0.122 A 
ATOM      6  C   UNL     1       2.202  -7.399   1.999  0.00  0.00    +0.023 A 
ATOM      7  C   UNL     1       2.374  -6.821   0.755  0.00  0.00    +0.009 A 
BRANCH   5   8
ATOM      8  O   UNL     1       1.235  -9.097   3.356  0.00  0.00    -0.506 OA
ATOM      9  H   UNL     1       1.843  -9.826   3.539  0.00  0.00    +0.292 HD
ENDBRANCH   5   8
ENDBRANCH   1   6
BRANCH   1  10
ATOM     10  C   UNL     1       4.087  -6.019   2.772  0.00  0.00    +0.238 C 
ATOM     11  O   UNL     1       4.162  -4.833   3.013  0.00  0.00    -0.273 OA
ATOM     12  N   UNL     1       5.088  -6.638   2.116  0.00  0.00    -0.311 N 
ATOM     13  H   UNL     1       4.998  -7.569   1.859  0.00  0.00    +0.149 HD
BRANCH  12  14
ATOM     14  C   UNL     1       6.314  -5.905   1.789  0.00  0.00    +0.073 C 
ATOM     15  C   UNL     1       6.119  -5.145   0.476  0.00  0.00    +0.022 C 
ATOM     16  C   UNL     1       7.399  -4.379   0.135  0.00  0.00    +0.002 C 
ATOM     17  C   UNL     1       8.559  -5.365  -0.013  0.00  0.00    +0.000 C 
ATOM     18  C   UNL     1       8.754  -6.125   1.300  0.00  0.00    +0.002 C 
ATOM     19  C   UNL     1       7.474  -6.891   1.641  0.00  0.00    +0.022 C 
ENDBRANCH  12  14
ENDBRANCH   1  10
BRANCH   1  20
ATOM     20  N   UNL     1       1.939  -5.908   3.896  0.00  0.00    -0.274 N 
ATOM     21  C   UNL     1       1.689  -6.078   5.210  0.00  0.00    +0.248 C 
ATOM     22  O   UNL     1       0.829  -5.414   5.755  0.00  0.00    -0.270 OA
BRANCH  21  23
ATOM     23  C   UNL     1       2.461  -7.070   5.987  0.00  0.00    +0.037 A 
ATOM     24  C   UNL     1       3.808  -7.293   5.696  0.00  0.00    +0.016 A 
ATOM     25  C   UNL     1       4.523  -8.220   6.424  0.00  0.00    +0.039 A 
ATOM     26  C   UNL     1       3.906  -8.930   7.443  0.00  0.00    +0.123 A 
ATOM     27  C   UNL     1       2.569  -8.712   7.736  0.00  0.00    +0.039 A 
ATOM     28  C   UNL     1       1.846  -7.783   7.018  0.00  0.00    +0.016 A 
ATOM     29  F   UNL     1       4.612  -9.838   8.153  0.00  0.00    -0.205 F 
ENDBRANCH  21  23
BRANCH  20  30
ATOM     30  C   UNL     1       1.276  -4.832   3.157  0.00  0.00    +0.183 C 
BRANCH  30  31
ATOM     31  C   UNL     1       2.012  -3.537   3.386  0.00  0.00    +0.122 A 
ATOM     32  C   UNL     1       2.875  -2.961   2.530  0.00  0.00    +0.046 A 
ATOM     33  C   UNL     1       3.327  -1.770   3.144  0.00  0.00    +0.041 A 
ATOM     34  C   UNL     1       2.713  -1.690   4.338  0.00  0.00    +0.195 A 
ATOM     35  O   UNL     1       1.913  -2.760   4.477  0.00  0.00    -0.466 OA
ENDBRANCH  30  31
ENDBRANCH  20  30
ENDBRANCH   1  20
TORSDOF 8
