REMARK  Name = ZINC09584388
REMARK  6 active torsions:
REMARK  status: ('A' for Active; 'I' for Inactive)
REMARK    1  A    between atoms: C_1  and  C_2
REMARK    2  A    between atoms: C_4  and  C_29
REMARK    3  A    between atoms: C_12  and  C_14
REMARK    4  A    between atoms: C_14  and  S_15
REMARK    5  A    between atoms: S_15  and  C_16
REMARK    6  A    between atoms: C_20  and  C_22
REMARK                            x       y       z     vdW  Elec       q    Type
REMARK                         _______ _______ _______ _____ _____    ______ ____
ROOT
ATOM      1  C   UNL     1      -0.018   1.503   0.010  0.00  0.00    +0.044 C 
ATOM      2  C   UNL     1       0.002  -0.004   0.002  0.00  0.00    -0.049 A 
ATOM      3  C   UNL     1       0.006  -0.698  -1.199  0.00  0.00    +0.009 A 
ATOM      4  C   UNL     1       0.024  -2.068  -1.235  0.00  0.00    -0.024 A 
ATOM      5  C   UNL     1       0.040  -2.822  -0.038  0.00  0.00    +0.083 A 
ATOM      6  C   UNL     1       0.036  -2.081   1.166  0.00  0.00    +0.041 A 
ATOM      7  C   UNL     1       0.023  -0.709   1.191  0.00  0.00    +0.020 A 
ATOM      8  S   UNL     1       0.059  -3.361   2.397  0.00  0.00    -0.052 S 
ATOM      9  C   UNL     1       0.073  -4.752   1.275  0.00  0.00    +0.165 A 
ATOM     10  N   UNL     1       0.059  -4.165   0.101  0.00  0.00    -0.224 NA
ATOM     11  N   UNL     1       0.093  -6.106   1.569  0.00  0.00    -0.264 N 
ATOM     12  C   UNL     1       0.104  -6.517   2.853  0.00  0.00    +0.229 C 
ATOM     13  O   UNL     1       0.097  -5.701   3.750  0.00  0.00    -0.275 OA
ATOM     14  C   UNL     1       0.027  -2.779  -2.563  0.00  0.00    +0.046 C 
ATOM     15  H   UNL     1       0.099  -6.758   0.851  0.00  0.00    +0.157 HD
ENDROOT
BRANCH  12  16
ATOM     16  C   UNL     1       0.125  -7.989   3.172  0.00  0.00    +0.173 C 
BRANCH  16  17
ATOM     17  S   UNL     1       0.136  -8.217   4.972  0.00  0.00    -0.077 S 
BRANCH  17  18
ATOM     18  C   UNL     1       0.161  -9.967   5.180  0.00  0.00    +0.185 A 
ATOM     19  N   UNL     1       0.169 -10.626   6.360  0.00  0.00    -0.253 N 
ATOM     20  H   UNL     1       0.163 -10.231   7.246  0.00  0.00    +0.191 HD
ATOM     21  N   UNL     1       0.189 -11.996   6.051  0.00  0.00    -0.152 NA
ATOM     22  C   UNL     1       0.192 -12.092   4.741  0.00  0.00    +0.183 A 
ATOM     23  N   UNL     1       0.169 -10.859   4.215  0.00  0.00    -0.201 NA
BRANCH  22  24
ATOM     24  C   UNL     1       0.210 -13.360   3.970  0.00  0.00    +0.035 A 
ATOM     25  C   UNL     1       0.217 -13.331   2.576  0.00  0.00    +0.013 A 
ATOM     26  C   UNL     1       0.235 -14.512   1.864  0.00  0.00    +0.001 A 
ATOM     27  C   UNL     1       0.246 -15.725   2.530  0.00  0.00    +0.001 A 
ATOM     28  C   UNL     1       0.239 -15.761   3.912  0.00  0.00    +0.016 A 
ATOM     29  C   UNL     1       0.227 -14.584   4.636  0.00  0.00    +0.029 A 
ATOM     30 BR   UNL     1       0.225 -14.635   6.526  0.00  0.00    -0.050 Br
ENDBRANCH  22  24
ENDBRANCH  17  18
ENDBRANCH  16  17
ENDBRANCH  12  16
TORSDOF 4
