REMARK  Name = ZINC38491195
REMARK  11 active torsions:
REMARK  status: ('A' for Active; 'I' for Inactive)
REMARK    1  A    between atoms: C_1  and  C_2
REMARK    2  A    between atoms: C_5  and  C_8
REMARK    3  A    between atoms: C_8  and  N_9
REMARK    4  A    between atoms: C_10  and  C_12
REMARK    5  A    between atoms: C_13  and  C_24
REMARK    6  A    between atoms: N_14  and  C_17
REMARK    7  A    between atoms: C_20  and  C_23
REMARK    8  A    between atoms: C_24  and  S_25
REMARK    9  A    between atoms: S_25  and  C_26
REMARK   10  A    between atoms: C_28  and  C_33
REMARK   11  A    between atoms: C_30  and  C_32
REMARK                            x       y       z     vdW  Elec       q    Type
REMARK                         _______ _______ _______ _____ _____    ______ ____
ROOT
ATOM      1  C   UNL     1       3.107  -6.541  -0.051  0.00  0.00    +0.171 A 
ATOM      2  C   UNL     1       3.507  -7.847  -0.066  0.00  0.00    +0.087 A 
ATOM      3  N   UNL     1       4.858  -7.842  -0.071  0.00  0.00    -0.215 N 
ATOM      4  N   UNL     1       5.257  -6.498  -0.059  0.00  0.00    -0.060 NA
ATOM      5  N   UNL     1       4.201  -5.761  -0.053  0.00  0.00    -0.124 NA
ENDROOT
BRANCH   3   6
ATOM      6  C   UNL     1       5.699  -8.964  -0.085  0.00  0.00    +0.067 A 
ATOM      7  C   UNL     1       5.329 -10.119   0.590  0.00  0.00    +0.028 A 
ATOM      8  C   UNL     1       6.159 -11.223   0.574  0.00  0.00    +0.005 A 
ATOM      9  C   UNL     1       7.359 -11.177  -0.113  0.00  0.00    -0.050 A 
ATOM     10  C   UNL     1       7.730 -10.028  -0.785  0.00  0.00    +0.005 A 
ATOM     11  C   UNL     1       6.901  -8.923  -0.779  0.00  0.00    +0.028 A 
ATOM     12  C   UNL     1       8.263 -12.383  -0.128  0.00  0.00    +0.044 C 
ENDBRANCH   3   6
BRANCH   1  14
ATOM     13  N   UNL     1       1.447  -4.746  -0.032  0.00  0.00    -0.306 N 
ATOM     14  C   UNL     1       1.710  -6.067  -0.040  0.00  0.00    +0.266 C 
ATOM     15  O   UNL     1       0.796  -6.870  -0.040  0.00  0.00    -0.268 OA
ATOM     16  H   UNL     1       2.176  -4.106  -0.032  0.00  0.00    +0.149 HD
BRANCH  13  17
ATOM     17  C   UNL     1       0.059  -4.275  -0.021  0.00  0.00    +0.140 C 
BRANCH  17  22
ATOM     18  C   UNL     1      -0.018   1.503   0.010  0.00  0.00    +0.044 C 
ATOM     19  C   UNL     1       0.002  -0.004   0.002  0.00  0.00    -0.050 A 
ATOM     20  C   UNL     1       0.006  -0.689  -1.199  0.00  0.00    +0.003 A 
ATOM     21  C   UNL     1       0.025  -2.071  -1.206  0.00  0.00    +0.005 A 
ATOM     22  C   UNL     1       0.040  -2.768  -0.013  0.00  0.00    -0.030 A 
ATOM     23  C   UNL     1       0.037  -2.084   1.188  0.00  0.00    +0.005 A 
ATOM     24  C   UNL     1       0.023  -0.702   1.195  0.00  0.00    +0.003 A 
ENDBRANCH  17  22
ENDBRANCH  13  17
ENDBRANCH   1  14
BRANCH   2  25
ATOM     25  C   UNL     1       2.614  -9.061  -0.074  0.00  0.00    +0.135 C 
BRANCH  25  26
ATOM     26  S   UNL     1       2.262  -9.564   1.633  0.00  0.00    -0.080 S 
BRANCH  26  27
ATOM     27  C   UNL     1       1.221 -10.975   1.456  0.00  0.00    +0.189 A 
ATOM     28  N   UNL     1       0.904 -11.397   0.239  0.00  0.00    -0.227 NA
ATOM     29  C   UNL     1       0.126 -12.453   0.071  0.00  0.00    +0.043 A 
ATOM     30  C   UNL     1      -0.359 -13.119   1.185  0.00  0.00    +0.046 A 
ATOM     31  C   UNL     1      -0.008 -12.652   2.443  0.00  0.00    +0.043 A 
ATOM     32  N   UNL     1       0.778 -11.593   2.541  0.00  0.00    -0.227 NA
ATOM     33  C   UNL     1      -0.512 -13.345   3.682  0.00  0.00    +0.066 C 
ATOM     34  C   UNL     1      -0.230 -12.925  -1.315  0.00  0.00    +0.066 C 
ENDBRANCH  26  27
ENDBRANCH  25  26
ENDBRANCH   2  25
TORSDOF 7
