REMARK  Name = ZINC22418196
REMARK  17 active torsions:
REMARK  status: ('A' for Active; 'I' for Inactive)
REMARK    1  A    between atoms: C_1  and  C_2
REMARK    2  A    between atoms: C_2  and  O_3
REMARK    3  A    between atoms: O_3  and  C_4
REMARK    4  A    between atoms: C_6  and  C_16
REMARK    5  A    between atoms: C_8  and  O_13
REMARK    6  A    between atoms: C_9  and  O_10
REMARK    7  A    between atoms: O_10  and  C_11
REMARK    8  A    between atoms: C_11  and  C_12
REMARK    9  A    between atoms: O_13  and  C_14
REMARK   10  A    between atoms: C_14  and  C_15
REMARK   11  A    between atoms: N_18  and  C_19
REMARK   12  A    between atoms: C_19  and  C_20
REMARK   13  A    between atoms: C_20  and  C_22
REMARK   14  A    between atoms: C_20  and  N_31
REMARK   15  A    between atoms: C_25  and  N_28
REMARK   16  A    between atoms: N_28  and  C_29
REMARK   17  A    between atoms: N_28  and  C_30
REMARK                            x       y       z     vdW  Elec       q    Type
REMARK                         _______ _______ _______ _____ _____    ______ ____
ROOT
ATOM      1  C   UNL     1       0.819  10.153   3.459  0.00  0.00    -0.020 C 
ENDROOT
BRANCH   1   2
ATOM      2  N   UNL     1       2.169   9.729   3.065  0.00  0.00    +0.388 N 
ATOM      3  C   UNL     1       3.180  10.698   3.516  0.00  0.00    -0.073 C 
ATOM      4  C   UNL     1       4.558  10.046   3.413  0.00  0.00    +0.017 C 
ATOM      5  C   UNL     1       4.740   9.442   2.044  0.00  0.00    -0.048 A 
ATOM      6  C   UNL     1       6.024   9.121   1.628  0.00  0.00    +0.004 A 
ATOM      7  C   UNL     1       6.234   8.558   0.386  0.00  0.00    +0.000 A 
ATOM      8  C   UNL     1       5.159   8.315  -0.450  0.00  0.00    +0.000 A 
ATOM      9  C   UNL     1       3.882   8.636  -0.038  0.00  0.00    +0.002 A 
ATOM     10  C   UNL     1       3.669   9.203   1.211  0.00  0.00    -0.061 A 
ATOM     11  C   UNL     1       2.258   9.540   1.614  0.00  0.00    -0.042 C 
ATOM     12  H   UNL     1       2.370   8.762   3.551  0.00  0.00    -0.080 HD
ENDBRANCH   1   2
BRANCH   1  13
ATOM     13  C   UNL     1       0.729  11.656   3.404  0.00  0.00    -0.059 A 
ATOM     14  C   UNL     1       0.778  12.306   2.184  0.00  0.00    +0.004 A 
ATOM     15  C   UNL     1       0.690  13.683   2.130  0.00  0.00    +0.023 A 
ATOM     16  C   UNL     1       0.564  14.417   3.303  0.00  0.00    +0.029 A 
ATOM     17  C   UNL     1       0.521  13.761   4.527  0.00  0.00    +0.023 A 
ATOM     18  C   UNL     1       0.604  12.383   4.574  0.00  0.00    +0.004 A 
BRANCH  16  19
ATOM     19  N   UNL     1       0.481  15.810   3.252  0.00  0.00    -0.336 N 
ATOM     20  C   UNL     1       0.250  16.576   4.479  0.00  0.00    +0.129 C 
ATOM     21  C   UNL     1       0.624  16.506   1.970  0.00  0.00    +0.129 C 
ENDBRANCH  16  19
ENDBRANCH   1  13
BRANCH   1  22
ATOM     22  C   UNL     1      -0.207   9.545   2.501  0.00  0.00    +0.094 C 
BRANCH  22  25
ATOM     23  C   UNL     1      -0.840   7.339   1.683  0.00  0.00    +0.244 C 
ATOM     24  O   UNL     1      -1.701   7.869   1.008  0.00  0.00    -0.270 OA
ATOM     25  N   UNL     1      -0.040   8.090   2.465  0.00  0.00    -0.313 N 
ATOM     26  H   UNL     1       0.739   7.611   3.076  0.00  0.00    +0.149 HD
BRANCH  23  29
ATOM     27  C   UNL     1       0.471   3.890   2.390  0.00  0.00    +0.166 A 
ATOM     28  C   UNL     1       0.318   5.263   2.422  0.00  0.00    +0.062 A 
ATOM     29  C   UNL     1      -0.671   5.873   1.647  0.00  0.00    +0.044 A 
ATOM     30  C   UNL     1      -1.500   5.093   0.837  0.00  0.00    +0.062 A 
ATOM     31  C   UNL     1      -1.340   3.720   0.804  0.00  0.00    +0.166 A 
ATOM     32  C   UNL     1      -0.353   3.115   1.578  0.00  0.00    +0.204 A 
BRANCH  27  33
ATOM     33  O   UNL     1       1.430   3.295   3.148  0.00  0.00    -0.488 OA
BRANCH  33  35
ATOM     34  C   UNL     1       3.254   3.307   4.734  0.00  0.00    +0.048 C 
ATOM     35  C   UNL     1       2.240   4.150   3.958  0.00  0.00    +0.226 C 
ENDBRANCH  33  35
ENDBRANCH  27  33
BRANCH  32  36
ATOM     36  O   UNL     1      -0.198   1.766   1.544  0.00  0.00    -0.485 OA
BRANCH  36  37
ATOM     37  C   UNL     1       0.703   1.240   0.567  0.00  0.00    +0.226 C 
ATOM     38  C   UNL     1       0.746  -0.285   0.681  0.00  0.00    +0.048 C 
ENDBRANCH  36  37
ENDBRANCH  32  36
BRANCH  31  39
ATOM     39  O   UNL     1      -2.147   2.961   0.016  0.00  0.00    -0.488 OA
BRANCH  39  40
ATOM     40  C   UNL     1      -3.138   3.647  -0.751  0.00  0.00    +0.226 C 
ATOM     41  C   UNL     1      -3.942   2.635  -1.568  0.00  0.00    +0.048 C 
ENDBRANCH  39  40
ENDBRANCH  31  39
ENDBRANCH  23  29
ENDBRANCH  22  25
ENDBRANCH   1  22
TORSDOF 12
