REMARK  Name = ZINC35929987
REMARK  7 active torsions:
REMARK  status: ('A' for Active; 'I' for Inactive)
REMARK    1  A    between atoms: C_4  and  O_7
REMARK    2  A    between atoms: O_7  and  C_8
REMARK    3  A    between atoms: C_8  and  C_9
REMARK    4  A    between atoms: C_9  and  N_10
REMARK    5  A    between atoms: C_13  and  C_28
REMARK    6  A    between atoms: C_15  and  N_27
REMARK    7  A    between atoms: N_16  and  C_20
REMARK                            x       y       z     vdW  Elec       q    Type
REMARK                         _______ _______ _______ _____ _____    ______ ____
ROOT
ATOM      1  N   UNL     1       5.420  -3.373   1.509  0.00  0.00    -0.310 N 
ATOM      2  C   UNL     1       6.776  -3.603   1.658  0.00  0.00    +0.218 A 
ATOM      3  N   UNL     1       7.323  -3.384   2.850  0.00  0.00    -0.214 NA
ATOM      4  C   UNL     1       8.616  -3.580   3.079  0.00  0.00    +0.089 A 
ATOM      5  C   UNL     1       9.423  -4.035   2.013  0.00  0.00    +0.086 A 
ATOM      6  C   UNL     1      10.766  -4.351   1.846  0.00  0.00    +0.131 A 
ATOM      7  N   UNL     1      10.936  -4.737   0.566  0.00  0.00    -0.215 N 
ATOM      8  N   UNL     1       9.714  -4.680  -0.114  0.00  0.00    -0.144 NA
ATOM      9  C   UNL     1       8.776  -4.266   0.709  0.00  0.00    +0.189 A 
ATOM     10  N   UNL     1       7.452  -4.033   0.613  0.00  0.00    -0.193 NA
ATOM     11  H   UNL     1       4.896  -3.056   2.262  0.00  0.00    +0.149 HD
ENDROOT
BRANCH   7  12
ATOM     12  C   UNL     1      12.153  -5.137   0.001  0.00  0.00    +0.086 A 
ATOM     13  C   UNL     1      13.268  -5.322   0.809  0.00  0.00    +0.029 A 
ATOM     14  C   UNL     1      14.467  -5.717   0.249  0.00  0.00    +0.002 A 
ATOM     15  C   UNL     1      14.559  -5.928  -1.115  0.00  0.00    +0.002 A 
ATOM     16  C   UNL     1      13.452  -5.745  -1.923  0.00  0.00    +0.022 A 
ATOM     17  C   UNL     1      12.247  -5.355  -1.368  0.00  0.00    +0.066 A 
ATOM     18 CL   UNL     1      10.856  -5.131  -2.381  0.00  0.00    -0.081 Cl
ENDBRANCH   7  12
BRANCH   4  19
ATOM     19  C   UNL     1       9.196  -3.327   4.417  0.00  0.00    +0.001 A 
ATOM     20  C   UNL     1      10.410  -2.648   4.536  0.00  0.00    +0.013 A 
ATOM     21  C   UNL     1      10.946  -2.414   5.785  0.00  0.00    +0.039 A 
ATOM     22  C   UNL     1      10.282  -2.853   6.920  0.00  0.00    +0.123 A 
ATOM     23  C   UNL     1       9.077  -3.527   6.807  0.00  0.00    +0.039 A 
ATOM     24  C   UNL     1       8.529  -3.761   5.563  0.00  0.00    +0.013 A 
ATOM     25  F   UNL     1      10.812  -2.622   8.141  0.00  0.00    -0.205 F 
ENDBRANCH   4  19
BRANCH   6  26
ATOM     26  N   UNL     1      11.749  -4.280   2.815  0.00  0.00    -0.342 N 
ATOM     27  H   UNL     1      11.565  -4.590   3.716  0.00  0.00    +0.144 HD
ATOM     28  H   UNL     1      12.623  -3.920   2.595  0.00  0.00    +0.144 HD
ENDBRANCH   6  26
BRANCH   1  29
ATOM     29  C   UNL     1       4.775  -3.606   0.215  0.00  0.00    +0.145 C 
BRANCH  29  30
ATOM     30  C   UNL     1       3.284  -3.277   0.321  0.00  0.00    +0.247 C 
BRANCH  30  31
ATOM     31  O   UNL     1       3.122  -1.881   0.578  0.00  0.00    -0.490 OA
BRANCH  31  35
ATOM     32  C   UNL     1      -0.741  -0.481   0.950  0.00  0.00    +0.000 A 
ATOM     33  C   UNL     1       0.324   0.391   1.074  0.00  0.00    +0.004 A 
ATOM     34  C   UNL     1       1.619  -0.075   0.950  0.00  0.00    +0.045 A 
ATOM     35  C   UNL     1       1.849  -1.420   0.701  0.00  0.00    +0.121 A 
ATOM     36  C   UNL     1       0.779  -2.294   0.577  0.00  0.00    +0.045 A 
ATOM     37  C   UNL     1      -0.514  -1.823   0.701  0.00  0.00    +0.004 A 
ENDBRANCH  31  35
ENDBRANCH  30  31
ENDBRANCH  29  30
ENDBRANCH   1  29
TORSDOF 7
