REMARK  Name = ZINC67104526
REMARK  9 active torsions:
REMARK  status: ('A' for Active; 'I' for Inactive)
REMARK    1  A    between atoms: C_1  and  C_2
REMARK    2  A    between atoms: C_2  and  C_3
REMARK    3  A    between atoms: C_2  and  C_4
REMARK    4  A    between atoms: C_4  and  C_5
REMARK    5  A    between atoms: C_5  and  C_6
REMARK    6  A    between atoms: N_8  and  N_9
REMARK    7  A    between atoms: N_12  and  C_13
REMARK    8  A    between atoms: C_13  and  C_14
REMARK    9  A    between atoms: C_14  and  C_19
REMARK                            x       y       z     vdW  Elec       q    Type
REMARK                         _______ _______ _______ _____ _____    ______ ____
ROOT
ATOM      1  C   UNL     1       8.138   0.371  -3.028  0.00  0.00    +0.117 C 
ENDROOT
BRANCH   1   5
ATOM      2  N   UNL     1       4.981  -1.464  -2.601  0.00  0.00    -0.218 N 
ATOM      3  C   UNL     1       6.161  -1.051  -3.104  0.00  0.00    +0.316 C 
ATOM      4  O   UNL     1       6.600  -1.557  -4.119  0.00  0.00    -0.251 OA
ATOM      5  N   UNL     1       6.855  -0.078  -2.482  0.00  0.00    -0.297 N 
ATOM      6  H   UNL     1       4.482  -2.165  -3.049  0.00  0.00    +0.174 HD
ATOM      7  H   UNL     1       6.505   0.326  -1.672  0.00  0.00    +0.150 HD
BRANCH   2  10
ATOM      8  C   UNL     1       3.295  -1.295  -0.929  0.00  0.00    +0.229 C 
ATOM      9  O   UNL     1       2.671  -2.171  -1.489  0.00  0.00    -0.274 OA
ATOM     10  N   UNL     1       4.475  -0.882  -1.432  0.00  0.00    -0.233 N 
ATOM     11  H   UNL     1       4.974  -0.181  -0.984  0.00  0.00    +0.173 HD
BRANCH   8  12
ATOM     12  C   UNL     1       2.751  -0.668   0.329  0.00  0.00    +0.097 C 
BRANCH  12  13
ATOM     13  C   UNL     1       1.409  -1.313   0.680  0.00  0.00    +0.012 C 
BRANCH  13  15
ATOM     14  C   UNL     1       0.541   0.798   1.697  0.00  0.00    +0.007 C 
ATOM     15  C   UNL     1       0.856  -0.676   1.957  0.00  0.00    -0.017 C 
ATOM     16  C   UNL     1      -0.422  -1.404   2.378  0.00  0.00    +0.007 C 
ENDBRANCH  13  15
ENDBRANCH  12  13
ENDBRANCH   8  12
ENDBRANCH   2  10
ENDBRANCH   1   5
BRANCH   1  17
ATOM     17  C   UNL     1       8.773   1.383  -2.073  0.00  0.00    +0.011 C 
ATOM     18  C   UNL     1       8.958   0.750  -0.678  0.00  0.00    +0.013 C 
ATOM     19  C   UNL     1      10.421   0.242  -0.683  0.00  0.00    +0.001 C 
ATOM     20  C   UNL     1      11.166   1.355  -1.461  0.00  0.00    +0.001 C 
ATOM     21  C   UNL     1      10.177   1.769  -2.570  0.00  0.00    +0.013 C 
BRANCH  17  22
ATOM     22  C   UNL     1       7.906   2.612  -1.972  0.00  0.00    -0.036 A 
ATOM     23  C   UNL     1       8.238   3.619  -1.085  0.00  0.00    +0.008 A 
ATOM     24  C   UNL     1       7.445   4.747  -0.989  0.00  0.00    +0.050 A 
ATOM     25  C   UNL     1       6.313   4.871  -1.781  0.00  0.00    +0.162 A 
ATOM     26  C   UNL     1       5.981   3.859  -2.674  0.00  0.00    +0.162 A 
ATOM     27  C   UNL     1       6.784   2.732  -2.769  0.00  0.00    +0.053 A 
ATOM     28  O   UNL     1       4.880   3.963  -3.467  0.00  0.00    -0.485 OA
ATOM     29  C   UNL     1       3.901   4.935  -3.083  0.00  0.00    +0.270 C 
ATOM     30  C   UNL     1       4.628   6.244  -2.746  0.00  0.00    +0.270 C 
ATOM     31  O   UNL     1       5.540   5.985  -1.672  0.00  0.00    -0.485 OA
ENDBRANCH  17  22
ENDBRANCH   1  17
TORSDOF 7
