REMARK  Name = ZINC06600936
REMARK  13 active torsions:
REMARK  status: ('A' for Active; 'I' for Inactive)
REMARK    1  A    between atoms: C_1  and  C_2
REMARK    2  A    between atoms: C_2  and  O_3
REMARK    3  A    between atoms: O_3  and  C_4
REMARK    4  A    between atoms: C_7  and  N_10
REMARK    5  A    between atoms: N_10  and  C_11
REMARK    6  A    between atoms: C_11  and  C_13
REMARK    7  A    between atoms: C_11  and  C_16
REMARK    8  A    between atoms: C_13  and  C_14
REMARK    9  A    between atoms: C_13  and  C_15
REMARK   10  A    between atoms: N_18  and  C_19
REMARK   11  A    between atoms: C_24  and  C_26
REMARK   12  A    between atoms: C_27  and  N_34
REMARK   13  A    between atoms: C_28  and  C_31
REMARK                            x       y       z     vdW  Elec       q    Type
REMARK                         _______ _______ _______ _____ _____    ______ ____
ROOT
ATOM      1  N   UNL     1       0.827  -5.675  -2.711  0.00  0.00    -0.255 N 
ATOM      2  C   UNL     1       0.059  -6.193  -1.733  0.00  0.00    +0.261 C 
ATOM      3  O   UNL     1       0.124  -7.380  -1.471  0.00  0.00    -0.269 OA
ENDROOT
BRANCH   1   7
ATOM      4  C   UNL     1       0.824  -1.564  -3.406  0.00  0.00    +0.121 A 
ATOM      5  C   UNL     1       0.208  -2.420  -4.307  0.00  0.00    +0.047 A 
ATOM      6  C   UNL     1       0.209  -3.781  -4.078  0.00  0.00    +0.027 A 
ATOM      7  C   UNL     1       0.826  -4.294  -2.945  0.00  0.00    +0.038 A 
ATOM      8  C   UNL     1       1.443  -3.437  -2.043  0.00  0.00    +0.027 A 
ATOM      9  C   UNL     1       1.446  -2.076  -2.277  0.00  0.00    +0.047 A 
BRANCH   4  10
ATOM     10  O   UNL     1       0.823  -0.223  -3.633  0.00  0.00    -0.492 OA
BRANCH  10  12
ATOM     11  C   UNL     1       0.267   1.759  -4.899  0.00  0.00    +0.048 C 
ATOM     12  C   UNL     1       0.164   0.234  -4.815  0.00  0.00    +0.225 C 
ENDBRANCH  10  12
ENDBRANCH   4  10
ENDBRANCH   1   7
BRANCH   2  13
ATOM     13  C   UNL     1      -0.855  -5.328  -0.984  0.00  0.00    +0.116 A 
ATOM     14  C   UNL     1      -1.675  -5.638   0.102  0.00  0.00    +0.076 A 
ATOM     15  C   UNL     1      -2.417  -4.553   0.565  0.00  0.00    +0.155 A 
ATOM     16  N   UNL     1      -2.293  -3.384  -0.027  0.00  0.00    -0.203 NA
ATOM     17  S   UNL     1      -1.212  -3.598  -1.211  0.00  0.00    +0.019 S 
BRANCH  15  18
ATOM     18  C   UNL     1      -3.334  -4.713   1.708  0.00  0.00    +0.262 C 
ATOM     19  O   UNL     1      -3.392  -5.776   2.296  0.00  0.00    -0.269 OA
ATOM     20  N   UNL     1      -4.107  -3.682   2.102  0.00  0.00    -0.324 N 
ATOM     21  H   UNL     1      -4.060  -2.834   1.633  0.00  0.00    +0.145 HD
ATOM     22  H   UNL     1      -4.710  -3.787   2.854  0.00  0.00    +0.145 HD
ENDBRANCH  15  18
BRANCH  14  23
ATOM     23  N   UNL     1      -1.745  -6.905   0.667  0.00  0.00    -0.355 N 
ATOM     24  H   UNL     1      -1.131  -7.598   0.379  0.00  0.00    +0.142 HD
ATOM     25  H   UNL     1      -2.407  -7.096   1.349  0.00  0.00    +0.142 HD
ENDBRANCH  14  23
ENDBRANCH   2  13
BRANCH   1  26
ATOM     26  C   UNL     1       1.663  -6.556  -3.530  0.00  0.00    +0.170 C 
BRANCH  26  27
ATOM     27  C   UNL     1       0.785  -7.517  -4.291  0.00  0.00    +0.234 C 
ATOM     28  O   UNL     1      -0.393  -7.607  -4.019  0.00  0.00    -0.274 OA
ATOM     29  N   UNL     1       1.310  -8.276  -5.273  0.00  0.00    -0.311 N 
ATOM     30  H   UNL     1       2.265  -8.257  -5.443  0.00  0.00    +0.149 HD
BRANCH  29  31
ATOM     31  C   UNL     1       0.439  -9.129  -6.084  0.00  0.00    +0.073 C 
ATOM     32  C   UNL     1       0.270 -10.506  -5.408  0.00  0.00    +0.022 C 
ATOM     33  C   UNL     1       0.240 -11.508  -6.589  0.00  0.00    +0.002 C 
ATOM     34  C   UNL     1       1.286 -10.915  -7.566  0.00  0.00    +0.002 C 
ATOM     35  C   UNL     1       1.085  -9.390  -7.456  0.00  0.00    +0.022 C 
ENDBRANCH  29  31
ENDBRANCH  26  27
BRANCH  26  36
ATOM     36  C   UNL     1       2.615  -7.341  -2.626  0.00  0.00    +0.013 C 
ATOM     37  C   UNL     1       3.422  -8.329  -3.471  0.00  0.00    +0.009 C 
ATOM     38  C   UNL     1       3.569  -6.372  -1.926  0.00  0.00    +0.009 C 
ENDBRANCH  26  36
ENDBRANCH   1  26
TORSDOF 10
