REMARK  Name = ZINC21243561
REMARK  11 active torsions:
REMARK  status: ('A' for Active; 'I' for Inactive)
REMARK    1  A    between atoms: C_1  and  C_2
REMARK    2  A    between atoms: C_2  and  O_3
REMARK    3  A    between atoms: O_3  and  C_4
REMARK    4  A    between atoms: C_5  and  O_35
REMARK    5  A    between atoms: C_7  and  C_11
REMARK    6  A    between atoms: C_22  and  C_25
REMARK    7  A    between atoms: C_28  and  O_31
REMARK    8  A    between atoms: O_31  and  C_32
REMARK    9  A    between atoms: C_32  and  C_33
REMARK   10  A    between atoms: C_32  and  C_34
REMARK   11  A    between atoms: O_35  and  C_36
REMARK                            x       y       z     vdW  Elec       q    Type
REMARK                         _______ _______ _______ _____ _____    ______ ____
ROOT
ATOM      1  C   UNL     1      -6.548  -0.466  -0.172  0.00  0.00    +0.063 C 
ATOM      2  C   UNL     1      -7.267  -0.208  -1.497  0.00  0.00    +0.109 C 
ATOM      3  C   UNL     1      -6.303  -0.433  -2.634  0.00  0.00    +0.218 C 
ATOM      4  O   UNL     1      -6.703  -0.883  -3.686  0.00  0.00    -0.275 OA
ATOM      5  N   UNL     1      -5.001  -0.135  -2.483  0.00  0.00    -0.289 N 
ATOM      6  C   UNL     1      -4.526   0.399  -1.312  0.00  0.00    +0.018 C 
ATOM      7  C   UNL     1      -5.228   0.269  -0.167  0.00  0.00    +0.020 C 
ATOM      8  C   UNL     1      -4.756   0.801   1.045  0.00  0.00    +0.162 C 
ATOM      9  O   UNL     1      -5.423   0.676   2.053  0.00  0.00    -0.292 OA
ATOM     10  C   UNL     1      -3.438   1.524   1.113  0.00  0.00    +0.088 C 
ATOM     11  C   UNL     1      -2.512   0.976   0.022  0.00  0.00    +0.032 C 
ATOM     12  C   UNL     1      -3.208   1.133  -1.332  0.00  0.00    +0.059 C 
ATOM     13  H   UNL     1      -4.296  -0.319  -3.307  0.00  0.00    +0.155 HD
ENDROOT
BRANCH   1  17
ATOM     14  C   UNL     1      -5.845  -4.661   0.276  0.00  0.00    +0.176 A 
ATOM     15  C   UNL     1      -6.614  -3.979   1.214  0.00  0.00    +0.163 A 
ATOM     16  C   UNL     1      -6.840  -2.620   1.066  0.00  0.00    +0.053 A 
ATOM     17  C   UNL     1      -6.301  -1.944  -0.013  0.00  0.00    -0.035 A 
ATOM     18  C   UNL     1      -5.541  -2.621  -0.948  0.00  0.00    +0.023 A 
ATOM     19  C   UNL     1      -5.308  -3.977  -0.804  0.00  0.00    +0.063 A 
ATOM     20 BR   UNL     1      -4.263  -4.898  -2.082  0.00  0.00    -0.046 Br
BRANCH  15  21
ATOM     21  O   UNL     1      -7.143  -4.646   2.275  0.00  0.00    -0.491 OA
ATOM     22  C   UNL     1      -7.921  -3.882   3.199  0.00  0.00    +0.277 C 
ENDBRANCH  15  21
BRANCH  14  23
ATOM     23  O   UNL     1      -5.620  -5.995   0.417  0.00  0.00    -0.487 OA
BRANCH  23  25
ATOM     24  C   UNL     1      -6.146  -8.328   0.071  0.00  0.00    +0.048 C 
ATOM     25  C   UNL     1      -6.561  -6.880  -0.194  0.00  0.00    +0.226 C 
ENDBRANCH  23  25
ENDBRANCH  14  23
ENDBRANCH   1  17
BRANCH  11  26
ATOM     26  C   UNL     1      -1.219   1.750   0.019  0.00  0.00    -0.043 A 
ATOM     27  C   UNL     1      -0.021   1.092   0.227  0.00  0.00    +0.007 A 
ATOM     28  C   UNL     1       1.166   1.798   0.220  0.00  0.00    +0.046 A 
ATOM     29  C   UNL     1       1.155   3.169   0.009  0.00  0.00    +0.121 A 
ATOM     30  C   UNL     1      -0.049   3.828  -0.194  0.00  0.00    +0.046 A 
ATOM     31  C   UNL     1      -1.234   3.117  -0.185  0.00  0.00    +0.007 A 
BRANCH  29  32
ATOM     32  O   UNL     1       2.322   3.866   0.001  0.00  0.00    -0.489 OA
BRANCH  32  33
ATOM     33  C   UNL     1       3.530   3.110   0.097  0.00  0.00    +0.167 C 
ATOM     34  C   UNL     1       4.679   3.903  -0.529  0.00  0.00    +0.051 C 
ATOM     35  C   UNL     1       3.843   2.833   1.569  0.00  0.00    +0.051 C 
ENDBRANCH  32  33
ENDBRANCH  29  32
ENDBRANCH  11  26
TORSDOF 7
