REMARK  Name = ZINC20082327
REMARK  15 active torsions:
REMARK  status: ('A' for Active; 'I' for Inactive)
REMARK    1  A    between atoms: C_1  and  C_2
REMARK    2  A    between atoms: C_2  and  O_3
REMARK    3  A    between atoms: O_3  and  C_4
REMARK    4  A    between atoms: C_7  and  C_10
REMARK    5  A    between atoms: C_10  and  N_11
REMARK    6  A    between atoms: N_11  and  C_12
REMARK    7  A    between atoms: N_11  and  C_18
REMARK    8  A    between atoms: C_12  and  C_13
REMARK    9  A    between atoms: C_18  and  C_20
REMARK   10  A    between atoms: C_18  and  C_33
REMARK   11  A    between atoms: C_24  and  C_32
REMARK   12  A    between atoms: N_37  and  C_38
REMARK   13  A    between atoms: C_38  and  C_39
REMARK   14  A    between atoms: C_39  and  O_40
REMARK   15  A    between atoms: O_40  and  C_41
REMARK                            x       y       z     vdW  Elec       q    Type
REMARK                         _______ _______ _______ _____ _____    ______ ____
ROOT
ATOM      1  C   UNL     1      -0.059   1.568   0.202  0.00  0.00    +0.163 C 
ENDROOT
BRANCH   1   2
ATOM      2  C   UNL     1      -0.891   2.273  -0.837  0.00  0.00    +0.042 A 
ATOM      3  C   UNL     1      -1.772   1.568  -1.590  0.00  0.00    +0.021 A 
ATOM      4  C   UNL     1      -2.566   2.283  -2.591  0.00  0.00    -0.001 A 
ATOM      5  C   UNL     1      -3.490   1.610  -3.397  0.00  0.00    +0.013 A 
ATOM      6  C   UNL     1      -4.216   2.306  -4.321  0.00  0.00    -0.050 A 
ATOM      7  C   UNL     1      -4.044   3.676  -4.468  0.00  0.00    +0.005 A 
ATOM      8  C   UNL     1      -3.139   4.359  -3.686  0.00  0.00    +0.026 A 
ATOM      9  C   UNL     1      -2.389   3.672  -2.737  0.00  0.00    +0.049 A 
ATOM     10  N   UNL     1      -1.477   4.330  -1.940  0.00  0.00    -0.322 N 
ATOM     11  H   UNL     1      -1.331   5.415  -2.052  0.00  0.00    +0.169 HD
ATOM     12  C   UNL     1      -0.756   3.666  -1.020  0.00  0.00    +0.254 A 
ATOM     13  O   UNL     1       0.037   4.282  -0.329  0.00  0.00    -0.268 OA
ATOM     14  C   UNL     1      -5.211   1.581  -5.190  0.00  0.00    +0.044 C 
ENDBRANCH   1   2
BRANCH   1  15
ATOM     15  C   UNL     1      -0.415   2.091   1.570  0.00  0.00    +0.173 A 
ATOM     16  N   UNL     1      -0.062   3.244   2.084  0.00  0.00    -0.111 NA
ATOM     17  N   UNL     1      -0.563   3.322   3.268  0.00  0.00    -0.023 NA
ATOM     18  N   UNL     1      -1.220   2.245   3.527  0.00  0.00    -0.044 NA
ATOM     19  N   UNL     1      -1.152   1.461   2.504  0.00  0.00    -0.225 N 
BRANCH  19  20
ATOM     20  C   UNL     1      -1.763   0.135   2.383  0.00  0.00    +0.175 C 
BRANCH  20  21
ATOM     21  C   UNL     1      -0.780  -0.927   2.879  0.00  0.00    +0.183 C 
BRANCH  21  22
ATOM     22  O   UNL     1      -1.376  -2.220   2.761  0.00  0.00    -0.381 OA
ATOM     23  C   UNL     1      -0.536  -3.289   3.200  0.00  0.00    +0.194 C 
ENDBRANCH  21  22
ENDBRANCH  20  21
ENDBRANCH  19  20
ENDBRANCH   1  15
BRANCH   1  24
ATOM     24  N   UNL     1       1.365   1.815  -0.061  0.00  0.00    -0.277 NA
BRANCH  24  25
ATOM     25  C   UNL     1       1.649   1.772  -1.502  0.00  0.00    +0.121 C 
BRANCH  25  29
ATOM     26  C   UNL     1       5.305   3.838  -2.295  0.00  0.00    +0.121 A 
ATOM     27  C   UNL     1       5.305   2.459  -2.144  0.00  0.00    +0.046 A 
ATOM     28  C   UNL     1       4.122   1.793  -1.887  0.00  0.00    +0.008 A 
ATOM     29  C   UNL     1       2.938   2.500  -1.781  0.00  0.00    -0.033 A 
ATOM     30  C   UNL     1       2.935   3.874  -1.938  0.00  0.00    +0.008 A 
ATOM     31  C   UNL     1       4.116   4.545  -2.188  0.00  0.00    +0.046 A 
BRANCH  26  32
ATOM     32  O   UNL     1       6.467   4.495  -2.547  0.00  0.00    -0.492 OA
BRANCH  32  34
ATOM     33  C   UNL     1       7.789   6.474  -2.969  0.00  0.00    +0.048 C 
ATOM     34  C   UNL     1       6.392   5.915  -2.691  0.00  0.00    +0.225 C 
ENDBRANCH  32  34
ENDBRANCH  26  32
ENDBRANCH  25  29
ENDBRANCH  24  25
BRANCH  24  35
ATOM     35  C   UNL     1       2.209   0.861   0.671  0.00  0.00    +0.160 C 
BRANCH  35  36
ATOM     36  C   UNL     1       1.951  -0.533   0.160  0.00  0.00    +0.119 A 
ATOM     37  C   UNL     1       2.687  -1.183  -0.760  0.00  0.00    +0.046 A 
ATOM     38  C   UNL     1       2.091  -2.453  -0.938  0.00  0.00    +0.041 A 
ATOM     39  C   UNL     1       1.026  -2.503  -0.117  0.00  0.00    +0.195 A 
ATOM     40  O   UNL     1       0.950  -1.340   0.550  0.00  0.00    -0.467 OA
ENDBRANCH  35  36
ENDBRANCH  24  35
ENDBRANCH   1  24
TORSDOF 12
