REMARK  Name = ZINC04500394
REMARK  10 active torsions:
REMARK  status: ('A' for Active; 'I' for Inactive)
REMARK    1  A    between atoms: C_1  and  C_2
REMARK    2  A    between atoms: C_5  and  C_8
REMARK    3  A    between atoms: C_8  and  S_9
REMARK    4  A    between atoms: S_9  and  C_10
REMARK    5  A    between atoms: C_13  and  C_22
REMARK    6  A    between atoms: N_14  and  C_15
REMARK    7  A    between atoms: C_22  and  C_24
REMARK    8  A    between atoms: C_22  and  N_49
REMARK    9  A    between atoms: C_25  and  N_49
REMARK   10  A    between atoms: C_26  and  N_49
REMARK                            x       y       z     vdW  Elec       q    Type
REMARK                         _______ _______ _______ _____ _____    ______ ____
ROOT
ATOM      1  C   UNL     1       1.213   1.745  -0.000  0.00  0.00    +0.196 A 
ATOM      2  N   UNL     1      -0.015   1.281   0.009  0.00  0.00    -0.122 NA
ATOM      3  N   UNL     1       0.002  -0.004   0.002  0.00  0.00    -0.135 NA
ATOM      4  C   UNL     1       1.232  -0.436  -0.012  0.00  0.00    +0.125 A 
ATOM      5  N   UNL     1       2.049   0.663  -0.014  0.00  0.00    -0.275 N 
ENDROOT
BRANCH   5   6
ATOM      6  C   UNL     1       3.452   0.675  -0.027  0.00  0.00    +0.050 A 
ATOM      7  C   UNL     1       4.162   0.173   1.055  0.00  0.00    +0.029 A 
ATOM      8  C   UNL     1       5.543   0.183   1.038  0.00  0.00    +0.040 A 
ATOM      9  C   UNL     1       6.220   0.702  -0.053  0.00  0.00    +0.124 A 
ATOM     10  C   UNL     1       5.513   1.207  -1.131  0.00  0.00    +0.040 A 
ATOM     11  C   UNL     1       4.132   1.195  -1.120  0.00  0.00    +0.029 A 
ATOM     12  F   UNL     1       7.571   0.714  -0.066  0.00  0.00    -0.205 F 
ENDBRANCH   5   6
BRANCH   4  13
ATOM     13  C   UNL     1       1.672  -1.877  -0.024  0.00  0.00    -0.003 C 
ATOM     14  C   UNL     1       1.477  -2.482   1.367  0.00  0.00    -0.005 C 
BRANCH  13  17
ATOM     15  C   UNL     1       1.348  -4.009  -1.126  0.00  0.00    -0.096 C 
ATOM     16  C   UNL     1      -0.556  -2.594  -0.645  0.00  0.00    -0.096 C 
ATOM     17  N   UNL     1       0.872  -2.614  -1.026  0.00  0.00    +0.382 N 
ATOM     18  H   UNL     1       0.980  -2.158  -1.939  0.00  0.00    -0.082 HD
ENDBRANCH  13  17
ENDBRANCH   4  13
BRANCH   1  19
ATOM     19  S   UNL     1       1.693   3.440   0.004  0.00  0.00    -0.081 S 
BRANCH  19  20
ATOM     20  C   UNL     1       0.064   4.228   0.025  0.00  0.00    +0.112 C 
BRANCH  20  25
ATOM     21  C   UNL     1       0.701   9.972   0.050  0.00  0.00    +0.044 C 
ATOM     22  C   UNL     1       0.534   8.474   0.043  0.00  0.00    -0.050 A 
ATOM     23  C   UNL     1       0.447   7.793  -1.157  0.00  0.00    +0.003 A 
ATOM     24  C   UNL     1       0.294   6.419  -1.163  0.00  0.00    +0.005 A 
ATOM     25  C   UNL     1       0.230   5.726   0.032  0.00  0.00    -0.037 A 
ATOM     26  C   UNL     1       0.312   6.407   1.232  0.00  0.00    +0.005 A 
ATOM     27  C   UNL     1       0.469   7.780   1.238  0.00  0.00    +0.003 A 
ENDBRANCH  20  25
ENDBRANCH  19  20
ENDBRANCH   1  19
TORSDOF 6
