REMARK  Name = ZINC00576842
REMARK  14 active torsions:
REMARK  status: ('A' for Active; 'I' for Inactive)
REMARK    1  A    between atoms: C_1  and  C_2
REMARK    2  A    between atoms: C_2  and  N_3
REMARK    3  A    between atoms: N_3  and  C_4
REMARK    4  A    between atoms: N_3  and  C_6
REMARK    5  A    between atoms: C_4  and  C_5
REMARK    6  A    between atoms: C_6  and  C_7
REMARK    7  A    between atoms: C_7  and  C_8
REMARK    8  A    between atoms: C_9  and  C_27
REMARK    9  A    between atoms: C_13  and  O_20
REMARK   10  A    between atoms: O_20  and  C_21
REMARK   11  A    between atoms: C_21  and  C_22
REMARK   12  A    between atoms: C_22  and  O_24
REMARK   13  A    between atoms: O_24  and  C_25
REMARK   14  A    between atoms: C_25  and  C_26
REMARK                            x       y       z     vdW  Elec       q    Type
REMARK                         _______ _______ _______ _____ _____    ______ ____
ROOT
ATOM      1  C   UNL     1      -2.904  -4.099   0.218  0.00  0.00    +0.039 A 
ATOM      2  C   UNL     1      -3.155  -4.646   1.436  0.00  0.00    -0.030 A 
ATOM      3  C   UNL     1      -3.152  -6.106   1.553  0.00  0.00    +0.022 A 
ATOM      4  C   UNL     1      -3.404  -6.731   2.780  0.00  0.00    +0.015 A 
ATOM      5  C   UNL     1      -3.396  -8.093   2.861  0.00  0.00    +0.048 A 
ATOM      6  C   UNL     1      -3.139  -8.867   1.731  0.00  0.00    +0.143 A 
ATOM      7  C   UNL     1      -2.887  -8.265   0.508  0.00  0.00    +0.125 A 
ATOM      8  C   UNL     1      -2.892  -6.881   0.408  0.00  0.00    +0.161 A 
ATOM      9  O   UNL     1      -2.650  -6.274  -0.774  0.00  0.00    -0.420 OA
ATOM     10  C   UNL     1      -2.656  -4.937  -0.889  0.00  0.00    +0.341 A 
ATOM     11  O   UNL     1      -2.438  -4.434  -1.977  0.00  0.00    -0.245 OA
ATOM     12 CL   UNL     1      -2.567  -9.239  -0.892  0.00  0.00    -0.076 Cl
ATOM     13  C   UNL     1      -3.428  -3.774   2.634  0.00  0.00    +0.045 C 
ENDROOT
BRANCH   1  14
ATOM     14  C   UNL     1      -2.896  -2.602   0.049  0.00  0.00    +0.024 C 
BRANCH  14  15
ATOM     15  C   UNL     1      -1.462  -2.083   0.164  0.00  0.00    -0.074 C 
BRANCH  15  16
ATOM     16  N   UNL     1      -1.439  -0.640  -0.111  0.00  0.00    +0.380 N 
ATOM     17  H   UNL     1      -1.863  -0.463  -1.010  0.00  0.00    -0.082 HD
BRANCH  16  19
ATOM     18  C   UNL     1      -2.272   1.556   0.580  0.00  0.00    -0.017 C 
ATOM     19  C   UNL     1      -2.189   0.070   0.933  0.00  0.00    -0.082 C 
ENDBRANCH  16  19
BRANCH  16  20
ATOM     20  C   UNL     1      -0.049  -0.166  -0.124  0.00  0.00    -0.082 C 
ATOM     21  C   UNL     1       0.691  -0.785  -1.312  0.00  0.00    -0.017 C 
ENDBRANCH  16  20
ENDBRANCH  15  16
ENDBRANCH  14  15
ENDBRANCH   1  14
BRANCH   6  22
ATOM     22  O   UNL     1      -3.134 -10.221   1.829  0.00  0.00    -0.479 OA
BRANCH  22  23
ATOM     23  C   UNL     1      -3.401 -10.780   3.117  0.00  0.00    +0.349 C 
BRANCH  23  24
ATOM     24  C   UNL     1      -3.354 -12.283   3.032  0.00  0.00    +0.345 C 
ATOM     25  O   UNL     1      -3.117 -12.822   1.976  0.00  0.00    -0.247 OA
BRANCH  24  26
ATOM     26  O   UNL     1      -3.576 -13.025   4.128  0.00  0.00    -0.463 OA
BRANCH  26  27
ATOM     27  C   UNL     1      -3.516 -14.444   3.975  0.00  0.00    +0.229 C 
ATOM     28  C   UNL     1      -3.793 -15.115   5.322  0.00  0.00    +0.048 C 
ENDBRANCH  26  27
ENDBRANCH  24  26
ENDBRANCH  23  24
ENDBRANCH  22  23
ENDBRANCH   6  22
TORSDOF 10
