REMARK  Name = ZINC01255942
REMARK  3 active torsions:
REMARK  status: ('A' for Active; 'I' for Inactive)
REMARK    1  A    between atoms: C_4  and  C_7
REMARK    2  A    between atoms: N_12  and  C_15
REMARK    3  A    between atoms: C_13  and  O_14
REMARK                            x       y       z     vdW  Elec       q    Type
REMARK                         _______ _______ _______ _____ _____    ______ ____
ROOT
ATOM      1  C   UNL     1       0.002  -0.004   0.002  0.00  0.00    +0.074 C 
ATOM      2  C   UNL     1       1.372  -0.646  -0.017  0.00  0.00    +0.068 A 
ATOM      3  C   UNL     1       2.500   0.205  -0.023  0.00  0.00    +0.182 A 
ATOM      4  N   UNL     1       3.575  -0.565  -0.040  0.00  0.00    -0.143 NA
ATOM      5  N   UNL     1       3.162  -1.903  -0.046  0.00  0.00    -0.198 N 
ATOM      6  C   UNL     1       1.800  -1.925  -0.031  0.00  0.00    +0.222 A 
ATOM      7  N   UNL     1       2.353   1.558  -0.012  0.00  0.00    -0.235 NA
ATOM      8  C   UNL     1       1.219   2.197   0.002  0.00  0.00    +0.032 C 
ATOM      9  C   UNL     1      -0.018   1.514   0.010  0.00  0.00    +0.112 C 
ATOM     10  C   UNL     1      -1.190   2.160   0.030  0.00  0.00    +0.143 C 
ATOM     11  C   UNL     1      -1.256   3.664   0.033  0.00  0.00    +0.075 C 
ATOM     12  C   UNL     1      -0.013   4.221   0.734  0.00  0.00    +0.013 C 
ATOM     13  C   UNL     1       1.234   3.709   0.009  0.00  0.00    +0.052 C 
ATOM     14  O   UNL     1      -2.337   1.449   0.044  0.00  0.00    -0.297 OA
ENDROOT
BRANCH   1  18
ATOM     15  C   UNL     1      -2.058  -1.386   3.480  0.00  0.00    +0.000 A 
ATOM     16  C   UNL     1      -2.512  -1.737   2.222  0.00  0.00    +0.000 A 
ATOM     17  C   UNL     1      -1.845  -1.290   1.097  0.00  0.00    +0.004 A 
ATOM     18  C   UNL     1      -0.725  -0.491   1.229  0.00  0.00    -0.039 A 
ATOM     19  C   UNL     1      -0.268  -0.144   2.486  0.00  0.00    +0.004 A 
ATOM     20  C   UNL     1      -0.937  -0.587   3.612  0.00  0.00    +0.000 A 
ENDBRANCH   1  18
BRANCH   5  21
ATOM     21  C   UNL     1       4.003  -3.023  -0.063  0.00  0.00    +0.069 A 
ATOM     22  C   UNL     1       3.643  -4.174   0.626  0.00  0.00    +0.028 A 
ATOM     23  C   UNL     1       4.472  -5.278   0.602  0.00  0.00    +0.002 A 
ATOM     24  C   UNL     1       5.664  -5.236  -0.098  0.00  0.00    +0.000 A 
ATOM     25  C   UNL     1       6.027  -4.089  -0.781  0.00  0.00    +0.002 A 
ATOM     26  C   UNL     1       5.200  -2.983  -0.766  0.00  0.00    +0.028 A 
ENDBRANCH   5  21
BRANCH   6  27
ATOM     27  O   UNL     1       1.016  -3.033  -0.031  0.00  0.00    -0.492 OA
ATOM     28  H   UNL     1       0.779  -3.348  -0.914  0.00  0.00    +0.294 HD
ENDBRANCH   6  27
TORSDOF 3
