REMARK  Name = ZINC66084465
REMARK  11 active torsions:
REMARK  status: ('A' for Active; 'I' for Inactive)
REMARK    1  A    between atoms: C_1  and  C_2
REMARK    2  A    between atoms: C_2  and  C_3
REMARK    3  A    between atoms: C_3  and  C_5
REMARK    4  A    between atoms: C_3  and  N_6
REMARK    5  A    between atoms: C_7  and  C_9
REMARK    6  A    between atoms: C_13  and  N_15
REMARK    7  A    between atoms: N_15  and  C_16
REMARK    8  A    between atoms: C_16  and  C_17
REMARK    9  A    between atoms: N_19  and  C_20
REMARK   10  A    between atoms: C_24  and  C_27
REMARK   11  A    between atoms: C_25  and  C_26
REMARK                            x       y       z     vdW  Elec       q    Type
REMARK                         _______ _______ _______ _____ _____    ______ ____
ROOT
ATOM      1  N   UNL     1       0.468   0.981   8.420  0.00  0.00    -0.335 N 
ATOM      2  H   UNL     1       1.426   0.839   8.477  0.00  0.00    +0.147 HD
ENDROOT
BRANCH   1   7
ATOM      3  C   UNL     1      -0.135   0.326   4.845  0.00  0.00    +0.038 A 
ATOM      4  C   UNL     1      -1.514   0.532   4.774  0.00  0.00    +0.013 A 
ATOM      5  C   UNL     1      -2.218   0.883   5.908  0.00  0.00    +0.003 A 
ATOM      6  C   UNL     1      -1.563   1.032   7.116  0.00  0.00    +0.023 A 
ATOM      7  C   UNL     1      -0.190   0.829   7.197  0.00  0.00    +0.028 A 
ATOM      8  C   UNL     1       0.526   0.470   6.065  0.00  0.00    +0.036 A 
BRANCH   3  10
ATOM      9  N   UNL     1      -0.018  -0.188   2.454  0.00  0.00    -0.309 N 
ATOM     10  C   UNL     1       0.622  -0.050   3.632  0.00  0.00    +0.244 C 
ATOM     11  O   UNL     1       1.822  -0.233   3.696  0.00  0.00    -0.270 OA
ATOM     12  H   UNL     1      -0.976  -0.042   2.402  0.00  0.00    +0.149 HD
BRANCH   9  13
ATOM     13  C   UNL     1       0.731  -0.560   1.252  0.00  0.00    +0.070 C 
ATOM     14  C   UNL     1       0.870  -2.083   1.188  0.00  0.00    +0.028 C 
BRANCH  13  16
ATOM     15  C   UNL     1      -0.044   1.466   0.012  0.00  0.00    +0.005 C 
ATOM     16  C   UNL     1      -0.014  -0.064   0.011  0.00  0.00    +0.018 C 
ENDBRANCH  13  16
ENDBRANCH   9  13
ENDBRANCH   3  10
ENDBRANCH   1   7
BRANCH   1  17
ATOM     17  C   UNL     1      -0.289   1.354   9.618  0.00  0.00    +0.198 C 
BRANCH  17  18
ATOM     18  C   UNL     1       0.647   1.452  10.794  0.00  0.00    +0.234 C 
ATOM     19  O   UNL     1       1.831   1.231  10.647  0.00  0.00    -0.274 OA
ATOM     20  N   UNL     1       0.170   1.784  12.010  0.00  0.00    -0.284 N 
ATOM     21  H   UNL     1      -0.760   2.039  12.113  0.00  0.00    +0.155 HD
BRANCH  20  22
ATOM     22  C   UNL     1       1.017   1.763  13.124  0.00  0.00    +0.037 A 
ATOM     23  C   UNL     1       2.142   0.949  13.127  0.00  0.00    +0.023 A 
ATOM     24  C   UNL     1       2.976   0.930  14.228  0.00  0.00    +0.002 A 
ATOM     25  C   UNL     1       2.690   1.719  15.327  0.00  0.00    +0.004 A 
ATOM     26  C   UNL     1       1.571   2.530  15.327  0.00  0.00    -0.046 A 
ATOM     27  C   UNL     1       0.737   2.559  14.226  0.00  0.00    -0.026 A 
ATOM     28  C   UNL     1      -0.480   3.449  14.225  0.00  0.00    +0.046 C 
ATOM     29  C   UNL     1       1.263   3.389  16.527  0.00  0.00    +0.044 C 
ENDBRANCH  20  22
ENDBRANCH  17  18
ENDBRANCH   1  17
TORSDOF 7
