REMARK  Name = ZINC11964358
REMARK  15 active torsions:
REMARK  status: ('A' for Active; 'I' for Inactive)
REMARK    1  A    between atoms: C_1  and  C_2
REMARK    2  A    between atoms: C_2  and  C_3
REMARK    3  A    between atoms: C_2  and  C_4
REMARK    4  A    between atoms: C_4  and  C_5
REMARK    5  A    between atoms: C_5  and  C_7
REMARK    6  A    between atoms: C_5  and  N_29
REMARK    7  A    between atoms: C_17  and  C_19
REMARK    8  A    between atoms: C_19  and  C_20
REMARK    9  A    between atoms: C_20  and  C_21
REMARK   10  A    between atoms: C_26  and  O_27
REMARK   11  A    between atoms: O_27  and  C_28
REMARK   12  A    between atoms: C_30  and  C_32
REMARK   13  A    between atoms: C_32  and  N_72
REMARK   14  A    between atoms: C_33  and  N_72
REMARK   15  A    between atoms: C_34  and  N_72
REMARK                            x       y       z     vdW  Elec       q    Type
REMARK                         _______ _______ _______ _____ _____    ______ ____
ROOT
ATOM      1  C   UNL     1       0.813  -0.489  -1.172  0.00  0.00    +0.154 A 
ATOM      2  N   UNL     1       0.440  -0.488  -2.424  0.00  0.00    -0.132 NA
ATOM      3  N   UNL     1       1.385  -0.960  -3.158  0.00  0.00    -0.134 NA
ATOM      4  C   UNL     1       2.405  -1.272  -2.408  0.00  0.00    +0.135 A 
ATOM      5  N   UNL     1       2.066  -1.001  -1.127  0.00  0.00    -0.312 N 
ATOM      6  C   UNL     1       2.857  -1.234   0.082  0.00  0.00    +0.143 C 
ATOM      7  C   UNL     1       4.351  -1.153  -0.246  0.00  0.00    +0.129 C 
ATOM      8  N   UNL     1       4.793  -2.449  -0.784  0.00  0.00    -0.299 N 
ATOM      9  C   UNL     1       4.149  -2.977  -1.988  0.00  0.00    +0.115 C 
ATOM     10  C   UNL     1       3.735  -1.804  -2.874  0.00  0.00    +0.095 C 
ATOM     11  C   UNL     1       5.777  -3.140  -0.177  0.00  0.00    +0.216 C 
ATOM     12  O   UNL     1       6.305  -2.696   0.821  0.00  0.00    -0.276 OA
ENDROOT
BRANCH   1  13
ATOM     13  C   UNL     1       0.002  -0.004   0.002  0.00  0.00    +0.141 C 
BRANCH  13  14
ATOM     14  N   UNL     1      -1.368  -0.510  -0.108  0.00  0.00    -0.307 N 
ATOM     15  C   UNL     1      -2.124  -0.655   0.999  0.00  0.00    +0.197 C 
ATOM     16  O   UNL     1      -1.669  -0.367   2.085  0.00  0.00    -0.278 OA
ATOM     17  H   UNL     1      -1.732  -0.741  -0.977  0.00  0.00    +0.149 HD
BRANCH  15  18
ATOM     18  C   UNL     1      -3.534  -1.176   0.885  0.00  0.00    +0.018 C 
BRANCH  18  21
ATOM     19  C   UNL     1      -5.581  -1.516   2.133  0.00  0.00    -0.096 C 
ATOM     20  C   UNL     1      -3.464  -2.241   3.059  0.00  0.00    -0.096 C 
ATOM     21  N   UNL     1      -4.137  -1.216   2.234  0.00  0.00    +0.382 N 
ATOM     22  H   UNL     1      -4.017  -0.298   2.680  0.00  0.00    -0.082 HD
ENDBRANCH  18  21
ENDBRANCH  15  18
ENDBRANCH  13  14
BRANCH  13  23
ATOM     23  C   UNL     1      -0.019   1.526   0.010  0.00  0.00    +0.033 C 
BRANCH  23  25
ATOM     24  C   UNL     1       0.073   1.619   2.506  0.00  0.00    +0.007 C 
ATOM     25  C   UNL     1      -0.735   2.019   1.269  0.00  0.00    -0.015 C 
ATOM     26  C   UNL     1      -0.866   3.543   1.217  0.00  0.00    +0.007 C 
ENDBRANCH  23  25
ENDBRANCH  13  23
ENDBRANCH   1  13
BRANCH  11  27
ATOM     27  C   UNL     1       6.222  -4.467  -0.737  0.00  0.00    +0.101 C 
BRANCH  27  28
ATOM     28  C   UNL     1       7.343  -5.038   0.134  0.00  0.00    +0.048 C 
BRANCH  28  29
ATOM     29  C   UNL     1       7.788  -6.364  -0.425  0.00  0.00    -0.005 A 
ATOM     30  C   UNL     1       7.258  -7.538   0.074  0.00  0.00    +0.007 A 
ATOM     31  C   UNL     1       7.663  -8.755  -0.442  0.00  0.00    +0.000 A 
ATOM     32  C   UNL     1       8.606  -8.802  -1.453  0.00  0.00    +0.004 A 
ATOM     33  C   UNL     1       9.143  -7.631  -1.952  0.00  0.00    +0.046 A 
ATOM     34  C   UNL     1       8.735  -6.408  -1.439  0.00  0.00    +0.123 A 
BRANCH  34  35
ATOM     35  O   UNL     1       9.261  -5.255  -1.928  0.00  0.00    -0.495 OA
ATOM     36  C   UNL     1      10.231  -5.375  -2.971  0.00  0.00    +0.277 C 
ENDBRANCH  34  35
ENDBRANCH  28  29
ENDBRANCH  27  28
ENDBRANCH  11  27
TORSDOF 10
