REMARK  Name = ZINC01040837
REMARK  8 active torsions:
REMARK  status: ('A' for Active; 'I' for Inactive)
REMARK    1  A    between atoms: C_1  and  C_2
REMARK    2  A    between atoms: C_5  and  O_25
REMARK    3  A    between atoms: C_6  and  C_8
REMARK    4  A    between atoms: N_10  and  N_11
REMARK    5  A    between atoms: N_11  and  C_12
REMARK    6  A    between atoms: C_12  and  N_14
REMARK    7  A    between atoms: N_14  and  C_15
REMARK    8  A    between atoms: C_20  and  C_21
REMARK                            x       y       z     vdW  Elec       q    Type
REMARK                         _______ _______ _______ _____ _____    ______ ____
ROOT
ATOM      1  N   UNL     1      -4.740  -0.062  -0.157  0.00  0.00    -0.245 N 
ATOM      2  H   UNL     1      -5.571  -0.557  -0.225  0.00  0.00    +0.172 HD
ENDROOT
BRANCH   1   5
ATOM      3  C   UNL     1      -5.928   1.999  -0.237  0.00  0.00    +0.264 C 
ATOM      4  O   UNL     1      -6.971   1.379  -0.322  0.00  0.00    -0.269 OA
ATOM      5  N   UNL     1      -4.757   1.339  -0.150  0.00  0.00    -0.231 N 
ATOM      6  H   UNL     1      -3.925   1.833  -0.082  0.00  0.00    +0.173 HD
BRANCH   3  12
ATOM      7  C   UNL     1      -3.485   6.340  -0.017  0.00  0.00    +0.044 C 
ATOM      8  C   UNL     1      -4.775   5.568  -0.124  0.00  0.00    -0.050 A 
ATOM      9  C   UNL     1      -5.979   6.247  -0.214  0.00  0.00    +0.007 A 
ATOM     10  C   UNL     1      -7.167   5.552  -0.312  0.00  0.00    +0.046 A 
ATOM     11  C   UNL     1      -7.162   4.165  -0.320  0.00  0.00    +0.129 A 
ATOM     12  C   UNL     1      -5.946   3.474  -0.230  0.00  0.00    +0.080 A 
ATOM     13  C   UNL     1      -4.752   4.191  -0.126  0.00  0.00    +0.020 A 
BRANCH  11  14
ATOM     14  O   UNL     1      -8.329   3.480  -0.415  0.00  0.00    -0.506 OA
ATOM     15  H   UNL     1      -8.736   3.276   0.438  0.00  0.00    +0.292 HD
ENDBRANCH  11  14
ENDBRANCH   3  12
ENDBRANCH   1   5
BRANCH   1  16
ATOM     16  C   UNL     1      -3.568  -0.722  -0.070  0.00  0.00    +0.151 C 
ATOM     17  S   UNL     1      -3.547  -2.434  -0.079  0.00  0.00    -0.017 S 
BRANCH  16  18
ATOM     18  N   UNL     1      -2.413  -0.035   0.024  0.00  0.00    -0.295 N 
ATOM     19  H   UNL     1      -2.428   0.933   0.093  0.00  0.00    +0.154 HD
BRANCH  18  20
ATOM     20  C   UNL     1      -1.191  -0.717   0.024  0.00  0.00    +0.044 A 
ATOM     21  C   UNL     1      -1.012  -1.826   0.840  0.00  0.00    +0.024 A 
ATOM     22  C   UNL     1       0.195  -2.497   0.837  0.00  0.00    +0.002 A 
ATOM     23  C   UNL     1       1.225  -2.066   0.021  0.00  0.00    +0.001 A 
ATOM     24  C   UNL     1       1.048  -0.965  -0.797  0.00  0.00    +0.014 A 
ATOM     25  C   UNL     1      -0.155  -0.286  -0.794  0.00  0.00    +0.076 A 
BRANCH  25  26
ATOM     26  C   UNL     1      -0.344   0.917  -1.682  0.00  0.00    +0.419 C 
ATOM     27  F   UNL     1       0.830   1.153  -2.405  0.00  0.00    -0.166 F 
ATOM     28  F   UNL     1      -1.399   0.680  -2.570  0.00  0.00    -0.166 F 
ATOM     29  F   UNL     1      -0.640   2.035  -0.895  0.00  0.00    -0.166 F 
ENDBRANCH  25  26
ENDBRANCH  18  20
ENDBRANCH  16  18
ENDBRANCH   1  16
TORSDOF 7
