REMARK  Name = ZINC32910757
REMARK  7 active torsions:
REMARK  status: ('A' for Active; 'I' for Inactive)
REMARK    1  A    between atoms: C_1  and  O_2
REMARK    2  A    between atoms: O_2  and  C_3
REMARK    3  A    between atoms: C_3  and  S_4
REMARK    4  A    between atoms: S_4  and  C_5
REMARK    5  A    between atoms: C_8  and  C_17
REMARK    6  A    between atoms: N_9  and  C_10
REMARK    7  A    between atoms: C_10  and  C_11
REMARK                            x       y       z     vdW  Elec       q    Type
REMARK                         _______ _______ _______ _____ _____    ______ ____
ROOT
ATOM      1  C   UNL     1       1.947   2.147   0.026  0.00  0.00    +0.194 A 
ATOM      2  N   UNL     1       2.989   1.362  -0.134  0.00  0.00    -0.122 NA
ATOM      3  N   UNL     1       4.071   2.055  -0.116  0.00  0.00    -0.128 NA
ATOM      4  C   UNL     1       3.787   3.324   0.067  0.00  0.00    +0.168 A 
ATOM      5  N   UNL     1       2.418   3.422   0.164  0.00  0.00    -0.298 N 
ENDROOT
BRANCH   4   6
ATOM      6  C   UNL     1       4.756   4.437   0.154  0.00  0.00    +0.054 A 
ATOM      7  C   UNL     1       4.555   5.601  -0.591  0.00  0.00    +0.014 A 
ATOM      8  C   UNL     1       5.463   6.636  -0.506  0.00  0.00    +0.001 A 
ATOM      9  C   UNL     1       6.571   6.524   0.315  0.00  0.00    +0.003 A 
ATOM     10  C   UNL     1       6.778   5.375   1.057  0.00  0.00    +0.039 A 
ATOM     11  C   UNL     1       5.874   4.332   0.986  0.00  0.00    +0.134 A 
ATOM     12  F   UNL     1       6.073   3.212   1.714  0.00  0.00    -0.205 F 
ENDBRANCH   4   6
BRANCH   1  13
ATOM     13  S   UNL     1       0.258   1.648   0.065  0.00  0.00    -0.058 S 
BRANCH  13  14
ATOM     14  C   UNL     1       0.452  -0.135  -0.180  0.00  0.00    +0.236 C 
BRANCH  14  16
ATOM     15  C   UNL     1      -0.066  -0.854   2.047  0.00  0.00    +0.195 C 
ATOM     16  O   UNL     1       0.928  -0.733   1.028  0.00  0.00    -0.372 OA
ENDBRANCH  14  16
ENDBRANCH  13  14
ENDBRANCH   1  13
BRANCH   5  17
ATOM     17  C   UNL     1       1.630   4.640   0.371  0.00  0.00    +0.161 C 
BRANCH  17  18
ATOM     18  C   UNL     1       1.451   4.877   1.848  0.00  0.00    -0.028 A 
ATOM     19  C   UNL     1       0.352   4.354   2.504  0.00  0.00    +0.005 A 
ATOM     20  C   UNL     1       0.190   4.567   3.860  0.00  0.00    +0.000 A 
ATOM     21  C   UNL     1       1.122   5.312   4.559  0.00  0.00    +0.000 A 
ATOM     22  C   UNL     1       2.218   5.839   3.902  0.00  0.00    +0.000 A 
ATOM     23  C   UNL     1       2.383   5.622   2.547  0.00  0.00    +0.005 A 
ENDBRANCH  17  18
ENDBRANCH   5  17
TORSDOF 6
