REMARK  Name = ZINC10785837
REMARK  8 active torsions:
REMARK  status: ('A' for Active; 'I' for Inactive)
REMARK    1  A    between atoms: C_1  and  C_2
REMARK    2  A    between atoms: C_2  and  O_3
REMARK    3  A    between atoms: O_3  and  C_4
REMARK    4  A    between atoms: C_7  and  C_9
REMARK    5  A    between atoms: C_13  and  N_14
REMARK    6  A    between atoms: C_15  and  C_17
REMARK    7  A    between atoms: N_23  and  S_24
REMARK    8  A    between atoms: S_24  and  C_27
REMARK                            x       y       z     vdW  Elec       q    Type
REMARK                         _______ _______ _______ _____ _____    ______ ____
ROOT
ATOM      1  N   UNL     1      -2.294   1.168   3.807  0.00  0.00    -0.278 N 
ATOM      2  C   UNL     1      -2.808   1.420   2.586  0.00  0.00    +0.236 C 
ATOM      3  O   UNL     1      -3.837   2.053   2.480  0.00  0.00    -0.274 OA
ATOM      4  H   UNL     1      -1.471   0.661   3.891  0.00  0.00    +0.155 HD
ENDROOT
BRANCH   1   9
ATOM      5  C   UNL     1      -2.578   1.471   6.267  0.00  0.00    +0.069 A 
ATOM      6  C   UNL     1      -3.443   2.069   7.284  0.00  0.00    -0.023 A 
ATOM      7  C   UNL     1      -4.523   2.714   6.808  0.00  0.00    -0.004 A 
ATOM      8  S   UNL     1      -4.408   2.546   5.043  0.00  0.00    -0.077 S 
ATOM      9  C   UNL     1      -2.942   1.632   4.941  0.00  0.00    +0.084 A 
ATOM     10  C   UNL     1      -5.363   3.298   7.911  0.00  0.00    +0.043 C 
ATOM     11  C   UNL     1      -4.434   3.305   9.146  0.00  0.00    +0.010 C 
ATOM     12  C   UNL     1      -3.458   2.159   8.811  0.00  0.00    +0.037 C 
BRANCH   5  16
ATOM     13  C   UNL     1      -0.318  -1.275   7.200  0.00  0.00    +0.407 C 
ATOM     14  O   UNL     1       0.742  -0.690   7.309  0.00  0.00    -0.226 OA
ATOM     15  N   UNL     1      -1.430  -0.596   6.859  0.00  0.00    -0.217 N 
ATOM     16  C   UNL     1      -1.368   0.733   6.638  0.00  0.00    +0.255 C 
ATOM     17  O   UNL     1      -0.307   1.318   6.747  0.00  0.00    -0.270 OA
ATOM     18  H   UNL     1      -2.276  -1.062   6.772  0.00  0.00    +0.161 HD
BRANCH  13  19
ATOM     19  O   UNL     1      -0.380  -2.602   7.420  0.00  0.00    -0.450 OA
BRANCH  19  21
ATOM     20  C   UNL     1       0.591  -4.760   7.992  0.00  0.00    +0.048 C 
ATOM     21  C   UNL     1       0.858  -3.268   7.784  0.00  0.00    +0.230 C 
ENDBRANCH  19  21
ENDBRANCH  13  19
ENDBRANCH   5  16
ENDBRANCH   1   9
BRANCH   2  22
ATOM     22  C   UNL     1      -2.103   0.915   1.353  0.00  0.00    +0.166 C 
ATOM     23  C   UNL     1      -1.652   2.103   0.498  0.00  0.00    +0.030 C 
ATOM     24  C   UNL     1      -1.062   1.585  -0.816  0.00  0.00    +0.003 C 
ATOM     25  C   UNL     1      -2.134   0.813  -1.589  0.00  0.00    +0.017 C 
ATOM     26  C   UNL     1      -2.591  -0.389  -0.757  0.00  0.00    +0.110 C 
ATOM     27  N   UNL     1      -3.025   0.087   0.564  0.00  0.00    -0.164 NA
BRANCH  27  28
ATOM     28  S   UNL     1      -4.523  -0.303   1.151  0.00  0.00    +0.068 S 
ATOM     29  O   UNL     1      -4.912  -1.507   0.505  0.00  0.00    -0.152 OA
ATOM     30  O   UNL     1      -4.447  -0.188   2.566  0.00  0.00    -0.152 OA
BRANCH  28  31
ATOM     31  C   UNL     1      -5.639   0.946   0.604  0.00  0.00    +0.143 A 
ATOM     32  C   UNL     1      -6.371   0.996  -0.536  0.00  0.00    +0.036 A 
ATOM     33  C   UNL     1      -7.192   2.086  -0.757  0.00  0.00    +0.010 A 
ATOM     34  C   UNL     1      -7.232   3.077   0.166  0.00  0.00    +0.047 A 
ATOM     35  S   UNL     1      -6.091   2.478   1.401  0.00  0.00    -0.077 S 
ENDBRANCH  28  31
ENDBRANCH  27  28
ENDBRANCH   2  22
TORSDOF 7
