REMARK  Name = ZINC02153688
REMARK  5 active torsions:
REMARK  status: ('A' for Active; 'I' for Inactive)
REMARK    1  A    between atoms: C_6  and  S_7
REMARK    2  A    between atoms: S_7  and  N_10
REMARK    3  A    between atoms: N_10  and  C_11
REMARK    4  A    between atoms: C_13  and  C_19
REMARK    5  A    between atoms: C_15  and  C_16
REMARK                            x       y       z     vdW  Elec       q    Type
REMARK                         _______ _______ _______ _____ _____    ______ ____
ROOT
ATOM      1  C   UNL     1      -1.192   3.281   2.424  0.00  0.00    +0.068 A 
ATOM      2  C   UNL     1      -0.573   4.398   1.919  0.00  0.00    +0.041 A 
ATOM      3  C   UNL     1       0.195   5.175   2.769  0.00  0.00    +0.022 A 
ATOM      4  S   UNL     1       0.042   4.309   4.322  0.00  0.00    -0.082 S 
ATOM      5  C   UNL     1      -1.021   2.983   3.777  0.00  0.00    +0.097 A 
ENDROOT
BRANCH   5   6
ATOM      6  C   UNL     1      -1.552   1.908   4.522  0.00  0.00    +0.250 C 
ATOM      7  O   UNL     1      -2.267   1.084   3.979  0.00  0.00    -0.270 OA
ATOM      8  N   UNL     1      -1.268   1.793   5.834  0.00  0.00    -0.325 N 
ATOM      9  H   UNL     1      -0.699   2.449   6.267  0.00  0.00    +0.145 HD
ATOM     10  H   UNL     1      -1.632   1.054   6.346  0.00  0.00    +0.145 HD
ENDBRANCH   5   6
BRANCH   3  11
ATOM     11  C   UNL     1       0.949   6.408   2.467  0.00  0.00    -0.004 A 
ATOM     12  C   UNL     1       1.671   7.067   3.462  0.00  0.00    +0.016 A 
ATOM     13  C   UNL     1       2.342   8.187   3.114  0.00  0.00    +0.046 A 
ATOM     14  S   UNL     1       1.958   8.339   1.379  0.00  0.00    -0.104 S 
ATOM     15  C   UNL     1       0.955   6.936   1.206  0.00  0.00    +0.054 A 
ENDBRANCH   3  11
BRANCH   1  16
ATOM     16  N   UNL     1      -1.974   2.468   1.607  0.00  0.00    -0.215 N 
ATOM     17  H   UNL     1      -2.765   2.037   1.967  0.00  0.00    +0.174 HD
BRANCH  16  18
ATOM     18  S   UNL     1      -1.555   2.238   0.022  0.00  0.00    +0.072 S 
ATOM     19  O   UNL     1      -1.304   3.526  -0.523  0.00  0.00    -0.150 OA
ATOM     20  O   UNL     1      -2.519   1.352  -0.529  0.00  0.00    -0.150 OA
BRANCH  18  26
ATOM     21  C   UNL     1       1.171   2.086   0.002  0.00  0.00    +0.030 A 
ATOM     22  C   UNL     1       2.377   1.412  -0.013  0.00  0.00    +0.022 A 
ATOM     23  C   UNL     1       2.397   0.029  -0.021  0.00  0.00    +0.041 A 
ATOM     24  C   UNL     1       1.208  -0.679  -0.013  0.00  0.00    +0.022 A 
ATOM     25  C   UNL     1       0.002  -0.004   0.002  0.00  0.00    +0.030 A 
ATOM     26  C   UNL     1      -0.017   1.378   0.010  0.00  0.00    +0.109 A 
ATOM     27 CL   UNL     1       3.912  -0.818  -0.039  0.00  0.00    -0.084 Cl
ENDBRANCH  18  26
ENDBRANCH  16  18
ENDBRANCH   1  16
TORSDOF 5
