REMARK  Name = ZINC64982835
REMARK  11 active torsions:
REMARK  status: ('A' for Active; 'I' for Inactive)
REMARK    1  A    between atoms: C_1  and  C_2
REMARK    2  A    between atoms: C_4  and  N_25
REMARK    3  A    between atoms: C_7  and  N_8
REMARK    4  A    between atoms: C_9  and  C_11
REMARK    5  A    between atoms: C_11  and  C_13
REMARK    6  A    between atoms: C_11  and  O_14
REMARK    7  A    between atoms: O_14  and  C_15
REMARK    8  A    between atoms: C_20  and  C_21
REMARK    9  A    between atoms: C_21  and  C_22
REMARK   10  A    between atoms: C_21  and  C_23
REMARK   11  A    between atoms: C_21  and  C_24
REMARK                            x       y       z     vdW  Elec       q    Type
REMARK                         _______ _______ _______ _____ _____    ______ ____
ROOT
ATOM      1  N   UNL     1       0.016  -0.032   2.413  0.00  0.00    -0.282 N 
ATOM      2  C   UNL     1      -0.072  -0.705   3.577  0.00  0.00    +0.258 C 
ATOM      3  O   UNL     1      -0.084  -1.918   3.577  0.00  0.00    -0.271 OA
ATOM      4  H   UNL     1       0.085   0.935   2.416  0.00  0.00    +0.155 HD
ENDROOT
BRANCH   1  11
ATOM      5  C   UNL     1      -1.255   1.183   0.175  0.00  0.00    +0.046 C 
ATOM      6  C   UNL     1      -0.603  -0.173   0.082  0.00  0.00    -0.027 A 
ATOM      7  C   UNL     1      -0.606  -0.861  -1.116  0.00  0.00    +0.038 A 
ATOM      8  C   UNL     1      -0.007  -2.104  -1.202  0.00  0.00    +0.127 A 
ATOM      9  C   UNL     1       0.595  -2.663  -0.089  0.00  0.00    +0.034 A 
ATOM     10  C   UNL     1       0.602  -1.981   1.111  0.00  0.00    +0.026 A 
ATOM     11  C   UNL     1       0.006  -0.729   1.199  0.00  0.00    +0.037 A 
BRANCH   8  12
ATOM     12  N   UNL     1      -0.013  -2.839  -2.487  0.00  0.00    +0.056 N 
ATOM     13  O   UNL     1      -0.539  -2.352  -3.459  0.00  0.00    -0.126 OA
ATOM     14  O   UNL     1       0.510  -3.927  -2.563  0.00  0.00    -0.126 OA
ENDBRANCH   8  12
ENDBRANCH   1  11
BRANCH   2  15
ATOM     15  C   UNL     1      -0.156   0.049   4.879  0.00  0.00    +0.256 C 
ATOM     16  C   UNL     1      -1.462   0.845   4.924  0.00  0.00    +0.062 C 
BRANCH  15  17
ATOM     17  O   UNL     1      -0.123  -0.876   5.968  0.00  0.00    -0.480 OA
BRANCH  17  18
ATOM     18  C   UNL     1       0.307  -0.402   7.167  0.00  0.00    +0.125 A 
ATOM     19  C   UNL     1       0.776   0.900   7.272  0.00  0.00    +0.046 A 
ATOM     20  C   UNL     1       1.212   1.379   8.492  0.00  0.00    +0.004 A 
ATOM     21  C   UNL     1       1.182   0.562   9.607  0.00  0.00    +0.001 A 
ATOM     22  C   UNL     1       0.716  -0.735   9.505  0.00  0.00    +0.008 A 
ATOM     23  C   UNL     1       0.273  -1.217   8.289  0.00  0.00    -0.000 A 
BRANCH  23  24
ATOM     24  C   UNL     1      -0.241  -2.630   8.179  0.00  0.00    -0.009 C 
ATOM     25  C   UNL     1      -0.171  -3.305   9.550  0.00  0.00    +0.015 C 
ATOM     26  C   UNL     1      -1.692  -2.608   7.694  0.00  0.00    +0.015 C 
ATOM     27  C   UNL     1       0.619  -3.409   7.182  0.00  0.00    +0.015 C 
ENDBRANCH  23  24
ENDBRANCH  17  18
ENDBRANCH  15  17
ENDBRANCH   2  15
TORSDOF 6
