REMARK  Name = ZINC66510518
REMARK  9 active torsions:
REMARK  status: ('A' for Active; 'I' for Inactive)
REMARK    1  A    between atoms: C_1  and  C_2
REMARK    2  A    between atoms: C_2  and  C_4
REMARK    3  A    between atoms: C_2  and  C_19
REMARK    4  A    between atoms: C_4  and  C_5
REMARK    5  A    between atoms: C_5  and  C_7
REMARK    6  A    between atoms: C_7  and  C_9
REMARK    7  A    between atoms: C_7  and  C_11
REMARK    8  A    between atoms: N_13  and  C_14
REMARK    9  A    between atoms: C_22  and  C_25
REMARK                            x       y       z     vdW  Elec       q    Type
REMARK                         _______ _______ _______ _____ _____    ______ ____
ROOT
ATOM      1  C   UNL     1      -2.125  -0.137  -1.266  0.00  0.00    +0.160 C 
ATOM      2  O   UNL     1      -1.531   0.503  -2.100  0.00  0.00    -0.295 OA
ENDROOT
BRANCH   1   3
ATOM      3  C   UNL     1      -1.433  -0.534   0.013  0.00  0.00    +0.084 C 
BRANCH   3   5
ATOM      4  C   UNL     1      -0.019   1.526   0.010  0.00  0.00    +0.013 C 
ATOM      5  C   UNL     1       0.002  -0.004   0.002  0.00  0.00    +0.023 C 
BRANCH   5   6
ATOM      6  C   UNL     1       0.731  -0.503   1.223  0.00  0.00    -0.044 A 
ATOM      7  C   UNL     1       0.263  -0.187   2.485  0.00  0.00    +0.004 A 
ATOM      8  C   UNL     1       0.931  -0.645   3.605  0.00  0.00    +0.012 A 
ATOM      9  C   UNL     1       2.068  -1.419   3.463  0.00  0.00    +0.055 A 
ATOM     10  C   UNL     1       2.535  -1.736   2.201  0.00  0.00    +0.012 A 
ATOM     11  C   UNL     1       1.864  -1.282   1.081  0.00  0.00    +0.004 A 
BRANCH   9  12
ATOM     12  C   UNL     1       2.797  -1.918   4.684  0.00  0.00    +0.417 C 
ATOM     13  F   UNL     1       2.280  -3.162   5.060  0.00  0.00    -0.166 F 
ATOM     14  F   UNL     1       4.159  -2.048   4.392  0.00  0.00    -0.166 F 
ATOM     15  F   UNL     1       2.629  -1.006   5.732  0.00  0.00    -0.166 F 
ENDBRANCH   9  12
ENDBRANCH   5   6
ENDBRANCH   3   5
ENDBRANCH   1   3
BRANCH   1  16
ATOM     16  C   UNL     1      -3.557  -0.540  -1.504  0.00  0.00    +0.242 C 
BRANCH  16  17
ATOM     17  C   UNL     1      -3.791  -0.713  -2.983  0.00  0.00    +0.238 C 
ATOM     18  O   UNL     1      -2.884  -0.528  -3.766  0.00  0.00    -0.274 OA
ATOM     19  N   UNL     1      -5.009  -1.073  -3.435  0.00  0.00    -0.311 N 
ATOM     20  H   UNL     1      -5.734  -1.221  -2.808  0.00  0.00    +0.149 HD
BRANCH  19  21
ATOM     21  C   UNL     1      -5.236  -1.242  -4.872  0.00  0.00    +0.073 C 
ATOM     22  C   UNL     1      -5.641   0.106  -5.505  0.00  0.00    +0.022 C 
ATOM     23  C   UNL     1      -6.696  -0.277  -6.572  0.00  0.00    +0.002 C 
ATOM     24  C   UNL     1      -7.486  -1.415  -5.879  0.00  0.00    +0.002 C 
ATOM     25  C   UNL     1      -6.410  -2.208  -5.110  0.00  0.00    +0.022 C 
ENDBRANCH  19  21
ENDBRANCH  16  17
BRANCH  16  26
ATOM     26  C   UNL     1      -4.454   0.506  -0.985  0.00  0.00    +0.083 C 
ATOM     27  N   UNL     1      -5.145   1.313  -0.584  0.00  0.00    -0.195 NA
ENDBRANCH  16  26
ENDBRANCH   1  16
TORSDOF 8
