REMARK  Name = ZINC06078316
REMARK  18 active torsions:
REMARK  status: ('A' for Active; 'I' for Inactive)
REMARK    1  A    between atoms: C_1  and  C_2
REMARK    2  A    between atoms: C_2  and  N_71
REMARK    3  A    between atoms: C_3  and  C_4
REMARK    4  A    between atoms: C_3  and  N_71
REMARK    5  A    between atoms: C_5  and  C_6
REMARK    6  A    between atoms: C_5  and  N_71
REMARK    7  A    between atoms: C_6  and  N_7
REMARK    8  A    between atoms: N_7  and  C_8
REMARK    9  A    between atoms: N_7  and  C_23
REMARK   10  A    between atoms: C_8  and  C_9
REMARK   11  A    between atoms: C_13  and  C_22
REMARK   12  A    between atoms: C_15  and  C_21
REMARK   13  A    between atoms: C_23  and  N_25
REMARK   14  A    between atoms: N_25  and  C_26
REMARK   15  A    between atoms: C_29  and  O_34
REMARK   16  A    between atoms: C_31  and  O_32
REMARK   17  A    between atoms: O_32  and  C_33
REMARK   18  A    between atoms: O_34  and  C_35
REMARK                            x       y       z     vdW  Elec       q    Type
REMARK                         _______ _______ _______ _____ _____    ______ ____
ROOT
ATOM      1  N   UNL     1      -1.702   7.745  -1.436  0.00  0.00    -0.310 N 
ENDROOT
BRANCH   1   2
ATOM      2  C   UNL     1      -2.970   7.970  -1.833  0.00  0.00    +0.137 C 
ATOM      3  S   UNL     1      -4.277   7.481  -0.840  0.00  0.00    -0.018 S 
BRANCH   2   4
ATOM      4  N   UNL     1      -3.210   8.581  -3.010  0.00  0.00    -0.294 N 
ATOM      5  H   UNL     1      -2.471   8.914  -3.543  0.00  0.00    +0.154 HD
BRANCH   4   6
ATOM      6  C   UNL     1      -4.528   8.733  -3.466  0.00  0.00    +0.075 A 
ATOM      7  C   UNL     1      -5.508   9.213  -2.609  0.00  0.00    +0.030 A 
ATOM      8  C   UNL     1      -6.806   9.364  -3.058  0.00  0.00    +0.047 A 
ATOM      9  C   UNL     1      -7.133   9.036  -4.366  0.00  0.00    +0.124 A 
ATOM     10  C   UNL     1      -6.157   8.556  -5.226  0.00  0.00    +0.093 A 
ATOM     11  C   UNL     1      -4.854   8.408  -4.781  0.00  0.00    +0.145 A 
BRANCH  11  12
ATOM     12  O   UNL     1      -3.894   7.942  -5.624  0.00  0.00    -0.493 OA
ATOM     13  C   UNL     1      -4.300   7.629  -6.958  0.00  0.00    +0.277 C 
ENDBRANCH  11  12
BRANCH   9  14
ATOM     14  O   UNL     1      -8.411   9.187  -4.805  0.00  0.00    -0.495 OA
ATOM     15  C   UNL     1      -9.364   9.687  -3.865  0.00  0.00    +0.277 C 
ENDBRANCH   9  14
ENDBRANCH   4   6
ENDBRANCH   2   4
ENDBRANCH   1   2
BRANCH   1  16
ATOM     16  C   UNL     1      -0.584   8.251  -2.236  0.00  0.00    +0.088 C 
BRANCH  16  17
ATOM     17  C   UNL     1      -0.177   7.197  -3.269  0.00  0.00    -0.060 C 
BRANCH  17  18
ATOM     18  N   UNL     1       0.936   7.731  -4.081  0.00  0.00    +0.380 N 
ATOM     19  H   UNL     1       0.673   8.655  -4.443  0.00  0.00    -0.082 HD
BRANCH  18  21
ATOM     20  C   UNL     1       2.622   6.500  -2.756  0.00  0.00    -0.017 C 
ATOM     21  C   UNL     1       2.149   7.870  -3.247  0.00  0.00    -0.082 C 
ENDBRANCH  18  21
BRANCH  18  22
ATOM     22  C   UNL     1       1.208   6.829  -5.220  0.00  0.00    -0.082 C 
ATOM     23  C   UNL     1       2.273   7.467  -6.114  0.00  0.00    -0.017 C 
ENDBRANCH  18  22
ENDBRANCH  17  18
ENDBRANCH  16  17
ENDBRANCH   1  16
BRANCH   1  24
ATOM     24  C   UNL     1      -1.442   6.994  -0.206  0.00  0.00    +0.147 C 
BRANCH  24  25
ATOM     25  C   UNL     1      -1.436   7.940   0.968  0.00  0.00    +0.035 A 
ATOM     26  C   UNL     1      -2.552   8.085   1.724  0.00  0.00    +0.020 A 
ATOM     27  C   UNL     1      -2.513   9.011   2.857  0.00  0.00    -0.001 A 
ATOM     28  C   UNL     1      -3.633   9.203   3.674  0.00  0.00    +0.013 A 
ATOM     29  C   UNL     1      -3.564  10.074   4.723  0.00  0.00    -0.050 A 
ATOM     30  C   UNL     1      -2.393  10.772   4.987  0.00  0.00    +0.008 A 
ATOM     31  C   UNL     1      -1.280  10.604   4.193  0.00  0.00    -0.026 A 
ATOM     32  C   UNL     1      -1.324   9.717   3.121  0.00  0.00    +0.052 A 
ATOM     33  N   UNL     1      -0.224   9.525   2.313  0.00  0.00    -0.322 N 
ATOM     34  H   UNL     1       0.620  10.027   2.502  0.00  0.00    +0.169 HD
ATOM     35  C   UNL     1      -0.269   8.672   1.275  0.00  0.00    +0.254 A 
ATOM     36  O   UNL     1       0.723   8.527   0.582  0.00  0.00    -0.268 OA
ATOM     37  C   UNL     1      -0.018  11.372   4.487  0.00  0.00    +0.046 C 
ATOM     38  C   UNL     1      -4.770  10.280   5.603  0.00  0.00    +0.044 C 
ENDBRANCH  24  25
ENDBRANCH   1  24
TORSDOF 12
