REMARK  Name = ZINC36296351
REMARK  5 active torsions:
REMARK  status: ('A' for Active; 'I' for Inactive)
REMARK    1  A    between atoms: C_1  and  C_2
REMARK    2  A    between atoms: C_3  and  N_21
REMARK    3  A    between atoms: C_7  and  N_8
REMARK    4  A    between atoms: N_8  and  S_9
REMARK    5  A    between atoms: S_9  and  C_12
REMARK                            x       y       z     vdW  Elec       q    Type
REMARK                         _______ _______ _______ _____ _____    ______ ____
ROOT
ATOM      1  N   UNL     1       0.026  -0.016   2.413  0.00  0.00    -0.216 N 
ATOM      2  H   UNL     1      -0.522   0.779   2.510  0.00  0.00    +0.174 HD
ENDROOT
BRANCH   1   9
ATOM      3  C   UNL     1       0.152   1.691   0.144  0.00  0.00    +0.047 C 
ATOM      4  C   UNL     1       0.258   0.193   0.022  0.00  0.00    -0.007 A 
ATOM      5  C   UNL     1       0.428  -0.394  -1.224  0.00  0.00    +0.029 A 
ATOM      6  C   UNL     1       0.525  -1.776  -1.333  0.00  0.00    +0.023 A 
ATOM      7  C   UNL     1       0.452  -2.566  -0.201  0.00  0.00    +0.004 A 
ATOM      8  C   UNL     1       0.282  -1.985   1.041  0.00  0.00    +0.025 A 
ATOM      9  C   UNL     1       0.191  -0.603   1.157  0.00  0.00    +0.053 A 
BRANCH   5  10
ATOM     10  N   UNL     1       0.502   0.404  -2.368  0.00  0.00    -0.358 N 
ATOM     11  H   UNL     1       0.434   1.369  -2.292  0.00  0.00    +0.142 HD
ATOM     12  H   UNL     1       0.621  -0.006  -3.239  0.00  0.00    +0.142 HD
ENDBRANCH   5  10
ENDBRANCH   1   9
BRANCH   1  13
ATOM     13  S   UNL     1       0.764  -0.678   3.740  0.00  0.00    +0.072 S 
ATOM     14  O   UNL     1       0.520   0.207   4.824  0.00  0.00    -0.150 OA
ATOM     15  O   UNL     1       0.387  -2.048   3.774  0.00  0.00    -0.150 OA
BRANCH  13  16
ATOM     16  C   UNL     1       2.501  -0.641   3.441  0.00  0.00    +0.109 A 
ATOM     17  C   UNL     1       3.119  -1.707   2.814  0.00  0.00    +0.032 A 
ATOM     18  C   UNL     1       4.478  -1.682   2.574  0.00  0.00    +0.048 A 
ATOM     19  C   UNL     1       5.238  -0.582   2.963  0.00  0.00    +0.124 A 
ATOM     20  C   UNL     1       4.606   0.479   3.599  0.00  0.00    -0.001 A 
ATOM     21  C   UNL     1       3.248   0.456   3.829  0.00  0.00    +0.036 A 
ATOM     22  C   UNL     1       5.676   1.505   3.921  0.00  0.00    +0.080 C 
ATOM     23  C   UNL     1       6.973   0.682   3.738  0.00  0.00    +0.234 C 
ATOM     24  O   UNL     1       6.571  -0.346   2.817  0.00  0.00    -0.491 OA
ENDBRANCH  13  16
ENDBRANCH   1  13
TORSDOF 4
