REMARK  Name = ZINC09404328
REMARK  9 active torsions:
REMARK  status: ('A' for Active; 'I' for Inactive)
REMARK    1  A    between atoms: C_2  and  C_3
REMARK    2  A    between atoms: C_3  and  N_4
REMARK    3  A    between atoms: N_4  and  C_5
REMARK    4  A    between atoms: N_4  and  S_8
REMARK    5  A    between atoms: C_5  and  C_6
REMARK    6  A    between atoms: S_8  and  C_11
REMARK    7  A    between atoms: C_14  and  C_17
REMARK    8  A    between atoms: C_17  and  C_19
REMARK    9  A    between atoms: C_19  and  C_29
REMARK                            x       y       z     vdW  Elec       q    Type
REMARK                         _______ _______ _______ _____ _____    ______ ____
ROOT
ATOM      1  C   UNL     1       0.788  -0.529   3.500  0.00  0.00    +0.106 A 
ATOM      2  C   UNL     1       0.665   0.849   3.525  0.00  0.00    +0.029 A 
ATOM      3  C   UNL     1      -0.290   1.445   4.323  0.00  0.00    +0.013 A 
ATOM      4  C   UNL     1      -1.133   0.654   5.105  0.00  0.00    +0.023 A 
ATOM      5  C   UNL     1      -1.004  -0.735   5.075  0.00  0.00    +0.013 A 
ATOM      6  C   UNL     1      -0.048  -1.318   4.269  0.00  0.00    +0.029 A 
ENDROOT
BRANCH   1   7
ATOM      7  S   UNL     1       2.010  -1.282   2.478  0.00  0.00    +0.061 S 
ATOM      8  O   UNL     1       2.281  -2.558   3.042  0.00  0.00    -0.153 OA
ATOM      9  O   UNL     1       3.025  -0.308   2.274  0.00  0.00    -0.153 OA
BRANCH   7  10
ATOM     10  N   UNL     1       1.313  -1.555   1.001  0.00  0.00    -0.169 NA
BRANCH  10  11
ATOM     11  C   UNL     1       1.383  -0.530  -0.043  0.00  0.00    +0.136 C 
BRANCH  11  13
ATOM     12  C   UNL     1       0.218   1.610   0.108  0.00  0.00    +0.005 C 
ATOM     13  C   UNL     1       0.131   0.308  -0.009  0.00  0.00    -0.018 C 
ENDBRANCH  11  13
ENDBRANCH  10  11
BRANCH  10  14
ATOM     14  C   UNL     1       0.625  -2.822   0.739  0.00  0.00    +0.136 C 
BRANCH  14  15
ATOM     15  C   UNL     1       1.575  -3.779   0.066  0.00  0.00    -0.018 C 
ATOM     16  C   UNL     1       1.788  -4.963   0.583  0.00  0.00    +0.005 C 
ENDBRANCH  14  15
ENDBRANCH  10  14
ENDBRANCH   7  10
ENDBRANCH   1   7
BRANCH   4  17
ATOM     17  C   UNL     1      -2.160   1.286   5.963  0.00  0.00    +0.206 C 
ATOM     18  O   UNL     1      -2.676   2.337   5.623  0.00  0.00    -0.286 OA
BRANCH  17  19
ATOM     19  C   UNL     1      -2.542   0.672   7.178  0.00  0.00    +0.127 C 
ATOM     20  C   UNL     1      -3.606   1.200   7.929  0.00  0.00    +0.092 C 
ATOM     21  N   UNL     1      -4.098   0.746   9.109  0.00  0.00    -0.307 N 
ATOM     22  C   UNL     1      -5.159   1.397   9.708  0.00  0.00    +0.046 A 
ATOM     23  C   UNL     1      -5.815   1.101  10.911  0.00  0.00    +0.024 A 
ATOM     24  C   UNL     1      -6.864   1.877  11.346  0.00  0.00    +0.002 A 
ATOM     25  C   UNL     1      -7.302   2.967  10.613  0.00  0.00    +0.001 A 
ATOM     26  C   UNL     1      -6.671   3.281   9.422  0.00  0.00    +0.017 A 
ATOM     27  C   UNL     1      -5.622   2.507   8.986  0.00  0.00    +0.035 A 
ATOM     28  S   UNL     1      -4.553   2.542   7.571  0.00  0.00    -0.071 S 
ATOM     29  H   UNL     1      -3.707  -0.035   9.531  0.00  0.00    +0.153 HD
BRANCH  19  30
ATOM     30  C   UNL     1      -1.843  -0.488   7.644  0.00  0.00    +0.105 C 
ATOM     31  N   UNL     1      -1.290  -1.409   8.014  0.00  0.00    -0.191 NA
ENDBRANCH  19  30
ENDBRANCH  17  19
ENDBRANCH   4  17
TORSDOF 9
