REMARK  Name = ZINC57467294
REMARK  8 active torsions:
REMARK  status: ('A' for Active; 'I' for Inactive)
REMARK    1  A    between atoms: C_1  and  C_2
REMARK    2  A    between atoms: C_7  and  N_12
REMARK    3  A    between atoms: C_9  and  C_11
REMARK    4  A    between atoms: N_15  and  C_16
REMARK    5  A    between atoms: C_16  and  C_17
REMARK    6  A    between atoms: C_20  and  N_23
REMARK    7  A    between atoms: C_26  and  C_29
REMARK    8  A    between atoms: C_29  and  O_30
REMARK                            x       y       z     vdW  Elec       q    Type
REMARK                         _______ _______ _______ _____ _____    ______ ____
ROOT
ATOM      1  C   UNL     1       1.571  -5.536   4.529  0.00  0.00    +0.141 C 
ENDROOT
BRANCH   1   5
ATOM      2  N   UNL     1       1.443  -2.511   2.443  0.00  0.00    -0.296 N 
ATOM      3  C   UNL     1       1.191  -3.746   2.921  0.00  0.00    +0.300 C 
ATOM      4  O   UNL     1       0.373  -4.456   2.368  0.00  0.00    -0.253 OA
ATOM      5  N   UNL     1       1.845  -4.194   4.010  0.00  0.00    -0.295 N 
ATOM      6  H   UNL     1       2.095  -1.944   2.884  0.00  0.00    +0.151 HD
ATOM      7  H   UNL     1       2.497  -3.627   4.451  0.00  0.00    +0.151 HD
BRANCH   2  13
ATOM      8  C   UNL     1      -0.086   1.543   0.062  0.00  0.00    +0.008 C 
ATOM      9  C   UNL     1      -0.049   0.013   0.042  0.00  0.00    -0.009 C 
ATOM     10  C   UNL     1       0.676  -0.462  -1.219  0.00  0.00    +0.003 C 
ATOM     11  C   UNL     1       0.713  -1.992  -1.240  0.00  0.00    +0.002 C 
ATOM     12  C   UNL     1       1.456  -2.500  -0.002  0.00  0.00    +0.022 C 
ATOM     13  C   UNL     1       0.732  -2.024   1.259  0.00  0.00    +0.078 C 
ATOM     14  C   UNL     1       0.694  -0.495   1.279  0.00  0.00    +0.009 C 
ATOM     15  C   UNL     1      -0.030  -0.019   2.540  0.00  0.00    +0.009 C 
ENDBRANCH   2  13
ENDBRANCH   1   5
BRANCH   1  16
ATOM     16  C   UNL     1       2.427  -5.790   5.743  0.00  0.00    -0.030 A 
ATOM     17  C   UNL     1       3.684  -6.348   5.597  0.00  0.00    +0.007 A 
ATOM     18  C   UNL     1       4.471  -6.582   6.708  0.00  0.00    +0.023 A 
ATOM     19  C   UNL     1       3.999  -6.255   7.973  0.00  0.00    +0.030 A 
ATOM     20  C   UNL     1       2.736  -5.695   8.116  0.00  0.00    +0.023 A 
ATOM     21  C   UNL     1       1.956  -5.459   7.001  0.00  0.00    +0.007 A 
BRANCH  19  22
ATOM     22  N   UNL     1       4.792  -6.491   9.098  0.00  0.00    -0.330 N 
ATOM     23  C   UNL     1       4.357  -6.042  10.428  0.00  0.00    +0.105 C 
ATOM     24  C   UNL     1       5.471  -5.195  11.051  0.00  0.00    +0.024 C 
ATOM     25  C   UNL     1       6.774  -5.997  11.054  0.00  0.00    +0.017 C 
ATOM     26  C   UNL     1       7.171  -6.333   9.614  0.00  0.00    +0.024 C 
ATOM     27  C   UNL     1       6.074  -7.198   8.976  0.00  0.00    +0.105 C 
BRANCH  25  28
ATOM     28  C   UNL     1       7.882  -5.167  11.707  0.00  0.00    +0.159 C 
BRANCH  28  29
ATOM     29  O   UNL     1       9.068  -5.957  11.815  0.00  0.00    -0.395 OA
ATOM     30  H   UNL     1       9.813  -5.493  12.221  0.00  0.00    +0.209 HD
ENDBRANCH  28  29
ENDBRANCH  25  28
ENDBRANCH  19  22
ENDBRANCH   1  16
TORSDOF 6
