REMARK  Name = ZINC67637951
REMARK  7 active torsions:
REMARK  status: ('A' for Active; 'I' for Inactive)
REMARK    1  A    between atoms: C_1  and  C_2
REMARK    2  A    between atoms: C_8  and  N_10
REMARK    3  A    between atoms: N_10  and  C_11
REMARK    4  A    between atoms: C_11  and  N_13
REMARK    5  A    between atoms: N_13  and  N_14
REMARK    6  A    between atoms: C_15  and  C_17
REMARK    7  A    between atoms: C_21  and  C_23
REMARK                            x       y       z     vdW  Elec       q    Type
REMARK                         _______ _______ _______ _____ _____    ______ ____
ROOT
ATOM      1  N   UNL     1       4.668   0.942   1.166  0.00  0.00    -0.231 N 
ATOM      2  C   UNL     1       5.933   1.409   1.156  0.00  0.00    +0.260 C 
ATOM      3  O   UNL     1       6.545   1.528   2.200  0.00  0.00    -0.269 OA
ATOM      4  H   UNL     1       4.180   0.848   0.333  0.00  0.00    +0.173 HD
ENDROOT
BRANCH   2   5
ATOM      5  C   UNL     1       6.575   1.776  -0.122  0.00  0.00    +0.039 A 
ATOM      6  C   UNL     1       5.872   1.646  -1.322  0.00  0.00    +0.016 A 
ATOM      7  C   UNL     1       6.476   1.990  -2.512  0.00  0.00    +0.039 A 
ATOM      8  C   UNL     1       7.779   2.465  -2.520  0.00  0.00    +0.135 A 
ATOM      9  C   UNL     1       8.481   2.596  -1.332  0.00  0.00    +0.091 A 
ATOM     10  C   UNL     1       7.885   2.260  -0.135  0.00  0.00    +0.028 A 
ATOM     11  F   UNL     1       8.366   2.801  -3.689  0.00  0.00    -0.205 F 
BRANCH   9  12
ATOM     12  C   UNL     1       9.897   3.111  -1.348  0.00  0.00    +0.420 C 
ATOM     13  F   UNL     1      10.393   3.154  -0.040  0.00  0.00    -0.166 F 
ATOM     14  F   UNL     1      10.694   2.261  -2.121  0.00  0.00    -0.166 F 
ATOM     15  F   UNL     1       9.919   4.398  -1.897  0.00  0.00    -0.166 F 
ENDBRANCH   9  12
ENDBRANCH   2   5
BRANCH   1  16
ATOM     16  N   UNL     1       4.059   0.594   2.379  0.00  0.00    -0.246 N 
ATOM     17  H   UNL     1       4.548   0.689   3.211  0.00  0.00    +0.172 HD
BRANCH  16  18
ATOM     18  C   UNL     1       2.795   0.128   2.388  0.00  0.00    +0.147 C 
ATOM     19  S   UNL     1       2.051  -0.298   3.870  0.00  0.00    -0.017 S 
BRANCH  18  20
ATOM     20  N   UNL     1       2.116  -0.004   1.231  0.00  0.00    -0.322 N 
ATOM     21  H   UNL     1       2.538   0.237   0.392  0.00  0.00    +0.148 HD
BRANCH  20  28
ATOM     22  C   UNL     1      -0.019   1.526   0.010  0.00  0.00    +0.009 C 
ATOM     23  C   UNL     1       0.002  -0.004   0.002  0.00  0.00    +0.006 C 
ATOM     24  C   UNL     1       0.718  -0.497  -1.257  0.00  0.00    +0.005 C 
ATOM     25  C   UNL     1       0.739  -2.027  -1.265  0.00  0.00    +0.000 C 
ATOM     26  C   UNL     1       1.479  -2.534  -0.026  0.00  0.00    +0.002 C 
ATOM     27  C   UNL     1       0.763  -2.041   1.233  0.00  0.00    +0.022 C 
ATOM     28  C   UNL     1       0.742  -0.511   1.242  0.00  0.00    +0.075 C 
ENDBRANCH  20  28
ENDBRANCH  18  20
ENDBRANCH  16  18
ENDBRANCH   1  16
TORSDOF 6
