REMARK  Name = ZINC42902586
REMARK  10 active torsions:
REMARK  status: ('A' for Active; 'I' for Inactive)
REMARK    1  A    between atoms: C_1  and  C_2
REMARK    2  A    between atoms: C_5  and  N_9
REMARK    3  A    between atoms: C_6  and  C_8
REMARK    4  A    between atoms: C_10  and  C_12
REMARK    5  A    between atoms: C_12  and  C_14
REMARK    6  A    between atoms: C_12  and  S_17
REMARK    7  A    between atoms: C_14  and  C_15
REMARK    8  A    between atoms: C_14  and  C_16
REMARK    9  A    between atoms: S_17  and  C_18
REMARK   10  A    between atoms: N_22  and  C_23
REMARK                            x       y       z     vdW  Elec       q    Type
REMARK                         _______ _______ _______ _____ _____    ______ ____
ROOT
ATOM      1  C   UNL     1      -0.109  -6.381  -1.181  0.00  0.00    +0.143 C 
ENDROOT
BRANCH   1   3
ATOM      2  N   UNL     1      -0.127  -4.290   0.141  0.00  0.00    -0.284 N 
ATOM      3  C   UNL     1      -0.107  -4.878  -1.072  0.00  0.00    +0.231 C 
ATOM      4  O   UNL     1      -0.088  -4.197  -2.076  0.00  0.00    -0.274 OA
ATOM      5  H   UNL     1      -0.073  -4.833   0.943  0.00  0.00    +0.155 HD
BRANCH   2  10
ATOM      6  C   UNL     1      -0.532   1.353   0.551  0.00  0.00    +0.044 C 
ATOM      7  C   UNL     1      -0.424  -0.146   0.442  0.00  0.00    -0.050 A 
ATOM      8  C   UNL     1       0.272  -0.713  -0.610  0.00  0.00    +0.005 A 
ATOM      9  C   UNL     1       0.372  -2.087  -0.713  0.00  0.00    +0.024 A 
ATOM     10  C   UNL     1      -0.227  -2.898   0.242  0.00  0.00    +0.036 A 
ATOM     11  C   UNL     1      -0.924  -2.326   1.298  0.00  0.00    -0.029 A 
ATOM     12  C   UNL     1      -1.016  -0.951   1.397  0.00  0.00    +0.008 A 
ATOM     13  C   UNL     1      -1.575  -3.203   2.336  0.00  0.00    +0.045 C 
ENDBRANCH   2  10
ENDBRANCH   1   3
BRANCH   1  14
ATOM     14  C   UNL     1       1.306  -6.911  -0.944  0.00  0.00    +0.005 C 
ATOM     15  C   UNL     1       1.776  -6.503   0.454  0.00  0.00    +0.009 C 
ATOM     16  C   UNL     1       1.305  -8.437  -1.056  0.00  0.00    +0.009 C 
ENDBRANCH   1  14
BRANCH   1  17
ATOM     17  S   UNL     1      -0.666  -6.866  -2.838  0.00  0.00    -0.071 S 
BRANCH  17  18
ATOM     18  C   UNL     1      -2.373  -6.431  -2.858  0.00  0.00    +0.215 A 
ATOM     19  N   UNL     1      -3.030  -5.794  -1.912  0.00  0.00    -0.101 NA
ATOM     20  N   UNL     1      -4.260  -5.636  -2.246  0.00  0.00    -0.022 NA
ATOM     21  N   UNL     1      -4.480  -6.149  -3.407  0.00  0.00    -0.038 NA
ATOM     22  N   UNL     1      -3.259  -6.683  -3.855  0.00  0.00    -0.187 N 
BRANCH  22  23
ATOM     23  C   UNL     1      -3.010  -7.338  -5.070  0.00  0.00    +0.070 A 
ATOM     24  C   UNL     1      -1.784  -7.184  -5.705  0.00  0.00    +0.028 A 
ATOM     25  C   UNL     1      -1.542  -7.830  -6.901  0.00  0.00    +0.002 A 
ATOM     26  C   UNL     1      -2.518  -8.629  -7.467  0.00  0.00    +0.000 A 
ATOM     27  C   UNL     1      -3.739  -8.784  -6.837  0.00  0.00    +0.002 A 
ATOM     28  C   UNL     1      -3.986  -8.145  -5.638  0.00  0.00    +0.028 A 
ENDBRANCH  22  23
ENDBRANCH  17  18
ENDBRANCH   1  17
TORSDOF 6
