REMARK  Name = ZINC11051420
REMARK  13 active torsions:
REMARK  status: ('A' for Active; 'I' for Inactive)
REMARK    1  A    between atoms: C_1  and  C_2
REMARK    2  A    between atoms: C_2  and  C_4
REMARK    3  A    between atoms: C_2  and  O_15
REMARK    4  A    between atoms: N_6  and  C_7
REMARK    5  A    between atoms: N_11  and  C_12
REMARK    6  A    between atoms: C_12  and  C_13
REMARK    7  A    between atoms: C_12  and  C_14
REMARK    8  A    between atoms: O_15  and  C_16
REMARK    9  A    between atoms: C_16  and  C_18
REMARK   10  A    between atoms: C_20  and  C_30
REMARK   11  A    between atoms: N_26  and  C_27
REMARK   12  A    between atoms: C_27  and  C_28
REMARK   13  A    between atoms: C_27  and  C_29
REMARK                            x       y       z     vdW  Elec       q    Type
REMARK                         _______ _______ _______ _____ _____    ______ ____
ROOT
ATOM      1  C   UNL     1      -0.088  -0.673  -2.267  0.00  0.00    +0.341 C 
ATOM      2  O   UNL     1      -1.284  -0.469  -2.224  0.00  0.00    -0.245 OA
ENDROOT
BRANCH   1   3
ATOM      3  C   UNL     1       0.535  -1.150  -3.519  0.00  0.00    +0.073 A 
ATOM      4  C   UNL     1       1.901  -1.395  -3.591  0.00  0.00    +0.044 A 
ATOM      5  C   UNL     1       2.454  -1.847  -4.796  0.00  0.00    +0.081 A 
ATOM      6  N   UNL     1       1.700  -2.044  -5.869  0.00  0.00    -0.227 NA
ATOM      7  C   UNL     1       0.394  -1.825  -5.856  0.00  0.00    +0.160 A 
ATOM      8  C   UNL     1      -0.241  -1.375  -4.681  0.00  0.00    +0.053 A 
ATOM      9  C   UNL     1      -1.614  -1.244  -4.975  0.00  0.00    +0.145 A 
ATOM     10  N   UNL     1      -1.808  -1.587  -6.217  0.00  0.00    -0.177 NA
ATOM     11  N   UNL     1      -0.589  -1.947  -6.804  0.00  0.00    -0.244 N 
BRANCH   5  12
ATOM     12  C   UNL     1       3.904  -2.108  -4.874  0.00  0.00    +0.038 A 
ATOM     13  C   UNL     1       4.647  -2.544  -5.940  0.00  0.00    +0.017 A 
ATOM     14  C   UNL     1       6.002  -2.718  -5.774  0.00  0.00    +0.008 A 
ATOM     15  C   UNL     1       6.561  -2.455  -4.564  0.00  0.00    +0.046 A 
ATOM     16  S   UNL     1       5.148  -1.933  -3.605  0.00  0.00    -0.095 S 
ENDBRANCH   5  12
BRANCH  11  17
ATOM     17  C   UNL     1      -0.399  -2.392  -8.187  0.00  0.00    +0.103 C 
ATOM     18  C   UNL     1      -1.233  -3.650  -8.438  0.00  0.00    +0.032 C 
ATOM     19  C   UNL     1      -0.844  -1.285  -9.144  0.00  0.00    +0.032 C 
ENDBRANCH  11  17
ENDBRANCH   1   3
BRANCH   1  20
ATOM     20  O   UNL     1       0.671  -0.465  -1.174  0.00  0.00    -0.449 OA
BRANCH  20  22
ATOM     21  C   UNL     1      -0.019   1.526   0.010  0.00  0.00    +0.062 C 
ATOM     22  C   UNL     1       0.002  -0.004   0.002  0.00  0.00    +0.259 C 
BRANCH  22  23
ATOM     23  C   UNL     1       0.731  -0.503   1.223  0.00  0.00    +0.259 C 
ATOM     24  O   UNL     1       1.774  -1.109   1.101  0.00  0.00    -0.271 OA
ATOM     25  N   UNL     1       0.223  -0.277   2.451  0.00  0.00    -0.268 N 
ATOM     26  H   UNL     1      -0.611   0.208   2.548  0.00  0.00    +0.156 HD
BRANCH  25  27
ATOM     27  C   UNL     1       0.898  -0.739   3.580  0.00  0.00    +0.123 A 
ATOM     28  C   UNL     1       2.074  -1.423   3.591  0.00  0.00    +0.065 A 
ATOM     29  C   UNL     1       2.400  -1.694   4.923  0.00  0.00    +0.136 A 
ATOM     30  N   UNL     1       1.461  -1.194   5.686  0.00  0.00    -0.178 NA
ATOM     31  N   UNL     1       0.505  -0.582   4.865  0.00  0.00    -0.248 N 
BRANCH  31  32
ATOM     32  C   UNL     1      -0.708   0.103   5.319  0.00  0.00    +0.103 C 
ATOM     33  C   UNL     1      -1.586  -0.877   6.099  0.00  0.00    +0.032 C 
ATOM     34  C   UNL     1      -0.324   1.275   6.224  0.00  0.00    +0.032 C 
ENDBRANCH  31  32
ENDBRANCH  25  27
ENDBRANCH  22  23
ENDBRANCH  20  22
ENDBRANCH   1  20
TORSDOF 8
