REMARK  Name = ZINC64600493
REMARK  8 active torsions:
REMARK  status: ('A' for Active; 'I' for Inactive)
REMARK    1  A    between atoms: C_1  and  O_2
REMARK    2  A    between atoms: O_2  and  C_3
REMARK    3  A    between atoms: C_9  and  C_12
REMARK    4  A    between atoms: C_12  and  C_13
REMARK    5  A    between atoms: C_13  and  N_14
REMARK    6  A    between atoms: C_15  and  C_17
REMARK    7  A    between atoms: N_19  and  C_20
REMARK    8  A    between atoms: C_25  and  C_26
REMARK                            x       y       z     vdW  Elec       q    Type
REMARK                         _______ _______ _______ _____ _____    ______ ____
ROOT
ATOM      1  N   UNL     1       1.556  -7.552   0.676  0.00  0.00    -0.307 N 
ATOM      2  C   UNL     1       2.429  -7.929  -0.280  0.00  0.00    +0.299 C 
ATOM      3  O   UNL     1       3.520  -7.402  -0.346  0.00  0.00    -0.265 OA
ATOM      4  H   UNL     1       0.684  -7.973   0.729  0.00  0.00    +0.149 HD
ENDROOT
BRANCH   2   5
ATOM      5  C   UNL     1       2.053  -8.993  -1.257  0.00  0.00    +0.303 C 
ATOM      6  O   UNL     1       0.961  -9.520  -1.191  0.00  0.00    -0.265 OA
ATOM      7  N   UNL     1       2.925  -9.370  -2.213  0.00  0.00    -0.277 N 
ATOM      8  H   UNL     1       3.775  -8.911  -2.302  0.00  0.00    +0.155 HD
BRANCH   7   9
ATOM      9  C   UNL     1       2.607 -10.416  -3.073  0.00  0.00    +0.046 A 
ATOM     10  C   UNL     1       1.287 -10.636  -3.446  0.00  0.00    +0.024 A 
ATOM     11  C   UNL     1       0.974 -11.674  -4.300  0.00  0.00    +0.002 A 
ATOM     12  C   UNL     1       1.970 -12.505  -4.789  0.00  0.00    +0.001 A 
ATOM     13  C   UNL     1       3.284 -12.302  -4.428  0.00  0.00    +0.015 A 
ATOM     14  C   UNL     1       3.618 -11.252  -3.571  0.00  0.00    +0.058 A 
BRANCH  14  15
ATOM     15  C   UNL     1       5.024 -11.026  -3.186  0.00  0.00    +0.248 C 
ATOM     16  O   UNL     1       5.328 -10.949  -2.011  0.00  0.00    -0.270 OA
ATOM     17  N   UNL     1       5.972 -10.905  -4.137  0.00  0.00    -0.297 N 
ATOM     18  C   UNL     1       5.633 -11.067  -5.557  0.00  0.00    +0.108 C 
ATOM     19  C   UNL     1       6.116  -9.832  -6.324  0.00  0.00    +0.019 C 
ATOM     20  C   UNL     1       7.608  -9.621  -6.054  0.00  0.00    +0.003 C 
ATOM     21  C   UNL     1       7.829  -9.379  -4.559  0.00  0.00    +0.019 C 
ATOM     22  C   UNL     1       7.363 -10.603  -3.773  0.00  0.00    +0.108 C 
ENDBRANCH  14  15
ENDBRANCH   7   9
ENDBRANCH   2   5
BRANCH   1  23
ATOM     23  C   UNL     1       1.925  -6.508   1.635  0.00  0.00    +0.109 C 
BRANCH  23  24
ATOM     24  C   UNL     1       0.765  -6.273   2.604  0.00  0.00    +0.052 C 
BRANCH  24  31
ATOM     25  C   UNL     1       0.021  -1.742   2.687  0.00  0.00    +0.121 A 
ATOM     26  C   UNL     1       0.552  -1.084   3.811  0.00  0.00    +0.047 A 
ATOM     27  C   UNL     1       1.225  -1.735   4.783  0.00  0.00    +0.029 A 
ATOM     28  C   UNL     1       1.422  -3.185   4.686  0.00  0.00    +0.043 A 
ATOM     29  N   UNL     1       2.025  -4.041   5.473  0.00  0.00    -0.380 N 
ATOM     30  C   UNL     1       1.917  -5.378   4.878  0.00  0.00    +0.144 C 
ATOM     31  C   UNL     1       1.145  -5.199   3.591  0.00  0.00    -0.040 C 
ATOM     32  C   UNL     1       0.863  -3.879   3.503  0.00  0.00    +0.002 A 
ATOM     33  C   UNL     1       0.145  -3.078   2.506  0.00  0.00    +0.055 A 
ATOM     34  H   UNL     1       2.469  -3.827   6.309  0.00  0.00    +0.160 HD
BRANCH  25  36
ATOM     35  C   UNL     1      -0.750   0.395   1.983  0.00  0.00    +0.277 C 
ATOM     36  O   UNL     1      -0.644  -1.012   1.753  0.00  0.00    -0.495 OA
ENDBRANCH  25  36
ENDBRANCH  24  31
ENDBRANCH  23  24
ENDBRANCH   1  23
TORSDOF 7
