REMARK  Name = ZINC14534672
REMARK  9 active torsions:
REMARK  status: ('A' for Active; 'I' for Inactive)
REMARK    1  A    between atoms: C_3  and  N_32
REMARK    2  A    between atoms: C_6  and  C_7
REMARK    3  A    between atoms: C_11  and  O_27
REMARK    4  A    between atoms: N_14  and  C_18
REMARK    5  A    between atoms: C_18  and  C_19
REMARK    6  A    between atoms: C_19  and  C_20
REMARK    7  A    between atoms: C_20  and  N_21
REMARK    8  A    between atoms: O_27  and  C_28
REMARK    9  A    between atoms: C_28  and  C_29
REMARK                            x       y       z     vdW  Elec       q    Type
REMARK                         _______ _______ _______ _____ _____    ______ ____
ROOT
ATOM      1  C   UNL     1       2.922   1.574  -4.038  0.00  0.00    +0.247 C 
ATOM      2  O   UNL     1       3.011   0.968  -2.988  0.00  0.00    -0.270 OA
ATOM      3  N   UNL     1       2.206   2.715  -4.100  0.00  0.00    -0.286 N 
ATOM      4  C   UNL     1       1.691   3.316  -2.872  0.00  0.00    +0.141 C 
ATOM      5  C   UNL     1       0.167   3.349  -2.863  0.00  0.00    +0.153 C 
ATOM      6  C   UNL     1      -0.349   4.224  -4.008  0.00  0.00    +0.141 C 
ATOM      7  N   UNL     1      -0.510   3.396  -5.209  0.00  0.00    -0.298 N 
ATOM      8  C   UNL     1       0.567   2.941  -5.869  0.00  0.00    +0.233 C 
ATOM      9  O   UNL     1       0.435   2.215  -6.831  0.00  0.00    -0.274 OA
ATOM     10  C   UNL     1       1.948   3.345  -5.399  0.00  0.00    +0.204 C 
ENDROOT
BRANCH   1  16
ATOM     11  C   UNL     1       2.879   0.894  -6.432  0.00  0.00    +0.015 A 
ATOM     12  C   UNL     1       3.514   0.421  -7.558  0.00  0.00    +0.024 A 
ATOM     13  C   UNL     1       4.867   0.098  -7.512  0.00  0.00    +0.030 A 
ATOM     14  C   UNL     1       5.584   0.259  -6.330  0.00  0.00    +0.024 A 
ATOM     15  C   UNL     1       4.957   0.737  -5.202  0.00  0.00    +0.015 A 
ATOM     16  C   UNL     1       3.598   1.062  -5.245  0.00  0.00    +0.037 A 
BRANCH  13  17
ATOM     17  N   UNL     1       5.504  -0.385  -8.650  0.00  0.00    -0.326 N 
ATOM     18  C   UNL     1       6.662   0.450  -9.000  0.00  0.00    +0.133 C 
ATOM     19  C   UNL     1       7.367  -0.151 -10.219  0.00  0.00    +0.178 C 
ATOM     20  O   UNL     1       6.434  -0.260 -11.297  0.00  0.00    -0.377 OA
ATOM     21  C   UNL     1       5.293  -1.067 -10.991  0.00  0.00    +0.178 C 
ATOM     22  C   UNL     1       4.567  -0.476  -9.780  0.00  0.00    +0.133 C 
ENDBRANCH  13  17
ENDBRANCH   1  16
BRANCH   7  23
ATOM     23  C   UNL     1      -1.853   3.065  -5.691  0.00  0.00    +0.109 C 
BRANCH  23  24
ATOM     24  C   UNL     1      -2.321   1.762  -5.040  0.00  0.00    +0.038 C 
BRANCH  24  25
ATOM     25  C   UNL     1      -3.724   1.415  -5.543  0.00  0.00    +0.109 C 
BRANCH  25  26
ATOM     26  N   UNL     1      -4.172   0.167  -4.920  0.00  0.00    -0.301 N 
ATOM     27  C   UNL     1      -3.946  -1.168  -5.486  0.00  0.00    +0.108 C 
ATOM     28  C   UNL     1      -4.180  -2.153  -4.317  0.00  0.00    +0.028 C 
ATOM     29  C   UNL     1      -5.138  -1.344  -3.412  0.00  0.00    +0.097 C 
ATOM     30  C   UNL     1      -4.847   0.099  -3.760  0.00  0.00    +0.216 C 
ATOM     31  O   UNL     1      -5.176   1.055  -3.090  0.00  0.00    -0.276 OA
ENDBRANCH  25  26
ENDBRANCH  24  25
ENDBRANCH  23  24
ENDBRANCH   7  23
BRANCH   5  32
ATOM     32  O   UNL     1      -0.287   3.883  -1.617  0.00  0.00    -0.373 OA
BRANCH  32  33
ATOM     33  C   UNL     1      -0.495   2.897  -0.604  0.00  0.00    +0.163 C 
BRANCH  33  34
ATOM     34  C   UNL     1      -0.978   3.578   0.679  0.00  0.00    +0.015 C 
ATOM     35  C   UNL     1      -0.074   3.488   1.910  0.00  0.00    +0.006 C 
ATOM     36  C   UNL     1      -1.371   2.678   1.852  0.00  0.00    +0.006 C 
ENDBRANCH  33  34
ENDBRANCH  32  33
ENDBRANCH   5  32
TORSDOF 9
