REMARK  Name = ZINC39940113
REMARK  9 active torsions:
REMARK  status: ('A' for Active; 'I' for Inactive)
REMARK    1  A    between atoms: C_1  and  C_2
REMARK    2  A    between atoms: C_4  and  C_12
REMARK    3  A    between atoms: C_12  and  C_14
REMARK    4  A    between atoms: C_14  and  C_16
REMARK    5  A    between atoms: C_14  and  S_17
REMARK    6  A    between atoms: S_17  and  C_18
REMARK    7  A    between atoms: C_22  and  C_27
REMARK    8  A    between atoms: N_23  and  C_24
REMARK    9  A    between atoms: C_24  and  C_25
REMARK                            x       y       z     vdW  Elec       q    Type
REMARK                         _______ _______ _______ _____ _____    ______ ____
ROOT
ATOM      1  C   UNL     1       1.542  -2.548  -5.434  0.00  0.00    +0.237 C 
ATOM      2  N   UNL     1       1.692  -3.836  -4.735  0.00  0.00    -0.238 N 
ATOM      3  N   UNL     1       3.025  -3.893  -4.308  0.00  0.00    -0.170 NA
ATOM      4  C   UNL     1       3.675  -2.841  -4.648  0.00  0.00    +0.162 C 
ATOM      5  N   UNL     1       2.880  -1.939  -5.345  0.00  0.00    -0.282 N 
ATOM      6  H   UNL     1       1.007  -4.509  -4.598  0.00  0.00    +0.171 HD
ENDROOT
BRANCH   4   7
ATOM      7  C   UNL     1       5.130  -2.610  -4.330  0.00  0.00    +0.275 C 
ATOM      8  C   UNL     1       5.777  -3.928  -3.885  0.00  0.00    +0.281 C 
ATOM      9  O   UNL     1       7.152  -3.671  -3.578  0.00  0.00    -0.484 OA
ATOM     10  C   UNL     1       7.412  -2.577  -2.811  0.00  0.00    +0.162 A 
ATOM     11  C   UNL     1       8.643  -2.466  -2.179  0.00  0.00    +0.049 A 
ATOM     12  C   UNL     1       8.923  -1.359  -1.400  0.00  0.00    +0.004 A 
ATOM     13  C   UNL     1       7.979  -0.361  -1.247  0.00  0.00    +0.004 A 
ATOM     14  C   UNL     1       6.751  -0.467  -1.872  0.00  0.00    +0.049 A 
ATOM     15  C   UNL     1       6.462  -1.575  -2.655  0.00  0.00    +0.163 A 
ATOM     16  O   UNL     1       5.246  -1.668  -3.258  0.00  0.00    -0.474 OA
ENDBRANCH   4   7
BRANCH   1  17
ATOM     17  S   UNL     1       0.312  -1.509  -4.597  0.00  0.00    -0.107 S 
BRANCH  17  18
ATOM     18  C   UNL     1      -1.278  -2.139  -5.200  0.00  0.00    +0.117 C 
ATOM     19  C   UNL     1      -1.514  -3.545  -4.643  0.00  0.00    +0.027 C 
BRANCH  18  20
ATOM     20  C   UNL     1      -2.386  -1.226  -4.744  0.00  0.00    +0.174 C 
ATOM     21  O   UNL     1      -2.244  -0.550  -3.744  0.00  0.00    -0.291 OA
BRANCH  20  24
ATOM     22  C   UNL     1      -5.336  -0.442  -3.845  0.00  0.00    +0.035 C 
ATOM     23  C   UNL     1      -4.752  -0.215  -5.241  0.00  0.00    +0.111 C 
ATOM     24  C   UNL     1      -3.589  -1.155  -5.477  0.00  0.00    +0.027 C 
ATOM     25  C   UNL     1      -3.954  -1.929  -6.564  0.00  0.00    +0.006 A 
ATOM     26  C   UNL     1      -3.304  -2.974  -7.262  0.00  0.00    +0.010 A 
ATOM     27  C   UNL     1      -3.907  -3.568  -8.316  0.00  0.00    +0.001 A 
ATOM     28  C   UNL     1      -5.182  -3.191  -8.765  0.00  0.00    +0.002 A 
ATOM     29  C   UNL     1      -5.888  -2.205  -8.169  0.00  0.00    +0.026 A 
ATOM     30  C   UNL     1      -5.302  -1.505  -7.013  0.00  0.00    +0.043 A 
ATOM     31  N   UNL     1      -5.750  -0.536  -6.265  0.00  0.00    -0.377 N 
ATOM     32  H   UNL     1      -6.609  -0.097  -6.368  0.00  0.00    +0.160 HD
ENDBRANCH  20  24
ENDBRANCH  18  20
ENDBRANCH  17  18
ENDBRANCH   1  17
BRANCH   5  33
ATOM     33  C   UNL     1       3.289  -0.640  -5.885  0.00  0.00    +0.135 C 
BRANCH  33  34
ATOM     34  C   UNL     1       3.179   0.409  -4.808  0.00  0.00    -0.016 C 
ATOM     35  C   UNL     1       4.213   1.156  -4.513  0.00  0.00    +0.005 C 
ENDBRANCH  33  34
ENDBRANCH   5  33
TORSDOF 7
