REMARK  Name = ZINC13069697
REMARK  9 active torsions:
REMARK  status: ('A' for Active; 'I' for Inactive)
REMARK    1  A    between atoms: C_1  and  C_2
REMARK    2  A    between atoms: C_2  and  C_3
REMARK    3  A    between atoms: C_3  and  C_4
REMARK    4  A    between atoms: C_7  and  S_10
REMARK    5  A    between atoms: S_10  and  N_13
REMARK    6  A    between atoms: N_16  and  C_19
REMARK    7  A    between atoms: C_19  and  C_20
REMARK    8  A    between atoms: N_22  and  C_23
REMARK    9  A    between atoms: C_24  and  C_31
REMARK                            x       y       z     vdW  Elec       q    Type
REMARK                         _______ _______ _______ _____ _____    ______ ____
ROOT
ATOM      1  N   UNL     1       0.024  -7.039   0.081  0.00  0.00    -0.174 NA
ATOM      2  C   UNL     1       0.765  -7.254   1.333  0.00  0.00    +0.125 C 
ATOM      3  C   UNL     1       0.424  -8.649   1.867  0.00  0.00    +0.102 C 
ATOM      4  N   UNL     1      -1.034  -8.784   1.979  0.00  0.00    -0.291 NA
ATOM      5  C   UNL     1      -1.681  -8.682   0.663  0.00  0.00    +0.102 C 
ATOM      6  C   UNL     1      -1.427  -7.283   0.081  0.00  0.00    +0.125 C 
ENDROOT
BRANCH   1   7
ATOM      7  S   UNL     1       0.800  -6.530  -1.291  0.00  0.00    +0.061 S 
ATOM      8  O   UNL     1      -0.003  -6.941  -2.388  0.00  0.00    -0.153 OA
ATOM      9  O   UNL     1       2.161  -6.919  -1.155  0.00  0.00    -0.153 OA
BRANCH   7  13
ATOM     10  C   UNL     1       0.739  -2.004  -1.265  0.00  0.00    -0.047 A 
ATOM     11  C   UNL     1       1.788  -2.685  -0.675  0.00  0.00    +0.005 A 
ATOM     12  C   UNL     1       1.806  -4.067  -0.683  0.00  0.00    +0.029 A 
ATOM     13  C   UNL     1       0.776  -4.769  -1.280  0.00  0.00    +0.105 A 
ATOM     14  C   UNL     1      -0.273  -4.088  -1.869  0.00  0.00    +0.029 A 
ATOM     15  C   UNL     1      -0.294  -2.706  -1.858  0.00  0.00    +0.005 A 
BRANCH  10  16
ATOM     16  C   UNL     1       0.718  -0.497  -1.257  0.00  0.00    +0.035 C 
BRANCH  16  18
ATOM     17  C   UNL     1      -0.019   1.526   0.010  0.00  0.00    +0.004 C 
ATOM     18  C   UNL     1       0.002  -0.004   0.002  0.00  0.00    +0.001 C 
ENDBRANCH  16  18
ENDBRANCH  10  16
ENDBRANCH   7  13
ENDBRANCH   1   7
BRANCH   4  19
ATOM     19  C   UNL     1      -1.397 -10.040   2.648  0.00  0.00    +0.180 C 
BRANCH  19  20
ATOM     20  C   UNL     1      -2.871 -10.034   2.963  0.00  0.00    +0.232 C 
ATOM     21  O   UNL     1      -3.551  -9.077   2.661  0.00  0.00    -0.274 OA
ATOM     22  N   UNL     1      -3.432 -11.092   3.582  0.00  0.00    -0.278 N 
ATOM     23  H   UNL     1      -2.887 -11.857   3.824  0.00  0.00    +0.155 HD
BRANCH  22  24
ATOM     24  C   UNL     1      -4.788 -11.086   3.873  0.00  0.00    +0.084 A 
ATOM     25  C   UNL     1      -5.527 -12.070   4.502  0.00  0.00    +0.068 A 
ATOM     26  C   UNL     1      -6.954 -11.818   4.692  0.00  0.00    -0.023 A 
ATOM     27  C   UNL     1      -7.370 -10.631   4.215  0.00  0.00    -0.004 A 
ATOM     28  S   UNL     1      -5.907  -9.879   3.549  0.00  0.00    -0.077 S 
ATOM     29  C   UNL     1      -8.844 -10.425   4.432  0.00  0.00    +0.043 C 
ATOM     30  C   UNL     1      -9.396 -11.836   4.734  0.00  0.00    +0.010 C 
ATOM     31  C   UNL     1      -8.150 -12.546   5.302  0.00  0.00    +0.037 C 
BRANCH  25  32
ATOM     32  C   UNL     1      -4.904 -13.316   4.959  0.00  0.00    +0.244 C 
ATOM     33  O   UNL     1      -4.443 -13.390   6.083  0.00  0.00    -0.270 OA
ATOM     34  N   UNL     1      -4.843 -14.381   4.135  0.00  0.00    -0.325 N 
ATOM     35  H   UNL     1      -5.210 -14.323   3.239  0.00  0.00    +0.145 HD
ATOM     36  H   UNL     1      -4.431 -15.206   4.438  0.00  0.00    +0.145 HD
ENDBRANCH  25  32
ENDBRANCH  22  24
ENDBRANCH  19  20
ENDBRANCH   4  19
TORSDOF 8
