REMARK  Name = ZINC36531490
REMARK  12 active torsions:
REMARK  status: ('A' for Active; 'I' for Inactive)
REMARK    1  A    between atoms: C_1  and  C_2
REMARK    2  A    between atoms: C_5  and  C_8
REMARK    3  A    between atoms: C_8  and  C_10
REMARK    4  A    between atoms: C_8  and  N_24
REMARK    5  A    between atoms: N_12  and  C_13
REMARK    6  A    between atoms: C_13  and  S_14
REMARK    7  A    between atoms: S_14  and  C_17
REMARK    8  A    between atoms: C_20  and  C_23
REMARK    9  A    between atoms: N_24  and  C_25
REMARK   10  A    between atoms: C_26  and  C_28
REMARK   11  A    between atoms: C_32  and  O_35
REMARK   12  A    between atoms: C_33  and  O_34
REMARK                            x       y       z     vdW  Elec       q    Type
REMARK                         _______ _______ _______ _____ _____    ______ ____
ROOT
ATOM      1  C   UNL     1      -0.232  -3.962  -0.022  0.00  0.00    +0.192 C 
ENDROOT
BRANCH   1   6
ATOM      2  C   UNL     1      -2.497   1.223  -1.197  0.00  0.00    +0.044 C 
ATOM      3  C   UNL     1      -1.906  -0.129  -0.891  0.00  0.00    -0.050 A 
ATOM      4  C   UNL     1      -1.805  -1.081  -1.888  0.00  0.00    +0.004 A 
ATOM      5  C   UNL     1      -1.263  -2.321  -1.607  0.00  0.00    +0.006 A 
ATOM      6  C   UNL     1      -0.822  -2.609  -0.329  0.00  0.00    -0.018 A 
ATOM      7  C   UNL     1      -0.922  -1.657   0.668  0.00  0.00    +0.006 A 
ATOM      8  C   UNL     1      -1.460  -0.415   0.386  0.00  0.00    +0.004 A 
ENDBRANCH   1   6
BRANCH   1   9
ATOM      9  C   UNL     1       1.216  -3.803   0.361  0.00  0.00    +0.239 C 
ATOM     10  O   UNL     1       1.598  -4.166   1.453  0.00  0.00    -0.273 OA
ATOM     11  N   UNL     1       2.088  -3.258  -0.511  0.00  0.00    -0.294 N 
ATOM     12  H   UNL     1       1.783  -2.968  -1.385  0.00  0.00    +0.150 HD
BRANCH  11  13
ATOM     13  C   UNL     1       3.496  -3.103  -0.138  0.00  0.00    +0.278 C 
BRANCH  13  14
ATOM     14  S   UNL     1       4.443  -4.526  -0.749  0.00  0.00    +0.013 S 
ATOM     15  O   UNL     1       5.822  -4.360  -0.451  0.00  0.00    -0.168 OA
ATOM     16  O   UNL     1       3.772  -5.736  -0.425  0.00  0.00    -0.168 OA
BRANCH  14  17
ATOM     17  C   UNL     1       4.346  -4.414  -2.505  0.00  0.00    +0.090 A 
ATOM     18  C   UNL     1       3.311  -5.032  -3.181  0.00  0.00    +0.027 A 
ATOM     19  C   UNL     1       3.235  -4.944  -4.558  0.00  0.00    +0.005 A 
ATOM     20  C   UNL     1       4.194  -4.237  -5.260  0.00  0.00    -0.050 A 
ATOM     21  C   UNL     1       5.229  -3.619  -4.584  0.00  0.00    +0.005 A 
ATOM     22  C   UNL     1       5.302  -3.703  -3.206  0.00  0.00    +0.027 A 
ATOM     23  C   UNL     1       4.112  -4.143  -6.761  0.00  0.00    +0.044 C 
ENDBRANCH  14  17
ENDBRANCH  13  14
ENDBRANCH  11  13
ENDBRANCH   1   9
BRANCH   1  24
ATOM     24  N   UNL     1      -0.967  -4.575   1.087  0.00  0.00    -0.285 N 
ATOM     25  C   UNL     1      -0.937  -3.957   2.415  0.00  0.00    +0.133 C 
ATOM     26  C   UNL     1      -1.670  -5.707   0.887  0.00  0.00    +0.251 C 
ATOM     27  O   UNL     1      -1.761  -6.176  -0.231  0.00  0.00    -0.270 OA
BRANCH  26  28
ATOM     28  C   UNL     1      -2.328  -6.378   2.024  0.00  0.00    +0.082 A 
ATOM     29  C   UNL     1      -3.124  -5.644   2.908  0.00  0.00    +0.017 A 
ATOM     30  C   UNL     1      -3.738  -6.274   3.968  0.00  0.00    +0.005 A 
ATOM     31  C   UNL     1      -3.570  -7.635   4.166  0.00  0.00    +0.049 A 
ATOM     32  C   UNL     1      -2.784  -8.375   3.300  0.00  0.00    +0.159 A 
ATOM     33  C   UNL     1      -2.163  -7.754   2.220  0.00  0.00    +0.171 A 
BRANCH  33  34
ATOM     34  O   UNL     1      -1.397  -8.478   1.365  0.00  0.00    -0.503 OA
ATOM     35  H   UNL     1      -0.465  -8.531   1.620  0.00  0.00    +0.292 HD
ENDBRANCH  33  34
BRANCH  32  36
ATOM     36  O   UNL     1      -2.625  -9.711   3.500  0.00  0.00    -0.503 OA
ATOM     37  H   UNL     1      -3.285 -10.258   3.054  0.00  0.00    +0.292 HD
ENDBRANCH  32  36
ENDBRANCH  26  28
ENDBRANCH   1  24
TORSDOF 9
