REMARK  Name = ZINC13040031
REMARK  10 active torsions:
REMARK  status: ('A' for Active; 'I' for Inactive)
REMARK    1  A    between atoms: C_1  and  N_2
REMARK    2  A    between atoms: N_2  and  S_3
REMARK    3  A    between atoms: S_3  and  C_6
REMARK    4  A    between atoms: C_9  and  N_15
REMARK    5  A    between atoms: C_10  and  N_12
REMARK    6  A    between atoms: N_15  and  C_16
REMARK    7  A    between atoms: C_16  and  C_17
REMARK    8  A    between atoms: C_17  and  C_19
REMARK    9  A    between atoms: C_17  and  N_24
REMARK   10  A    between atoms: N_27  and  C_30
REMARK                            x       y       z     vdW  Elec       q    Type
REMARK                         _______ _______ _______ _____ _____    ______ ____
ROOT
ATOM      1  N   UNL     1      -1.340   4.940  -4.804  0.00  0.00    -0.340 N 
ATOM      2  H   UNL     1      -1.940   4.530  -5.630  0.00  0.00    +0.146 HD
ENDROOT
BRANCH   1   6
ATOM      3  C   UNL     1      -0.973   2.813  -1.243  0.00  0.00    +0.108 A 
ATOM      4  C   UNL     1      -0.422   4.077  -1.351  0.00  0.00    +0.030 A 
ATOM      5  C   UNL     1      -0.538   4.783  -2.533  0.00  0.00    +0.027 A 
ATOM      6  C   UNL     1      -1.217   4.226  -3.609  0.00  0.00    +0.058 A 
ATOM      7  C   UNL     1      -1.773   2.959  -3.495  0.00  0.00    +0.149 A 
ATOM      8  C   UNL     1      -1.649   2.256  -2.312  0.00  0.00    +0.063 A 
BRANCH   3   9
ATOM      9  S   UNL     1      -0.817   1.913   0.264  0.00  0.00    +0.058 S 
ATOM     10  O   UNL     1      -1.891   0.983   0.294  0.00  0.00    -0.153 OA
ATOM     11  O   UNL     1      -0.611   2.873   1.291  0.00  0.00    -0.153 OA
BRANCH   9  13
ATOM     12  C   UNL     1       1.873   1.700   0.080  0.00  0.00    +0.127 C 
ATOM     13  N   UNL     1       0.576   1.023   0.161  0.00  0.00    -0.193 NA
ATOM     14  H   UNL     1       0.510  -0.061  -0.010  0.00  0.00    +0.148 HD
ENDBRANCH   9  13
ENDBRANCH   3   9
BRANCH   7  15
ATOM     15  N   UNL     1      -2.498   2.362  -4.639  0.00  0.00    +0.058 N 
ATOM     16  O   UNL     1      -3.199   3.062  -5.348  0.00  0.00    -0.126 OA
ATOM     17  O   UNL     1      -2.394   1.171  -4.872  0.00  0.00    -0.126 OA
ENDBRANCH   7  15
ENDBRANCH   1   6
BRANCH   1  18
ATOM     18  C   UNL     1      -0.670   6.234  -4.956  0.00  0.00    +0.125 C 
BRANCH  18  19
ATOM     19  C   UNL     1      -0.965   6.799  -6.347  0.00  0.00    +0.110 C 
BRANCH  19  20
ATOM     20  N   UNL     1      -0.578   5.816  -7.367  0.00  0.00    -0.297 NA
ATOM     21  C   UNL     1       0.798   5.347  -7.153  0.00  0.00    +0.066 C 
ATOM     22  C   UNL     1       1.134   4.268  -8.185  0.00  0.00    -0.064 C 
ATOM     23  N   UNL     1       0.974   4.821  -9.537  0.00  0.00    +0.379 N 
ATOM     24  C   UNL     1      -0.402   5.290  -9.752  0.00  0.00    -0.064 C 
ATOM     25  C   UNL     1      -0.738   6.369  -8.720  0.00  0.00    +0.066 C 
ATOM     26  C   UNL     1       1.360   3.838 -10.558  0.00  0.00    -0.096 C 
ATOM     27  H   UNL     1       1.647   5.687  -9.632  0.00  0.00    -0.082 HD
ENDBRANCH  19  20
BRANCH  19  28
ATOM     28  C   UNL     1      -0.178   8.069  -6.550  0.00  0.00    +0.008 A 
ATOM     29  C   UNL     1      -0.622   9.349  -6.599  0.00  0.00    +0.013 A 
ATOM     30  C   UNL     1       0.292  10.367  -6.793  0.00  0.00    +0.008 A 
ATOM     31  C   UNL     1       1.603  10.056  -6.940  0.00  0.00    +0.045 A 
ATOM     32  S   UNL     1       1.578   8.276  -6.796  0.00  0.00    -0.100 S 
ENDBRANCH  19  28
ENDBRANCH  18  19
ENDBRANCH   1  18
TORSDOF 8
