REMARK  Name = ZINC22464491
REMARK  8 active torsions:
REMARK  status: ('A' for Active; 'I' for Inactive)
REMARK    1  A    between atoms: C_1  and  C_2
REMARK    2  A    between atoms: C_2  and  C_27
REMARK    3  A    between atoms: N_5  and  C_9
REMARK    4  A    between atoms: C_9  and  C_10
REMARK    5  A    between atoms: N_12  and  C_13
REMARK    6  A    between atoms: C_13  and  C_14
REMARK    7  A    between atoms: C_14  and  C_16
REMARK    8  A    between atoms: C_14  and  N_22
REMARK                            x       y       z     vdW  Elec       q    Type
REMARK                         _______ _______ _______ _____ _____    ______ ____
ROOT
ATOM      1  C   UNL     1       1.977  -2.207  -1.410  0.00  0.00    +0.231 C 
ATOM      2  O   UNL     1       1.834  -1.405  -2.308  0.00  0.00    -0.274 OA
ATOM      3  N   UNL     1       2.363  -3.468  -1.688  0.00  0.00    -0.315 N 
ATOM      4  H   UNL     1       2.493  -4.196  -0.874  0.00  0.00    +0.149 HD
ENDROOT
BRANCH   1   5
ATOM      5  C   UNL     1       1.724  -1.794   0.017  0.00  0.00    +0.213 C 
BRANCH   5  10
ATOM      6  C   UNL     1      -0.451   2.180  -1.227  0.00  0.00    +0.047 C 
ATOM      7  C   UNL     1       0.106   1.549   0.051  0.00  0.00    +0.135 C 
ATOM      8  C   UNL     1       0.042   0.037  -0.030  0.00  0.00    +0.251 C 
ATOM      9  O   UNL     1      -0.951  -0.650  -0.144  0.00  0.00    -0.272 OA
ATOM     10  N   UNL     1       1.319  -0.386   0.053  0.00  0.00    -0.215 N 
ATOM     11  C   UNL     1       2.172   0.638   0.173  0.00  0.00    +0.310 C 
ATOM     12  O   UNL     1       3.376   0.507   0.265  0.00  0.00    -0.252 OA
ATOM     13  N   UNL     1       1.546   1.829   0.182  0.00  0.00    -0.281 N 
ATOM     14  H   UNL     1       1.899   2.868   0.262  0.00  0.00    +0.152 HD
BRANCH   7  15
ATOM     15  C   UNL     1      -0.643   2.048   1.260  0.00  0.00    -0.015 A 
ATOM     16  C   UNL     1      -1.731   1.341   1.738  0.00  0.00    +0.009 A 
ATOM     17  C   UNL     1      -2.416   1.794   2.850  0.00  0.00    +0.039 A 
ATOM     18  C   UNL     1      -2.019   2.963   3.478  0.00  0.00    +0.123 A 
ATOM     19  C   UNL     1      -0.932   3.673   2.994  0.00  0.00    +0.039 A 
ATOM     20  C   UNL     1      -0.246   3.214   1.886  0.00  0.00    +0.009 A 
ATOM     21  F   UNL     1      -2.690   3.410   4.561  0.00  0.00    -0.205 F 
ENDBRANCH   7  15
ENDBRANCH   5  10
ENDBRANCH   1   5
BRANCH   3  22
ATOM     22  C   UNL     1       2.610  -3.869  -3.075  0.00  0.00    +0.093 C 
BRANCH  22  23
ATOM     23  C   UNL     1       3.144  -5.303  -3.104  0.00  0.00    -0.020 C 
BRANCH  23  24
ATOM     24  C   UNL     1       2.079  -6.246  -2.608  0.00  0.00    -0.059 A 
ATOM     25  C   UNL     1       1.058  -6.641  -3.452  0.00  0.00    +0.002 A 
ATOM     26  C   UNL     1       0.083  -7.510  -2.998  0.00  0.00    +0.000 A 
ATOM     27  C   UNL     1       0.124  -7.976  -1.697  0.00  0.00    +0.000 A 
ATOM     28  C   UNL     1       1.143  -7.578  -0.852  0.00  0.00    +0.000 A 
ATOM     29  C   UNL     1       2.120  -6.712  -1.307  0.00  0.00    +0.002 A 
ENDBRANCH  23  24
BRANCH  23  30
ATOM     30  N   UNL     1       3.513  -5.661  -4.480  0.00  0.00    +0.385 N 
ATOM     31  C   UNL     1       4.543  -4.733  -5.014  0.00  0.00    -0.078 C 
ATOM     32  C   UNL     1       5.169  -5.533  -6.184  0.00  0.00    -0.020 C 
ATOM     33  C   UNL     1       5.188  -6.980  -5.641  0.00  0.00    -0.020 C 
ATOM     34  C   UNL     1       4.119  -7.009  -4.534  0.00  0.00    -0.078 C 
ATOM     35  H   UNL     1       2.580  -5.614  -5.062  0.00  0.00    -0.081 HD
ENDBRANCH  23  30
ENDBRANCH  22  23
ENDBRANCH   3  22
TORSDOF 7
