REMARK  Name = ZINC14665658
REMARK  14 active torsions:
REMARK  status: ('A' for Active; 'I' for Inactive)
REMARK    1  A    between atoms: C_1  and  C_2
REMARK    2  A    between atoms: C_4  and  C_30
REMARK    3  A    between atoms: C_6  and  O_8
REMARK    4  A    between atoms: O_8  and  C_9
REMARK    5  A    between atoms: C_9  and  C_10
REMARK    6  A    between atoms: N_12  and  N_13
REMARK    7  A    between atoms: C_14  and  C_16
REMARK    8  A    between atoms: C_16  and  C_18
REMARK    9  A    between atoms: C_16  and  O_19
REMARK   10  A    between atoms: O_19  and  C_20
REMARK   11  A    between atoms: C_23  and  C_26
REMARK   12  A    between atoms: C_26  and  C_27
REMARK   13  A    between atoms: C_26  and  C_28
REMARK   14  A    between atoms: C_26  and  C_29
REMARK                            x       y       z     vdW  Elec       q    Type
REMARK                         _______ _______ _______ _____ _____    ______ ____
ROOT
ATOM      1  N   UNL     1       6.043   6.146  -0.345  0.00  0.00    -0.231 N 
ATOM      2  C   UNL     1       6.304   7.457  -0.172  0.00  0.00    +0.270 C 
ATOM      3  O   UNL     1       5.396   8.233   0.037  0.00  0.00    -0.270 OA
ATOM      4  H   UNL     1       6.769   5.525  -0.512  0.00  0.00    +0.173 HD
ENDROOT
BRANCH   1   7
ATOM      5  C   UNL     1       4.462   4.369  -0.456  0.00  0.00    +0.267 C 
ATOM      6  O   UNL     1       5.370   3.593  -0.665  0.00  0.00    -0.271 OA
ATOM      7  N   UNL     1       4.723   5.680  -0.283  0.00  0.00    -0.231 N 
ATOM      8  H   UNL     1       3.997   6.301  -0.116  0.00  0.00    +0.173 HD
BRANCH   5   9
ATOM      9  C   UNL     1       3.043   3.868  -0.390  0.00  0.00    +0.326 C 
BRANCH   9  10
ATOM     10  O   UNL     1       3.026   2.455  -0.603  0.00  0.00    -0.483 OA
BRANCH  10  16
ATOM     11  C   UNL     1      -1.817   2.765  -0.076  0.00  0.00    +0.044 C 
ATOM     12  C   UNL     1      -0.567   1.958  -0.318  0.00  0.00    -0.047 A 
ATOM     13  C   UNL     1      -0.654   0.592  -0.517  0.00  0.00    +0.007 A 
ATOM     14  C   UNL     1       0.490  -0.150  -0.744  0.00  0.00    -0.047 A 
ATOM     15  C   UNL     1       1.724   0.471  -0.773  0.00  0.00    +0.049 A 
ATOM     16  C   UNL     1       1.814   1.841  -0.574  0.00  0.00    +0.122 A 
ATOM     17  C   UNL     1       0.664   2.584  -0.346  0.00  0.00    +0.049 A 
ATOM     18  C   UNL     1       0.392  -1.638  -0.960  0.00  0.00    +0.044 C 
ENDBRANCH  10  16
ENDBRANCH   9  10
ENDBRANCH   5   9
ENDBRANCH   1   7
BRANCH   2  19
ATOM     19  C   UNL     1       7.723   7.958  -0.238  0.00  0.00    +0.257 C 
ATOM     20  C   UNL     1       8.559   7.269   0.843  0.00  0.00    +0.062 C 
BRANCH  19  21
ATOM     21  O   UNL     1       7.740   9.371  -0.025  0.00  0.00    -0.480 OA
BRANCH  21  22
ATOM     22  C   UNL     1       8.790  10.060  -0.544  0.00  0.00    +0.122 A 
ATOM     23  C   UNL     1       8.812  11.446  -0.480  0.00  0.00    +0.046 A 
ATOM     24  C   UNL     1       9.883  12.144  -1.002  0.00  0.00    +0.008 A 
ATOM     25  C   UNL     1      10.928  11.464  -1.600  0.00  0.00    -0.042 A 
ATOM     26  C   UNL     1      10.906  10.083  -1.670  0.00  0.00    +0.008 A 
ATOM     27  C   UNL     1       9.840   9.380  -1.144  0.00  0.00    +0.046 A 
BRANCH  25  28
ATOM     28  C   UNL     1      12.092  12.229  -2.175  0.00  0.00    -0.013 C 
ATOM     29  C   UNL     1      12.208  11.932  -3.671  0.00  0.00    +0.015 C 
ATOM     30  C   UNL     1      11.870  13.728  -1.967  0.00  0.00    +0.015 C 
ATOM     31  C   UNL     1      13.381  11.802  -1.469  0.00  0.00    +0.015 C 
ENDBRANCH  25  28
ENDBRANCH  21  22
ENDBRANCH  19  21
ENDBRANCH   2  19
TORSDOF 8
