REMARK  Name = ZINC07339232
REMARK  10 active torsions:
REMARK  status: ('A' for Active; 'I' for Inactive)
REMARK    1  A    between atoms: C_1  and  C_2
REMARK    2  A    between atoms: C_4  and  C_15
REMARK    3  A    between atoms: C_5  and  C_14
REMARK    4  A    between atoms: N_6  and  C_7
REMARK    5  A    between atoms: C_7  and  C_8
REMARK    6  A    between atoms: C_8  and  C_9
REMARK    7  A    between atoms: C_15  and  C_17
REMARK    8  A    between atoms: C_17  and  O_18
REMARK    9  A    between atoms: O_18  and  C_19
REMARK   10  A    between atoms: C_24  and  N_25
REMARK                            x       y       z     vdW  Elec       q    Type
REMARK                         _______ _______ _______ _____ _____    ______ ____
ROOT
ATOM      1  C   UNL     1      -5.598   2.746   1.498  0.00  0.00    +0.063 C 
ATOM      2  C   UNL     1      -5.561   1.240   1.482  0.00  0.00    +0.017 A 
ATOM      3  C   UNL     1      -6.636   0.434   1.476  0.00  0.00    +0.034 A 
ATOM      4  C   UNL     1      -6.121  -0.942   1.465  0.00  0.00    +0.042 A 
ATOM      5  C   UNL     1      -4.743  -0.831   1.460  0.00  0.00    +0.026 A 
ATOM      6  N   UNL     1      -4.429   0.477   1.466  0.00  0.00    -0.347 N 
ATOM      7  C   UNL     1      -3.764  -1.976   1.449  0.00  0.00    +0.064 C 
ENDROOT
BRANCH   4   8
ATOM      8  C   UNL     1      -6.906  -2.178   1.461  0.00  0.00    +0.202 C 
ATOM      9  O   UNL     1      -6.345  -3.254   1.451  0.00  0.00    -0.288 OA
BRANCH   8  10
ATOM     10  C   UNL     1      -8.412  -2.115   1.468  0.00  0.00    +0.308 C 
BRANCH  10  11
ATOM     11  O   UNL     1      -8.945  -3.440   1.462  0.00  0.00    -0.482 OA
BRANCH  11  12
ATOM     12  C   UNL     1     -10.299  -3.561   1.467  0.00  0.00    +0.151 A 
ATOM     13  C   UNL     1     -11.097  -2.427   1.483  0.00  0.00    +0.048 A 
ATOM     14  C   UNL     1     -12.473  -2.552   1.484  0.00  0.00    +0.004 A 
ATOM     15  C   UNL     1     -13.054  -3.807   1.479  0.00  0.00    +0.002 A 
ATOM     16  C   UNL     1     -12.260  -4.939   1.467  0.00  0.00    +0.036 A 
ATOM     17  C   UNL     1     -10.884  -4.819   1.461  0.00  0.00    +0.168 A 
BRANCH  17  18
ATOM     18  N   UNL     1     -10.035  -6.031   1.450  0.00  0.00    +0.060 N 
ATOM     19  O   UNL     1     -10.549  -7.135   1.445  0.00  0.00    -0.126 OA
ATOM     20  O   UNL     1      -8.821  -5.924   1.445  0.00  0.00    -0.126 OA
ENDBRANCH  17  18
ENDBRANCH  11  12
ENDBRANCH  10  11
ENDBRANCH   8  10
ENDBRANCH   4   8
BRANCH   6  21
ATOM     21  C   UNL     1      -3.063   1.008   1.463  0.00  0.00    +0.127 C 
BRANCH  21  22
ATOM     22  C   UNL     1      -2.594   1.202   0.020  0.00  0.00    +0.064 C 
BRANCH  22  23
ATOM     23  C   UNL     1      -1.190   1.748   0.017  0.00  0.00    -0.009 A 
ATOM     24  C   UNL     1      -0.013   1.076   0.008  0.00  0.00    +0.011 A 
ATOM     25  C   UNL     1       1.169   1.793   0.001  0.00  0.00    +0.008 A 
ATOM     26  C   UNL     1       1.115   3.148   0.008  0.00  0.00    +0.045 A 
ATOM     27  S   UNL     1      -0.644   3.448   0.027  0.00  0.00    -0.102 S 
ENDBRANCH  22  23
ENDBRANCH  21  22
ENDBRANCH   6  21
TORSDOF 8
