REMARK  Name = ZINC52094694
REMARK  7 active torsions:
REMARK  status: ('A' for Active; 'I' for Inactive)
REMARK    1  A    between atoms: C_1  and  C_2
REMARK    2  A    between atoms: C_2  and  C_3
REMARK    3  A    between atoms: C_3  and  N_4
REMARK    4  A    between atoms: N_4  and  C_5
REMARK    5  A    between atoms: C_5  and  C_7
REMARK    6  A    between atoms: C_5  and  C_12
REMARK    7  A    between atoms: C_7  and  C_8
REMARK                            x       y       z     vdW  Elec       q    Type
REMARK                         _______ _______ _______ _____ _____    ______ ____
ROOT
ATOM      1  C   UNL     1      -2.872  -3.912  -0.052  0.00  0.00    -0.045 A 
ATOM      2  C   UNL     1      -1.779  -4.617   0.413  0.00  0.00    +0.031 A 
ATOM      3  C   UNL     1      -1.795  -6.003   0.400  0.00  0.00    +0.067 A 
ATOM      4  C   UNL     1      -2.916  -6.681  -0.084  0.00  0.00    +0.068 A 
ATOM      5  C   UNL     1      -4.008  -5.966  -0.549  0.00  0.00    +0.043 A 
ATOM      6  C   UNL     1      -3.986  -4.584  -0.526  0.00  0.00    +0.022 A 
ATOM      7 BR   UNL     1      -5.479  -3.607  -1.153  0.00  0.00    -0.050 Br
ATOM      8  N   UNL     1      -2.641  -8.042   0.027  0.00  0.00    -0.306 N 
ATOM      9  H   UNL     1      -3.236  -8.764  -0.231  0.00  0.00    +0.170 HD
ATOM     10  C   UNL     1      -1.411  -8.185   0.554  0.00  0.00    +0.325 A 
ATOM     11  O   UNL     1      -0.865  -9.249   0.782  0.00  0.00    -0.247 OA
ATOM     12  N   UNL     1      -0.874  -6.973   0.789  0.00  0.00    -0.306 N 
ATOM     13  H   UNL     1       0.004  -6.804   1.166  0.00  0.00    +0.170 HD
ENDROOT
BRANCH   1  14
ATOM     14  C   UNL     1      -2.855  -2.405  -0.037  0.00  0.00    -0.031 C 
BRANCH  14  15
ATOM     15  N   UNL     1      -1.465  -1.931  -0.083  0.00  0.00    +0.384 N 
ATOM     16  H   UNL     1      -0.942  -2.348   0.673  0.00  0.00    -0.085 HD
ATOM     17  H   UNL     1      -1.449  -0.926   0.012  0.00  0.00    -0.085 HD
BRANCH  15  18
ATOM     18  C   UNL     1      -0.860  -2.311  -1.366  0.00  0.00    -0.082 C 
BRANCH  18  20
ATOM     19  C   UNL     1       1.175  -2.107  -2.802  0.00  0.00    +0.002 C 
ATOM     20  C   UNL     1       0.544  -1.711  -1.466  0.00  0.00    -0.022 C 
ENDBRANCH  18  20
ENDBRANCH  15  18
ENDBRANCH  14  15
BRANCH  14  21
ATOM     21  C   UNL     1      -3.524  -1.899   1.242  0.00  0.00    +0.102 C 
BRANCH  21  22
ATOM     22  C   UNL     1      -3.647  -0.376   1.186  0.00  0.00    +0.389 C 
ATOM     23  F   UNL     1      -4.298  -0.004   0.005  0.00  0.00    -0.171 F 
ATOM     24  F   UNL     1      -4.385   0.074   2.286  0.00  0.00    -0.171 F 
ATOM     25  F   UNL     1      -2.371   0.197   1.214  0.00  0.00    -0.171 F 
ENDBRANCH  21  22
ENDBRANCH  14  21
ENDBRANCH   1  14
TORSDOF 6
