REMARK  Name = ZINC14912166
REMARK  7 active torsions:
REMARK  status: ('A' for Active; 'I' for Inactive)
REMARK    1  A    between atoms: C_1  and  C_2
REMARK    2  A    between atoms: C_2  and  C_3
REMARK    3  A    between atoms: C_3  and  C_27
REMARK    4  A    between atoms: N_6  and  C_10
REMARK    5  A    between atoms: C_10  and  C_11
REMARK    6  A    between atoms: N_13  and  C_14
REMARK    7  A    between atoms: C_19  and  N_20
REMARK                            x       y       z     vdW  Elec       q    Type
REMARK                         _______ _______ _______ _____ _____    ______ ____
ROOT
ATOM      1  C   UNL     1       3.338   3.554   4.300  0.00  0.00    +0.214 C 
ENDROOT
BRANCH   1   5
ATOM      2  C   UNL     1       3.606   5.974   7.106  0.00  0.00    +0.138 C 
ATOM      3  C   UNL     1       2.838   4.946   6.298  0.00  0.00    +0.251 C 
ATOM      4  O   UNL     1       1.705   4.561   6.492  0.00  0.00    -0.272 OA
ATOM      5  N   UNL     1       3.676   4.550   5.320  0.00  0.00    -0.215 N 
ATOM      6  C   UNL     1       4.856   5.175   5.399  0.00  0.00    +0.310 C 
ATOM      7  O   UNL     1       5.776   4.981   4.628  0.00  0.00    -0.252 OA
ATOM      8  N   UNL     1       4.910   6.045   6.424  0.00  0.00    -0.281 N 
ATOM      9  H   UNL     1       5.662   6.606   6.669  0.00  0.00    +0.152 HD
BRANCH   2  10
ATOM     10  C   UNL     1       3.773   5.512   8.530  0.00  0.00    -0.015 A 
ATOM     11  C   UNL     1       2.831   5.855   9.483  0.00  0.00    +0.006 A 
ATOM     12  C   UNL     1       2.982   5.428  10.789  0.00  0.00    +0.000 A 
ATOM     13  C   UNL     1       4.079   4.666  11.144  0.00  0.00    +0.000 A 
ATOM     14  C   UNL     1       5.024   4.328  10.193  0.00  0.00    +0.000 A 
ATOM     15  C   UNL     1       4.870   4.751   8.886  0.00  0.00    +0.006 A 
ENDBRANCH   2  10
BRANCH   2  17
ATOM     16  C   UNL     1       2.791   7.800   5.608  0.00  0.00    +0.007 C 
ATOM     17  C   UNL     1       2.900   7.331   7.060  0.00  0.00    +0.037 C 
ENDBRANCH   2  17
ENDBRANCH   1   5
BRANCH   1  18
ATOM     18  C   UNL     1       2.726   4.244   3.108  0.00  0.00    +0.235 C 
ATOM     19  O   UNL     1       2.585   5.449   3.110  0.00  0.00    -0.274 OA
ATOM     20  N   UNL     1       2.334   3.522   2.039  0.00  0.00    -0.283 N 
ATOM     21  H   UNL     1       2.396   2.554   2.059  0.00  0.00    +0.155 HD
BRANCH  20  22
ATOM     22  C   UNL     1       1.839   4.170   0.899  0.00  0.00    +0.056 A 
ATOM     23  C   UNL     1       1.255   5.423   1.010  0.00  0.00    +0.045 A 
ATOM     24  C   UNL     1       0.763   6.058  -0.115  0.00  0.00    +0.043 A 
ATOM     25  C   UNL     1       0.855   5.448  -1.354  0.00  0.00    +0.022 A 
ATOM     26  C   UNL     1       1.440   4.202  -1.474  0.00  0.00    +0.026 A 
ATOM     27  C   UNL     1       1.937   3.558  -0.350  0.00  0.00    +0.051 A 
ATOM     28 CL   UNL     1       0.027   7.624   0.026  0.00  0.00    -0.083 Cl
BRANCH  27  29
ATOM     29  N   UNL     1       2.529   2.296  -0.469  0.00  0.00    -0.328 N 
ATOM     30  C   UNL     1       3.961   2.354  -0.149  0.00  0.00    +0.105 C 
ATOM     31  C   UNL     1       4.543   0.939  -0.147  0.00  0.00    +0.019 C 
ATOM     32  C   UNL     1       4.335   0.305  -1.525  0.00  0.00    +0.003 C 
ATOM     33  C   UNL     1       2.839   0.300  -1.855  0.00  0.00    +0.019 C 
ATOM     34  C   UNL     1       2.307   1.734  -1.807  0.00  0.00    +0.105 C 
ENDBRANCH  27  29
ENDBRANCH  20  22
ENDBRANCH   1  18
TORSDOF 6
