REMARK  Name = ZINC29386961
REMARK  8 active torsions:
REMARK  status: ('A' for Active; 'I' for Inactive)
REMARK    1  A    between atoms: C_1  and  C_2
REMARK    2  A    between atoms: C_5  and  C_8
REMARK    3  A    between atoms: C_8  and  N_9
REMARK    4  A    between atoms: C_16  and  C_18
REMARK    5  A    between atoms: C_22  and  S_24
REMARK    6  A    between atoms: S_24  and  N_27
REMARK    7  A    between atoms: N_27  and  C_28
REMARK    8  A    between atoms: C_28  and  C_29
REMARK                            x       y       z     vdW  Elec       q    Type
REMARK                         _______ _______ _______ _____ _____    ______ ____
ROOT
ATOM      1  N   UNL     1       2.442   7.687   0.916  0.00  0.00    -0.331 N 
ATOM      2  C   UNL     1       2.698   8.611   1.875  0.00  0.00    +0.088 A 
ATOM      3  C   UNL     1       1.844   8.786   2.913  0.00  0.00    +0.018 A 
ATOM      4  C   UNL     1       0.682   8.010   3.005  0.00  0.00    +0.005 A 
ATOM      5  C   UNL     1       0.416   7.082   2.038  0.00  0.00    +0.042 A 
ATOM      6  C   UNL     1       1.318   6.916   0.978  0.00  0.00    +0.106 A 
ATOM      7  N   UNL     1       1.075   6.008   0.025  0.00  0.00    -0.268 N 
ATOM      8  C   UNL     1      -0.074   5.332   0.027  0.00  0.00    +0.249 C 
ATOM      9  O   UNL     1      -1.135   5.932   0.025  0.00  0.00    -0.270 OA
ATOM     10  H   UNL     1       1.822   5.819  -0.759  0.00  0.00    +0.157 HD
ENDROOT
BRANCH   8  11
ATOM     11  C   UNL     1      -0.061   3.850   0.032  0.00  0.00    +0.039 A 
ATOM     12  C   UNL     1       1.151   3.160   0.035  0.00  0.00    +0.013 A 
ATOM     13  C   UNL     1       1.157   1.781   0.040  0.00  0.00    +0.003 A 
ATOM     14  C   UNL     1      -0.037   1.081   0.043  0.00  0.00    +0.028 A 
ATOM     15  C   UNL     1      -1.243   1.760   0.034  0.00  0.00    +0.106 A 
ATOM     16  C   UNL     1      -1.261   3.140   0.035  0.00  0.00    +0.041 A 
BRANCH  15  17
ATOM     17  S   UNL     1      -2.758   0.861   0.030  0.00  0.00    +0.059 S 
ATOM     18  O   UNL     1      -3.740   1.722  -0.528  0.00  0.00    -0.153 OA
ATOM     19  O   UNL     1      -2.469  -0.420  -0.514  0.00  0.00    -0.153 OA
BRANCH  17  20
ATOM     20  N   UNL     1      -3.187   0.617   1.611  0.00  0.00    -0.186 NA
ATOM     21  H   UNL     1      -3.057  -0.382   2.055  0.00  0.00    +0.148 HD
BRANCH  20  22
ATOM     22  C   UNL     1      -3.523   1.759   2.464  0.00  0.00    +0.141 C 
BRANCH  22  23
ATOM     23  C   UNL     1      -4.219   1.270   3.708  0.00  0.00    -0.032 A 
ATOM     24  C   UNL     1      -5.596   1.152   3.728  0.00  0.00    +0.005 A 
ATOM     25  C   UNL     1      -6.234   0.698   4.867  0.00  0.00    +0.000 A 
ATOM     26  C   UNL     1      -5.496   0.373   5.990  0.00  0.00    +0.000 A 
ATOM     27  C   UNL     1      -4.120   0.497   5.972  0.00  0.00    +0.000 A 
ATOM     28  C   UNL     1      -3.481   0.946   4.831  0.00  0.00    +0.005 A 
ENDBRANCH  22  23
ENDBRANCH  20  22
ENDBRANCH  17  20
ENDBRANCH  15  17
ENDBRANCH   8  11
BRANCH   1  29
ATOM     29  C   UNL     1       3.380   7.516  -0.196  0.00  0.00    +0.158 C 
BRANCH  29  34
ATOM     30  C   UNL     1       6.002  12.546  -1.297  0.00  0.00    +0.044 C 
ATOM     31  C   UNL     1       5.319  11.234  -1.010  0.00  0.00    -0.050 A 
ATOM     32  C   UNL     1       5.872  10.350  -0.103  0.00  0.00    +0.004 A 
ATOM     33  C   UNL     1       5.245   9.147   0.160  0.00  0.00    +0.005 A 
ATOM     34  C   UNL     1       4.064   8.828  -0.483  0.00  0.00    -0.028 A 
ATOM     35  C   UNL     1       3.513   9.710  -1.394  0.00  0.00    +0.005 A 
ATOM     36  C   UNL     1       4.138  10.915  -1.655  0.00  0.00    +0.004 A 
ENDBRANCH  29  34
ENDBRANCH   1  29
TORSDOF 7
