REMARK  Name = ZINC35566781
REMARK  12 active torsions:
REMARK  status: ('A' for Active; 'I' for Inactive)
REMARK    1  A    between atoms: C_1  and  C_2
REMARK    2  A    between atoms: C_3  and  C_36
REMARK    3  A    between atoms: C_4  and  C_27
REMARK    4  A    between atoms: C_6  and  C_10
REMARK    5  A    between atoms: C_7  and  C_9
REMARK    6  A    between atoms: C_10  and  O_12
REMARK    7  A    between atoms: O_12  and  C_13
REMARK    8  A    between atoms: N_19  and  C_20
REMARK    9  A    between atoms: C_20  and  C_21
REMARK   10  A    between atoms: C_31  and  N_33
REMARK   11  A    between atoms: C_36  and  O_38
REMARK   12  A    between atoms: O_38  and  C_39
REMARK                            x       y       z     vdW  Elec       q    Type
REMARK                         _______ _______ _______ _____ _____    ______ ____
ROOT
ATOM      1  C   UNL     1      -0.882   1.646  -0.523  0.00  0.00    +0.061 C 
ATOM      2  C   UNL     1      -0.711   0.152  -0.418  0.00  0.00    +0.016 C 
ATOM      3  C   UNL     1      -1.788  -0.627  -0.217  0.00  0.00    +0.065 C 
ATOM      4  C   UNL     1      -1.663  -2.120  -0.097  0.00  0.00    +0.096 C 
ATOM      5  C   UNL     1      -0.331  -2.585  -0.613  0.00  0.00    +0.065 C 
ATOM      6  C   UNL     1       0.687  -1.728  -0.799  0.00  0.00    +0.016 C 
ATOM      7  N   UNL     1       0.538  -0.395  -0.536  0.00  0.00    -0.321 N 
ATOM      8  C   UNL     1       2.009  -2.241  -1.309  0.00  0.00    +0.061 C 
ATOM      9  H   UNL     1       1.322   0.166  -0.427  0.00  0.00    +0.152 HD
ENDROOT
BRANCH   4  10
ATOM     10  C   UNL     1      -1.799  -2.515   1.351  0.00  0.00    -0.033 A 
ATOM     11  C   UNL     1      -0.911  -2.021   2.288  0.00  0.00    +0.005 A 
ATOM     12  C   UNL     1      -1.036  -2.383   3.616  0.00  0.00    +0.003 A 
ATOM     13  C   UNL     1      -2.050  -3.239   4.007  0.00  0.00    +0.033 A 
ATOM     14  C   UNL     1      -2.938  -3.732   3.070  0.00  0.00    +0.126 A 
ATOM     15  C   UNL     1      -2.815  -3.366   1.742  0.00  0.00    +0.037 A 
BRANCH  14  16
ATOM     16  N   UNL     1      -4.022  -4.648   3.488  0.00  0.00    +0.056 N 
ATOM     17  O   UNL     1      -4.131  -4.966   4.649  0.00  0.00    -0.126 OA
ATOM     18  O   UNL     1      -4.799  -5.080   2.668  0.00  0.00    -0.126 OA
ENDBRANCH  14  16
ENDBRANCH   4  10
BRANCH   5  19
ATOM     19  C   UNL     1      -0.144  -3.955  -0.909  0.00  0.00    +0.336 C 
ATOM     20  O   UNL     1      -0.596  -4.423  -1.938  0.00  0.00    -0.245 OA
BRANCH  19  21
ATOM     21  O   UNL     1       0.534  -4.745  -0.050  0.00  0.00    -0.477 OA
BRANCH  21  22
ATOM     22  C   UNL     1       0.784  -6.089  -0.464  0.00  0.00    +0.127 C 
ATOM     23  C   UNL     1       1.532  -6.081  -1.799  0.00  0.00    +0.025 C 
ATOM     24  C   UNL     1       1.798  -7.523  -2.238  0.00  0.00    -0.000 C 
ATOM     25  C   UNL     1       0.466  -8.274  -2.324  0.00  0.00    -0.018 C 
ATOM     26  C   UNL     1      -0.242  -8.201  -0.970  0.00  0.00    -0.073 C 
ATOM     27  N   UNL     1      -0.491  -6.798  -0.619  0.00  0.00    +0.407 N 
ATOM     28  H   UNL     1      -1.032  -6.360  -1.350  0.00  0.00    -0.076 HD
BRANCH  27  29
ATOM     29  C   UNL     1      -1.241  -6.737   0.643  0.00  0.00    -0.038 C 
BRANCH  29  30
ATOM     30  C   UNL     1      -2.609  -7.336   0.445  0.00  0.00    -0.064 A 
ATOM     31  C   UNL     1      -3.662  -6.536   0.042  0.00  0.00    +0.002 A 
ATOM     32  C   UNL     1      -4.917  -7.086  -0.140  0.00  0.00    +0.000 A 
ATOM     33  C   UNL     1      -5.119  -8.436   0.080  0.00  0.00    +0.000 A 
ATOM     34  C   UNL     1      -4.066  -9.236   0.482  0.00  0.00    +0.000 A 
ATOM     35  C   UNL     1      -2.810  -8.687   0.660  0.00  0.00    +0.002 A 
ENDBRANCH  29  30
ENDBRANCH  27  29
ENDBRANCH  21  22
ENDBRANCH  19  21
ENDBRANCH   5  19
BRANCH   3  36
ATOM     36  C   UNL     1      -3.065  -0.029  -0.114  0.00  0.00    +0.337 C 
ATOM     37  O   UNL     1      -3.181   1.179  -0.208  0.00  0.00    -0.245 OA
BRANCH  36  38
ATOM     38  O   UNL     1      -4.156  -0.798   0.088  0.00  0.00    -0.465 OA
ATOM     39  C   UNL     1      -5.414  -0.127   0.182  0.00  0.00    +0.280 C 
ENDBRANCH  36  38
ENDBRANCH   3  36
TORSDOF 9
