REMARK  Name = ZINC46987702
REMARK  5 active torsions:
REMARK  status: ('A' for Active; 'I' for Inactive)
REMARK    1  A    between atoms: C_1  and  C_2
REMARK    2  A    between atoms: C_6  and  C_7
REMARK    3  A    between atoms: C_7  and  N_8
REMARK    4  A    between atoms: N_14  and  C_17
REMARK    5  A    between atoms: C_22  and  O_23
REMARK                            x       y       z     vdW  Elec       q    Type
REMARK                         _______ _______ _______ _____ _____    ______ ____
ROOT
ATOM      1  N   UNL     1      -1.349  -0.024   3.051  0.00  0.00    -0.295 N 
ATOM      2  C   UNL     1      -1.589   0.425   4.299  0.00  0.00    +0.303 C 
ATOM      3  O   UNL     1      -0.664   0.619   5.064  0.00  0.00    -0.253 OA
ATOM      4  N   UNL     1      -2.855   0.659   4.699  0.00  0.00    -0.283 N 
ATOM      5  C   UNL     1      -3.989   0.316   3.830  0.00  0.00    +0.128 C 
ATOM      6  C   UNL     1      -4.940  -0.605   4.605  0.00  0.00    +0.124 C 
ATOM      7  N   UNL     1      -5.210  -0.002   5.918  0.00  0.00    -0.324 N 
ATOM      8  C   UNL     1      -4.075   0.341   6.787  0.00  0.00    +0.124 C 
ATOM      9  C   UNL     1      -3.125   1.256   6.014  0.00  0.00    +0.128 C 
ATOM     10  H   UNL     1      -2.089  -0.248   2.465  0.00  0.00    +0.151 HD
ENDROOT
BRANCH   7  11
ATOM     11  C   UNL     1      -6.524   0.241   6.333  0.00  0.00    +0.072 A 
ATOM     12  C   UNL     1      -7.222  -0.730   7.037  0.00  0.00    +0.027 A 
ATOM     13  C   UNL     1      -8.520  -0.487   7.446  0.00  0.00    +0.002 A 
ATOM     14  C   UNL     1      -9.125   0.721   7.156  0.00  0.00    +0.004 A 
ATOM     15  C   UNL     1      -8.436   1.694   6.456  0.00  0.00    +0.047 A 
ATOM     16  C   UNL     1      -7.133   1.461   6.046  0.00  0.00    +0.138 A 
BRANCH  16  17
ATOM     17  O   UNL     1      -6.452   2.418   5.362  0.00  0.00    -0.505 OA
ATOM     18  H   UNL     1      -6.557   2.365   4.402  0.00  0.00    +0.292 HD
ENDBRANCH  16  17
ENDBRANCH   7  11
BRANCH   1  19
ATOM     19  C   UNL     1       0.030  -0.174   2.580  0.00  0.00    +0.148 C 
BRANCH  19  25
ATOM     20  C   UNL     1      -0.014   1.517   0.015  0.00  0.00    +0.044 C 
ATOM     21  C   UNL     1       0.005   0.010   0.002  0.00  0.00    -0.039 A 
ATOM     22  C   UNL     1       0.009  -0.681  -1.196  0.00  0.00    +0.011 A 
ATOM     23  C   UNL     1       0.025  -2.036  -1.173  0.00  0.00    +0.046 A 
ATOM     24  S   UNL     1       0.036  -2.376   0.579  0.00  0.00    -0.100 S 
ATOM     25  C   UNL     1       0.023  -0.689   1.163  0.00  0.00    +0.010 A 
ENDBRANCH  19  25
ENDBRANCH   1  19
TORSDOF 4
