REMARK  Name = ZINC35419127
REMARK  13 active torsions:
REMARK  status: ('A' for Active; 'I' for Inactive)
REMARK    1  A    between atoms: C_1  and  C_2
REMARK    2  A    between atoms: C_2  and  C_3
REMARK    3  A    between atoms: C_2  and  C_4
REMARK    4  A    between atoms: C_2  and  C_5
REMARK    5  A    between atoms: C_5  and  C_6
REMARK    6  A    between atoms: C_6  and  C_7
REMARK    7  A    between atoms: C_6  and  C_8
REMARK    8  A    between atoms: C_6  and  N_9
REMARK    9  A    between atoms: N_9  and  C_10
REMARK   10  A    between atoms: C_11  and  C_19
REMARK   11  A    between atoms: C_24  and  O_25
REMARK   12  A    between atoms: O_25  and  C_26
REMARK   13  A    between atoms: C_26  and  C_28
REMARK                            x       y       z     vdW  Elec       q    Type
REMARK                         _______ _______ _______ _____ _____    ______ ____
ROOT
ATOM      1  C   UNL     1       5.211  -0.395  -2.525  0.00  0.00    +0.129 A 
ATOM      2  C   UNL     1       6.168  -0.408  -3.519  0.00  0.00    +0.090 A 
ATOM      3  N   UNL     1       7.346  -0.064  -2.967  0.00  0.00    -0.338 N 
ATOM      4  C   UNL     1       7.173   0.164  -1.676  0.00  0.00    +0.117 A 
ATOM      5  N   UNL     1       5.846  -0.029  -1.370  0.00  0.00    -0.289 N 
ATOM      6  C   UNL     1       5.397   0.150  -0.089  0.00  0.00    +0.094 A 
ATOM      7  C   UNL     1       6.247   0.521   0.889  0.00  0.00    +0.018 A 
ATOM      8  C   UNL     1       7.608   0.730   0.607  0.00  0.00    +0.005 A 
ATOM      9  C   UNL     1       8.072   0.548  -0.658  0.00  0.00    +0.045 A 
ATOM     10  H   UNL     1       8.189   0.006  -3.442  0.00  0.00    +0.167 HD
ENDROOT
BRANCH   2  11
ATOM     11  C   UNL     1       5.938  -0.743  -4.944  0.00  0.00    +0.044 A 
ATOM     12  C   UNL     1       6.526  -1.878  -5.500  0.00  0.00    +0.014 A 
ATOM     13  C   UNL     1       6.309  -2.186  -6.827  0.00  0.00    +0.001 A 
ATOM     14  C   UNL     1       5.509  -1.371  -7.610  0.00  0.00    +0.004 A 
ATOM     15  C   UNL     1       4.921  -0.243  -7.068  0.00  0.00    +0.047 A 
ATOM     16  C   UNL     1       5.125   0.075  -5.736  0.00  0.00    +0.141 A 
BRANCH  16  17
ATOM     17  O   UNL     1       4.543   1.180  -5.201  0.00  0.00    -0.422 OA
BRANCH  17  18
ATOM     18  C   UNL     1       5.242   2.332  -5.213  0.00  0.00    +0.344 C 
ATOM     19  O   UNL     1       6.361   2.358  -5.686  0.00  0.00    -0.245 OA
BRANCH  18  20
ATOM     20  C   UNL     1       4.649   3.562  -4.652  0.00  0.00    +0.059 A 
ATOM     21  C   UNL     1       3.365   3.534  -4.104  0.00  0.00    +0.016 A 
ATOM     22  C   UNL     1       2.816   4.686  -3.582  0.00  0.00    +0.016 A 
ATOM     23  C   UNL     1       3.534   5.869  -3.601  0.00  0.00    +0.018 A 
ATOM     24  C   UNL     1       4.808   5.904  -4.144  0.00  0.00    +0.016 A 
ATOM     25  C   UNL     1       5.371   4.757  -4.664  0.00  0.00    +0.016 A 
ATOM     26 BR   UNL     1       2.774   7.445  -2.883  0.00  0.00    -0.050 Br
ENDBRANCH  18  20
ENDBRANCH  17  18
ENDBRANCH  16  17
ENDBRANCH   2  11
BRANCH   1  27
ATOM     27  N   UNL     1       3.856  -0.692  -2.671  0.00  0.00    -0.323 N 
ATOM     28  H   UNL     1       3.485  -0.845  -3.555  0.00  0.00    +0.148 HD
BRANCH  27  29
ATOM     29  C   UNL     1       2.992  -0.772  -1.491  0.00  0.00    +0.028 C 
ATOM     30  C   UNL     1       2.871   0.613  -0.852  0.00  0.00    +0.031 C 
ATOM     31  C   UNL     1       3.598  -1.749  -0.481  0.00  0.00    +0.031 C 
BRANCH  29  32
ATOM     32  C   UNL     1       1.604  -1.264  -1.907  0.00  0.00    +0.031 C 
BRANCH  32  34
ATOM     33  C   UNL     1       1.885  -1.225  -4.389  0.00  0.00    +0.010 C 
ATOM     34  C   UNL     1       1.182  -0.565  -3.201  0.00  0.00    -0.036 C 
ATOM     35  C   UNL     1       1.573   0.912  -3.134  0.00  0.00    +0.010 C 
ATOM     36  C   UNL     1      -0.334  -0.685  -3.374  0.00  0.00    +0.010 C 
ENDBRANCH  32  34
ENDBRANCH  29  32
ENDBRANCH  27  29
ENDBRANCH   1  27
TORSDOF 8
