REMARK  Name = ZINC04452527
REMARK  3 active torsions:
REMARK  status: ('A' for Active; 'I' for Inactive)
REMARK    1  A    between atoms: C_1  and  C_2
REMARK    2  A    between atoms: C_4  and  C_24
REMARK    3  A    between atoms: N_13  and  C_14
REMARK                            x       y       z     vdW  Elec       q    Type
REMARK                         _______ _______ _______ _____ _____    ______ ____
ROOT
ATOM      1  C   UNL     1      -0.018   1.503   0.010  0.00  0.00    +0.067 C 
ATOM      2  C   UNL     1       0.002  -0.004   0.002  0.00  0.00    +0.061 A 
ATOM      3  C   UNL     1       0.008  -0.817  -1.137  0.00  0.00    +0.048 A 
ATOM      4  C   UNL     1       0.027  -2.107  -0.730  0.00  0.00    +0.045 A 
ATOM      5  N   UNL     1       0.034  -2.108   0.629  0.00  0.00    -0.200 N 
ATOM      6  N   UNL     1       0.023  -0.775   1.058  0.00  0.00    -0.169 NA
ATOM      7  C   UNL     1       0.052  -3.238   1.450  0.00  0.00    +0.289 A 
ATOM      8  N   UNL     1       0.071  -4.450   0.910  0.00  0.00    -0.104 NA
ATOM      9  N   UNL     1       0.089  -5.494   1.668  0.00  0.00    -0.108 NA
ATOM     10  C   UNL     1       0.088  -5.355   2.990  0.00  0.00    +0.255 A 
ATOM     11  N   UNL     1       0.069  -4.141   3.529  0.00  0.00    -0.108 NA
ATOM     12  N   UNL     1       0.056  -3.098   2.769  0.00  0.00    -0.104 NA
ATOM     13  N   UNL     1       0.107  -6.476   3.805  0.00  0.00    -0.305 N 
ATOM     14  C   UNL     1       0.039  -3.321  -1.622  0.00  0.00    +0.066 C 
ATOM     15  H   UNL     1       0.120  -7.362   3.410  0.00  0.00    +0.150 HD
ENDROOT
BRANCH  13  16
ATOM     16  C   UNL     1       0.105  -6.322   5.262  0.00  0.00    +0.036 C 
ATOM     17  C   UNL     1      -1.155  -5.571   5.694  0.00  0.00    +0.029 C 
ATOM     18  C   UNL     1      -1.157  -5.411   7.216  0.00  0.00    -0.008 C 
ATOM     19  C   UNL     1      -1.134  -6.792   7.874  0.00  0.00    +0.007 C 
ATOM     20  C   UNL     1       0.127  -7.543   7.442  0.00  0.00    -0.008 C 
ATOM     21  C   UNL     1       0.128  -7.703   5.920  0.00  0.00    +0.029 C 
ATOM     22  C   UNL     1       1.364  -6.752   7.872  0.00  0.00    +0.007 C 
ATOM     23  C   UNL     1       1.342  -5.371   7.213  0.00  0.00    -0.008 C 
ATOM     24  C   UNL     1       0.081  -4.620   7.646  0.00  0.00    +0.007 C 
ATOM     25  C   UNL     1       1.343  -5.532   5.692  0.00  0.00    +0.029 C 
ENDBRANCH  13  16
TORSDOF 1
