REMARK  Name = ZINC05354744
REMARK  10 active torsions:
REMARK  status: ('A' for Active; 'I' for Inactive)
REMARK    1  A    between atoms: C_1  and  C_2
REMARK    2  A    between atoms: C_3  and  C_33
REMARK    3  A    between atoms: C_4  and  N_17
REMARK    4  A    between atoms: C_14  and  C_15
REMARK    5  A    between atoms: C_22  and  C_23
REMARK    6  A    between atoms: C_22  and  N_73
REMARK    7  A    between atoms: C_33  and  C_34
REMARK    8  A    between atoms: C_34  and  C_35
REMARK    9  A    between atoms: C_35  and  C_36
REMARK   10  A    between atoms: C_35  and  C_37
REMARK                            x       y       z     vdW  Elec       q    Type
REMARK                         _______ _______ _______ _____ _____    ______ ____
ROOT
ATOM      1  C   UNL     1       7.068   0.649   0.242  0.00  0.00    +0.045 C 
ATOM      2  C   UNL     1       5.585   0.860   0.078  0.00  0.00    -0.023 A 
ATOM      3  C   UNL     1       4.714  -0.220   0.136  0.00  0.00    -0.005 A 
ATOM      4  C   UNL     1       3.357  -0.041  -0.013  0.00  0.00    +0.111 A 
ATOM      5  N   UNL     1       2.819   1.197  -0.222  0.00  0.00    -0.279 N 
ATOM      6  C   UNL     1       1.515   1.628  -0.399  0.00  0.00    +0.075 A 
ATOM      7  C   UNL     1       0.287   0.985  -0.430  0.00  0.00    +0.028 A 
ATOM      8  C   UNL     1      -0.864   1.716  -0.637  0.00  0.00    +0.002 A 
ATOM      9  C   UNL     1      -0.802   3.093  -0.803  0.00  0.00    +0.002 A 
ATOM     10  C   UNL     1       0.398   3.744  -0.776  0.00  0.00    +0.030 A 
ATOM     11  C   UNL     1       1.579   3.022  -0.573  0.00  0.00    +0.090 A 
ATOM     12  N   UNL     1       2.884   3.378  -0.497  0.00  0.00    -0.226 NA
ATOM     13  C   UNL     1       3.626   2.306  -0.290  0.00  0.00    +0.158 A 
ATOM     14  C   UNL     1       5.075   2.141  -0.134  0.00  0.00    +0.098 A 
ENDROOT
BRANCH   4  15
ATOM     15  N   UNL     1       2.525  -1.133   0.051  0.00  0.00    -0.320 N 
ATOM     16  C   UNL     1       1.806  -1.322  -1.217  0.00  0.00    +0.088 C 
ATOM     17  C   UNL     1       0.954  -2.590  -1.133  0.00  0.00    -0.059 C 
ATOM     18  C   UNL     1       0.732  -2.282   1.258  0.00  0.00    -0.059 C 
ATOM     19  C   UNL     1       1.585  -1.014   1.173  0.00  0.00    +0.088 C 
ATOM     20  N   UNL     1      -0.002  -2.448  -0.015  0.00  0.00    +0.384 N 
ATOM     21  H   UNL     1      -0.583  -1.617  -0.176  0.00  0.00    -0.081 HD
BRANCH  20  22
ATOM     22  C   UNL     1      -0.876  -3.638   0.058  0.00  0.00    -0.042 C 
BRANCH  22  23
ATOM     23  C   UNL     1      -1.864  -3.584  -1.079  0.00  0.00    -0.056 A 
ATOM     24  C   UNL     1      -1.720  -4.412  -2.150  0.00  0.00    +0.002 A 
ATOM     25  C   UNL     1      -2.623  -4.376  -3.211  0.00  0.00    +0.001 A 
ATOM     26  C   UNL     1      -3.676  -3.513  -3.207  0.00  0.00    +0.008 A 
ATOM     27  C   UNL     1      -3.857  -2.643  -2.118  0.00  0.00    -0.018 A 
ATOM     28  C   UNL     1      -2.941  -2.683  -1.037  0.00  0.00    -0.017 A 
ATOM     29  C   UNL     1      -3.120  -1.810   0.050  0.00  0.00    +0.009 A 
ATOM     30  C   UNL     1      -4.172  -0.946   0.053  0.00  0.00    +0.001 A 
ATOM     31  C   UNL     1      -5.074  -0.910  -1.008  0.00  0.00    +0.001 A 
ATOM     32  C   UNL     1      -4.931  -1.738  -2.078  0.00  0.00    +0.008 A 
ENDBRANCH  22  23
ENDBRANCH  20  22
ENDBRANCH   4  15
BRANCH  14  33
ATOM     33  C   UNL     1       5.950   3.273  -0.199  0.00  0.00    +0.103 C 
ATOM     34  N   UNL     1       6.644   4.170  -0.250  0.00  0.00    -0.191 NA
ENDBRANCH  14  33
BRANCH   3  35
ATOM     35  C   UNL     1       5.262  -1.605   0.365  0.00  0.00    +0.039 C 
BRANCH  35  36
ATOM     36  C   UNL     1       5.579  -2.258  -0.982  0.00  0.00    +0.008 C 
BRANCH  36  37
ATOM     37  C   UNL     1       6.134  -3.664  -0.749  0.00  0.00    -0.017 C 
ATOM     38  C   UNL     1       5.052  -4.542  -0.118  0.00  0.00    +0.007 C 
ATOM     39  C   UNL     1       6.568  -4.269  -2.085  0.00  0.00    +0.007 C 
ENDBRANCH  36  37
ENDBRANCH  35  36
ENDBRANCH   3  35
TORSDOF 7
