REMARK  Name = ZINC21999759
REMARK  12 active torsions:
REMARK  status: ('A' for Active; 'I' for Inactive)
REMARK    1  A    between atoms: C_1  and  C_2
REMARK    2  A    between atoms: C_2  and  N_3
REMARK    3  A    between atoms: N_3  and  C_4
REMARK    4  A    between atoms: C_4  and  C_5
REMARK    5  A    between atoms: C_6  and  C_8
REMARK    6  A    between atoms: C_12  and  N_14
REMARK    7  A    between atoms: C_15  and  C_17
REMARK    8  A    between atoms: C_17  and  S_18
REMARK    9  A    between atoms: S_18  and  C_19
REMARK   10  A    between atoms: C_22  and  C_27
REMARK   11  A    between atoms: N_23  and  C_24
REMARK   12  A    between atoms: C_24  and  C_25
REMARK                            x       y       z     vdW  Elec       q    Type
REMARK                         _______ _______ _______ _____ _____    ______ ____
ROOT
ATOM      1  N   UNL     1       2.701   2.516  -1.855  0.00  0.00    -0.285 N 
ATOM      2  C   UNL     1       3.562   3.522  -2.108  0.00  0.00    +0.227 C 
ATOM      3  O   UNL     1       3.267   4.661  -1.813  0.00  0.00    -0.275 OA
ATOM      4  H   UNL     1       3.000   1.475  -2.049  0.00  0.00    +0.155 HD
ENDROOT
BRANCH   1   9
ATOM      5  C   UNL     1      -0.018   4.111   0.055  0.00  0.00    +0.039 A 
ATOM      6  C   UNL     1      -1.106   3.335  -0.349  0.00  0.00    +0.013 A 
ATOM      7  C   UNL     1      -0.921   2.297  -1.240  0.00  0.00    +0.003 A 
ATOM      8  C   UNL     1       0.339   2.025  -1.739  0.00  0.00    +0.023 A 
ATOM      9  C   UNL     1       1.428   2.795  -1.347  0.00  0.00    +0.034 A 
ATOM     10  C   UNL     1       1.252   3.840  -0.453  0.00  0.00    +0.036 A 
BRANCH   5  12
ATOM     11  N   UNL     1      -1.302   6.007   0.921  0.00  0.00    -0.298 N 
ATOM     12  C   UNL     1      -0.213   5.219   1.014  0.00  0.00    +0.247 C 
ATOM     13  O   UNL     1       0.610   5.419   1.887  0.00  0.00    -0.270 OA
BRANCH  11  15
ATOM     14  C   UNL     1      -3.489   4.940   0.676  0.00  0.00    +0.024 C 
ATOM     15  C   UNL     1      -2.360   5.685  -0.040  0.00  0.00    +0.104 C 
ENDBRANCH  11  15
BRANCH  11  16
ATOM     16  C   UNL     1      -1.428   7.187   1.781  0.00  0.00    +0.104 C 
ATOM     17  C   UNL     1      -0.807   8.397   1.080  0.00  0.00    +0.024 C 
ENDBRANCH  11  16
ENDBRANCH   5  12
ENDBRANCH   1   9
BRANCH   2  18
ATOM     18  C   UNL     1       4.891   3.232  -2.757  0.00  0.00    +0.173 C 
BRANCH  18  19
ATOM     19  S   UNL     1       5.812   4.777  -2.962  0.00  0.00    -0.077 S 
BRANCH  19  20
ATOM     20  C   UNL     1       7.278   4.160  -3.720  0.00  0.00    +0.192 A 
ATOM     21  N   UNL     1       7.537   2.908  -4.015  0.00  0.00    -0.122 NA
ATOM     22  N   UNL     1       8.698   2.818  -4.559  0.00  0.00    -0.133 NA
ATOM     23  C   UNL     1       9.245   3.998  -4.643  0.00  0.00    +0.139 A 
ATOM     24  N   UNL     1       8.357   4.896  -4.117  0.00  0.00    -0.302 N 
BRANCH  23  25
ATOM     25  C   UNL     1      10.601   4.315  -5.219  0.00  0.00    +0.079 C 
ATOM     26  C   UNL     1      11.682   3.569  -4.419  0.00  0.00    +0.035 C 
ATOM     27  C   UNL     1      13.017   3.657  -5.212  0.00  0.00    +0.166 C 
ATOM     28  S   UNL     1      12.406   3.400  -6.931  0.00  0.00    -0.030 S 
ATOM     29  O   UNL     1      12.475   2.016  -7.245  0.00  0.00    -0.174 OA
ATOM     30  O   UNL     1      13.031   4.344  -7.790  0.00  0.00    -0.174 OA
ATOM     31  C   UNL     1      10.644   3.876  -6.702  0.00  0.00    +0.177 C 
ENDBRANCH  23  25
BRANCH  24  32
ATOM     32  C   UNL     1       8.531   6.346  -4.000  0.00  0.00    +0.152 C 
BRANCH  32  33
ATOM     33  C   UNL     1       9.180   6.670  -2.679  0.00  0.00    -0.013 C 
ATOM     34  C   UNL     1      10.283   7.376  -2.647  0.00  0.00    +0.005 C 
ENDBRANCH  32  33
ENDBRANCH  24  32
ENDBRANCH  19  20
ENDBRANCH  18  19
ENDBRANCH   2  18
TORSDOF 10
