REMARK  Name = ZINC09167755
REMARK  7 active torsions:
REMARK  status: ('A' for Active; 'I' for Inactive)
REMARK    1  A    between atoms: C_1  and  C_2
REMARK    2  A    between atoms: C_6  and  O_14
REMARK    3  A    between atoms: N_7  and  C_10
REMARK    4  A    between atoms: C_10  and  C_11
REMARK    5  A    between atoms: C_11  and  C_12
REMARK    6  A    between atoms: C_11  and  C_13
REMARK    7  A    between atoms: C_16  and  C_17
REMARK                            x       y       z     vdW  Elec       q    Type
REMARK                         _______ _______ _______ _____ _____    ______ ____
ROOT
ATOM      1  C   UNL     1       3.595  -4.745   0.426  0.00  0.00    +0.046 C 
ATOM      2  C   UNL     1       2.355  -5.152  -0.327  0.00  0.00    -0.015 A 
ATOM      3  C   UNL     1       1.494  -4.177  -0.835  0.00  0.00    +0.076 A 
ATOM      4  C   UNL     1       0.357  -4.659  -1.526  0.00  0.00    +0.120 A 
ATOM      5  N   UNL     1      -0.539  -3.841  -2.057  0.00  0.00    -0.189 NA
ATOM      6  C   UNL     1      -0.417  -2.536  -1.967  0.00  0.00    +0.299 A 
ATOM      7  N   UNL     1       0.634  -1.958  -1.325  0.00  0.00    -0.262 N 
ATOM      8  C   UNL     1       1.602  -2.703  -0.757  0.00  0.00    +0.265 A 
ATOM      9  O   UNL     1       2.542  -2.176  -0.189  0.00  0.00    -0.267 OA
ATOM     10  S   UNL     1       0.543  -6.423  -1.436  0.00  0.00    -0.061 S 
ATOM     11  C   UNL     1       2.071  -6.473  -0.514  0.00  0.00    +0.106 A 
ENDROOT
BRANCH  11  12
ATOM     12  C   UNL     1       2.831  -7.642  -0.071  0.00  0.00    +0.393 C 
ATOM     13  O   UNL     1       3.864  -7.495   0.554  0.00  0.00    -0.240 OA
ATOM     14  O   UNL     1       2.385  -8.884  -0.355  0.00  0.00    -0.240 OA
ENDBRANCH  11  12
BRANCH   6  15
ATOM     15  O   UNL     1      -1.359  -1.748  -2.526  0.00  0.00    -0.479 OA
ATOM     16  H   UNL     1      -2.072  -2.236  -2.962  0.00  0.00    +0.295 HD
ENDBRANCH   6  15
BRANCH   7  17
ATOM     17  C   UNL     1       0.718  -0.497  -1.257  0.00  0.00    +0.133 C 
BRANCH  17  18
ATOM     18  C   UNL     1       0.002  -0.004   0.002  0.00  0.00    +0.003 C 
ATOM     19  C   UNL     1      -0.019   1.526   0.010  0.00  0.00    +0.009 C 
ATOM     20  C   UNL     1       0.742  -0.511   1.242  0.00  0.00    +0.009 C 
ENDBRANCH  17  18
ENDBRANCH   7  17
TORSDOF 4
