REMARK  Name = ZINC13068589
REMARK  16 active torsions:
REMARK  status: ('A' for Active; 'I' for Inactive)
REMARK    1  A    between atoms: C_1  and  C_2
REMARK    2  A    between atoms: C_5  and  S_9
REMARK    3  A    between atoms: C_6  and  C_8
REMARK    4  A    between atoms: S_9  and  C_10
REMARK    5  A    between atoms: C_10  and  C_11
REMARK    6  A    between atoms: C_11  and  O_13
REMARK    7  A    between atoms: O_13  and  C_14
REMARK    8  A    between atoms: C_14  and  C_15
REMARK    9  A    between atoms: C_15  and  C_17
REMARK   10  A    between atoms: C_18  and  N_37
REMARK   11  A    between atoms: N_19  and  C_30
REMARK   12  A    between atoms: N_22  and  C_25
REMARK   13  A    between atoms: C_25  and  C_26
REMARK   14  A    between atoms: C_26  and  O_28
REMARK   15  A    between atoms: O_28  and  C_29
REMARK   16  A    between atoms: C_30  and  C_31
REMARK                            x       y       z     vdW  Elec       q    Type
REMARK                         _______ _______ _______ _____ _____    ______ ____
ROOT
ATOM      1  C   UNL     1      -1.241   2.061   0.019  0.00  0.00    +0.123 A 
ATOM      2  C   UNL     1      -0.025   1.357  -0.009  0.00  0.00    +0.116 A 
ATOM      3  N   UNL     1       1.146   2.060  -0.016  0.00  0.00    -0.277 N 
ATOM      4  C   UNL     1       1.154   3.401   0.009  0.00  0.00    +0.334 A 
ATOM      5  O   UNL     1       2.223   3.981   0.002  0.00  0.00    -0.246 OA
ATOM      6  N   UNL     1       0.025   4.128   0.043  0.00  0.00    -0.249 N 
ATOM      7  C   UNL     1      -1.183   3.528   0.053  0.00  0.00    +0.270 A 
ATOM      8  O   UNL     1      -2.204   4.190   0.083  0.00  0.00    -0.267 OA
ENDROOT
BRANCH   2   9
ATOM      9  N   UNL     1      -0.014  -0.004  -0.035  0.00  0.00    -0.344 N 
ATOM     10  H   UNL     1       0.756  -0.489   0.298  0.00  0.00    +0.144 HD
ATOM     11  H   UNL     1      -0.778  -0.488  -0.386  0.00  0.00    +0.144 HD
ENDBRANCH   2   9
BRANCH   1  12
ATOM     12  C   UNL     1      -2.477   1.381   0.022  0.00  0.00    +0.209 C 
ATOM     13  O   UNL     1      -2.503   0.169   0.107  0.00  0.00    -0.288 OA
BRANCH  12  14
ATOM     14  C   UNL     1      -3.764   2.157  -0.081  0.00  0.00    +0.311 C 
BRANCH  14  15
ATOM     15  O   UNL     1      -4.888   1.237  -0.057  0.00  0.00    -0.456 OA
BRANCH  15  16
ATOM     16  C   UNL     1      -6.116   1.772  -0.141  0.00  0.00    +0.318 C 
ATOM     17  O   UNL     1      -6.248   2.970  -0.231  0.00  0.00    -0.250 OA
BRANCH  16  18
ATOM     18  C   UNL     1      -7.330   0.879  -0.122  0.00  0.00    +0.194 C 
BRANCH  18  19
ATOM     19  S   UNL     1      -8.828   1.893  -0.250  0.00  0.00    -0.114 S 
BRANCH  19  24
ATOM     20  C   UNL     1     -13.328  -2.129  -0.131  0.00  0.00    +0.044 C 
ATOM     21  C   UNL     1     -12.204  -1.125  -0.161  0.00  0.00    -0.050 A 
ATOM     22  C   UNL     1     -10.892  -1.555  -0.082  0.00  0.00    +0.004 A 
ATOM     23  C   UNL     1      -9.860  -0.638  -0.109  0.00  0.00    +0.015 A 
ATOM     24  C   UNL     1     -10.142   0.719  -0.215  0.00  0.00    +0.011 A 
ATOM     25  C   UNL     1     -11.461   1.148  -0.289  0.00  0.00    -0.037 A 
ATOM     26  C   UNL     1     -12.488   0.225  -0.267  0.00  0.00    +0.007 A 
ATOM     27  C   UNL     1     -11.771   2.619  -0.399  0.00  0.00    +0.045 C 
ENDBRANCH  19  24
ENDBRANCH  18  19
ENDBRANCH  16  18
ENDBRANCH  15  16
ENDBRANCH  14  15
ENDBRANCH  12  14
ENDBRANCH   1  12
BRANCH   6  28
ATOM     28  C   UNL     1       0.107   5.590   0.070  0.00  0.00    +0.250 C 
BRANCH  28  29
ATOM     29  C   UNL     1       0.111   6.120  -1.341  0.00  0.00    +0.327 C 
ATOM     30  O   UNL     1       0.051   5.354  -2.273  0.00  0.00    -0.249 OA
BRANCH  29  31
ATOM     31  O   UNL     1       0.180   7.442  -1.562  0.00  0.00    -0.467 OA
ATOM     32  C   UNL     1       0.179   7.880  -2.946  0.00  0.00    +0.280 C 
ENDBRANCH  29  31
ENDBRANCH  28  29
ENDBRANCH   6  28
BRANCH   3  33
ATOM     33  C   UNL     1       2.419   1.335  -0.051  0.00  0.00    +0.163 C 
BRANCH  33  34
ATOM     34  C   UNL     1       2.831   1.112  -1.484  0.00  0.00    -0.028 A 
ATOM     35  C   UNL     1       2.432  -0.032  -2.148  0.00  0.00    +0.005 A 
ATOM     36  C   UNL     1       2.805  -0.234  -3.464  0.00  0.00    +0.000 A 
ATOM     37  C   UNL     1       3.587   0.704  -4.111  0.00  0.00    +0.000 A 
ATOM     38  C   UNL     1       3.991   1.846  -3.445  0.00  0.00    +0.000 A 
ATOM     39  C   UNL     1       3.612   2.050  -2.132  0.00  0.00    +0.005 A 
ENDBRANCH  33  34
ENDBRANCH   3  33
TORSDOF 13
