REMARK  Name = ZINC02250782
REMARK  14 active torsions:
REMARK  status: ('A' for Active; 'I' for Inactive)
REMARK    1  A    between atoms: C_1  and  C_2
REMARK    2  A    between atoms: C_2  and  O_3
REMARK    3  A    between atoms: O_3  and  C_4
REMARK    4  A    between atoms: C_4  and  C_6
REMARK    5  A    between atoms: C_12  and  C_13
REMARK    6  A    between atoms: C_16  and  N_19
REMARK    7  A    between atoms: N_19  and  C_20
REMARK    8  A    between atoms: N_19  and  C_21
REMARK    9  A    between atoms: C_23  and  N_38
REMARK   10  A    between atoms: C_24  and  C_36
REMARK   11  A    between atoms: C_25  and  C_27
REMARK   12  A    between atoms: C_30  and  N_33
REMARK   13  A    between atoms: N_33  and  C_34
REMARK   14  A    between atoms: N_33  and  C_35
REMARK                            x       y       z     vdW  Elec       q    Type
REMARK                         _______ _______ _______ _____ _____    ______ ____
ROOT
ATOM      1  C   UNL     1       3.253   1.048   1.201  0.00  0.00    +0.080 C 
ATOM      2  C   UNL     1       4.409   1.777   1.110  0.00  0.00    +0.100 A 
ATOM      3  N   UNL     1       4.863   2.371  -0.050  0.00  0.00    -0.257 N 
ATOM      4  C   UNL     1       6.020   3.060   0.012  0.00  0.00    +0.271 A 
ATOM      5  O   UNL     1       6.473   3.606  -0.977  0.00  0.00    -0.266 OA
ATOM      6  C   UNL     1       6.721   3.136   1.297  0.00  0.00    +0.079 A 
ATOM      7  C   UNL     1       7.886   3.762   1.609  0.00  0.00    +0.028 C 
ATOM      8  S   UNL     1       5.629   2.185   2.342  0.00  0.00    -0.065 S 
ATOM      9  C   UNL     1       4.112   2.234  -1.223  0.00  0.00    +0.118 C 
ATOM     10  C   UNL     1       2.952   1.547  -1.299  0.00  0.00    +0.079 C 
ATOM     11  C   UNL     1       2.414   0.878  -0.051  0.00  0.00    +0.102 C 
ENDROOT
BRANCH   7  12
ATOM     12  C   UNL     1       8.321   3.848   3.008  0.00  0.00    -0.024 A 
ATOM     13  C   UNL     1       7.380   3.763   4.043  0.00  0.00    +0.010 A 
ATOM     14  C   UNL     1       7.792   3.837   5.349  0.00  0.00    +0.023 A 
ATOM     15  C   UNL     1       9.141   4.009   5.646  0.00  0.00    +0.029 A 
ATOM     16  C   UNL     1      10.079   4.100   4.621  0.00  0.00    +0.023 A 
ATOM     17  C   UNL     1       9.677   4.021   3.313  0.00  0.00    +0.010 A 
BRANCH  15  18
ATOM     18  N   UNL     1       9.554   4.090   6.973  0.00  0.00    -0.336 N 
ATOM     19  C   UNL     1      10.983   4.108   7.296  0.00  0.00    +0.129 C 
ATOM     20  C   UNL     1       8.559   4.159   8.047  0.00  0.00    +0.129 C 
ENDBRANCH  15  18
ENDBRANCH   7  12
BRANCH  11  21
ATOM     21  C   UNL     1       1.039   1.429   0.225  0.00  0.00    -0.034 A 
ATOM     22  C   UNL     1      -0.052   0.581   0.252  0.00  0.00    +0.006 A 
ATOM     23  C   UNL     1      -1.315   1.084   0.498  0.00  0.00    +0.023 A 
ATOM     24  C   UNL     1      -1.486   2.443   0.731  0.00  0.00    +0.029 A 
ATOM     25  C   UNL     1      -0.387   3.293   0.703  0.00  0.00    +0.023 A 
ATOM     26  C   UNL     1       0.872   2.784   0.451  0.00  0.00    +0.006 A 
BRANCH  24  27
ATOM     27  N   UNL     1      -2.760   2.954   0.986  0.00  0.00    -0.336 N 
ATOM     28  C   UNL     1      -2.939   4.389   1.226  0.00  0.00    +0.129 C 
ATOM     29  C   UNL     1      -3.917   2.057   1.015  0.00  0.00    +0.129 C 
ENDBRANCH  24  27
ENDBRANCH  11  21
BRANCH   9  30
ATOM     30  N   UNL     1       4.584   2.834  -2.365  0.00  0.00    -0.343 N 
ATOM     31  H   UNL     1       3.964   3.115  -3.057  0.00  0.00    +0.144 HD
ATOM     32  H   UNL     1       5.536   2.977  -2.481  0.00  0.00    +0.144 HD
ENDBRANCH   9  30
BRANCH   1  33
ATOM     33  C   UNL     1       2.857   0.474   2.416  0.00  0.00    +0.339 C 
ATOM     34  O   UNL     1       3.544   0.622   3.412  0.00  0.00    -0.245 OA
BRANCH  33  35
ATOM     35  O   UNL     1       1.713  -0.242   2.485  0.00  0.00    -0.462 OA
BRANCH  35  37
ATOM     36  C   UNL     1       0.054  -1.568   3.638  0.00  0.00    +0.048 C 
ATOM     37  C   UNL     1       1.371  -0.797   3.756  0.00  0.00    +0.229 C 
ENDBRANCH  35  37
ENDBRANCH  33  35
ENDBRANCH   1  33
BRANCH  10  38
ATOM     38  C   UNL     1       2.242   1.453  -2.539  0.00  0.00    +0.099 C 
ATOM     39  N   UNL     1       1.679   1.378  -3.522  0.00  0.00    -0.191 NA
ENDBRANCH  10  38
TORSDOF 9
