REMARK  Name = ZINC04109008
REMARK  7 active torsions:
REMARK  status: ('A' for Active; 'I' for Inactive)
REMARK    1  A    between atoms: C_1  and  C_2
REMARK    2  A    between atoms: C_7  and  O_10
REMARK    3  A    between atoms: O_10  and  C_11
REMARK    4  A    between atoms: C_11  and  C_13
REMARK    5  A    between atoms: C_14  and  C_29
REMARK    6  A    between atoms: N_15  and  C_28
REMARK    7  A    between atoms: C_19  and  C_21
REMARK                            x       y       z     vdW  Elec       q    Type
REMARK                         _______ _______ _______ _____ _____    ______ ____
ROOT
ATOM      1  C   UNL     1       0.661   5.292  -1.974  0.00  0.00    +0.078 C 
ATOM      2  C   UNL     1       1.580   6.064  -2.593  0.00  0.00    +0.024 C 
ATOM      3  N   UNL     1       1.433   7.421  -2.656  0.00  0.00    -0.262 N 
ATOM      4  C   UNL     1       0.397   8.081  -2.123  0.00  0.00    +0.307 C 
ATOM      5  O   UNL     1       0.354   9.291  -2.230  0.00  0.00    -0.252 OA
ATOM      6  N   UNL     1      -0.599   7.448  -1.474  0.00  0.00    -0.288 N 
ATOM      7  C   UNL     1      -0.539   5.981  -1.357  0.00  0.00    +0.145 C 
ATOM      8  C   UNL     1       2.468   8.197  -3.343  0.00  0.00    +0.139 C 
ATOM      9  C   UNL     1       2.786   5.419  -3.226  0.00  0.00    +0.061 C 
ATOM     10  H   UNL     1      -1.341   7.946  -1.096  0.00  0.00    +0.151 HD
ENDROOT
BRANCH   7  11
ATOM     11  C   UNL     1      -0.570   5.635   0.110  0.00  0.00    -0.004 A 
ATOM     12  C   UNL     1       0.055   6.459   1.028  0.00  0.00    +0.007 A 
ATOM     13  C   UNL     1       0.027   6.142   2.373  0.00  0.00    +0.000 A 
ATOM     14  C   UNL     1      -0.626   5.001   2.801  0.00  0.00    +0.001 A 
ATOM     15  C   UNL     1      -1.252   4.178   1.885  0.00  0.00    +0.020 A 
ATOM     16  C   UNL     1      -1.228   4.497   0.539  0.00  0.00    +0.046 A 
ATOM     17 CL   UNL     1      -2.020   3.466  -0.612  0.00  0.00    -0.083 Cl
ENDBRANCH   7  11
BRANCH   1  18
ATOM     18  C   UNL     1       0.812   3.887  -1.908  0.00  0.00    +0.339 C 
ATOM     19  O   UNL     1       0.201   3.173  -2.681  0.00  0.00    -0.245 OA
BRANCH  18  20
ATOM     20  O   UNL     1       1.633   3.339  -0.988  0.00  0.00    -0.458 OA
BRANCH  20  26
ATOM     21  C   UNL     1       3.876   1.546   2.187  0.00  0.00    +0.007 C 
ATOM     22  C   UNL     1       3.497   2.068   0.799  0.00  0.00    -0.011 C 
ATOM     23  C   UNL     1       4.616   1.740  -0.192  0.00  0.00    +0.003 C 
ATOM     24  C   UNL     1       4.237   2.262  -1.579  0.00  0.00    +0.004 C 
ATOM     25  C   UNL     1       2.938   1.596  -2.038  0.00  0.00    +0.045 C 
ATOM     26  C   UNL     1       1.819   1.923  -1.046  0.00  0.00    +0.177 C 
ATOM     27  C   UNL     1       2.198   1.401   0.341  0.00  0.00    +0.048 C 
ENDBRANCH  20  26
ENDBRANCH  18  20
ENDBRANCH   1  18
TORSDOF 4
