REMARK  Name = ZINC43641761
REMARK  8 active torsions:
REMARK  status: ('A' for Active; 'I' for Inactive)
REMARK    1  A    between atoms: C_1  and  C_2
REMARK    2  A    between atoms: C_2  and  O_3
REMARK    3  A    between atoms: O_3  and  C_4
REMARK    4  A    between atoms: C_4  and  C_5
REMARK    5  A    between atoms: C_5  and  C_6
REMARK    6  A    between atoms: C_6  and  N_7
REMARK    7  A    between atoms: N_12  and  C_20
REMARK    8  A    between atoms: C_20  and  C_21
REMARK                            x       y       z     vdW  Elec       q    Type
REMARK                         _______ _______ _______ _____ _____    ______ ____
ROOT
ATOM      1  N   UNL     1       2.333  -4.192   3.833  0.00  0.00    -0.298 N 
ATOM      2  C   UNL     1       3.761  -4.451   3.726  0.00  0.00    +0.076 C 
ATOM      3  C   UNL     1       4.077  -5.187   2.425  0.00  0.00    +0.004 C 
ATOM      4  C   UNL     1       3.482  -6.596   2.475  0.00  0.00    -0.077 C 
ATOM      5  N   UNL     1       4.057  -7.327   3.611  0.00  0.00    +0.383 N 
ATOM      6  C   UNL     1       3.668  -6.674   4.866  0.00  0.00    -0.073 C 
ATOM      7  C   UNL     1       4.253  -5.282   4.910  0.00  0.00    -0.007 C 
ATOM      8  C   UNL     1       3.770  -4.617   6.205  0.00  0.00    +0.013 C 
ATOM      9  C   UNL     1       2.245  -4.735   6.270  0.00  0.00    +0.096 C 
ATOM     10  C   UNL     1       1.645  -4.270   4.973  0.00  0.00    +0.216 C 
ATOM     11  O   UNL     1       0.465  -3.988   4.953  0.00  0.00    -0.276 OA
ATOM     12  H   UNL     1       5.063  -7.333   3.533  0.00  0.00    -0.081 HD
ENDROOT
BRANCH   1  13
ATOM     13  C   UNL     1       1.609  -3.818   2.616  0.00  0.00    +0.110 C 
BRANCH  13  14
ATOM     14  C   UNL     1       1.754  -2.313   2.378  0.00  0.00    +0.047 C 
BRANCH  14  15
ATOM     15  C   UNL     1       0.998  -1.922   1.107  0.00  0.00    +0.161 C 
BRANCH  15  16
ATOM     16  O   UNL     1       1.134  -0.517   0.885  0.00  0.00    -0.380 OA
BRANCH  16  18
ATOM     17  C   UNL     1       0.673   1.464  -0.420  0.00  0.00    +0.034 C 
ATOM     18  C   UNL     1       0.460  -0.045  -0.283  0.00  0.00    +0.156 C 
ENDBRANCH  16  18
ENDBRANCH  15  16
ENDBRANCH  14  15
ENDBRANCH  13  14
ENDBRANCH   1  13
BRANCH   5  19
ATOM     19  C   UNL     1       3.559  -8.710   3.605  0.00  0.00    -0.036 C 
BRANCH  19  20
ATOM     20  C   UNL     1       4.064  -9.420   2.376  0.00  0.00    -0.026 A 
ATOM     21  C   UNL     1       5.195 -10.126   2.231  0.00  0.00    +0.017 A 
ATOM     22  C   UNL     1       5.494 -10.737   0.944  0.00  0.00    -0.011 A 
ATOM     23  C   UNL     1       6.616 -11.515   0.573  0.00  0.00    +0.009 A 
ATOM     24  C   UNL     1       6.732 -12.009  -0.688  0.00  0.00    +0.001 A 
ATOM     25  C   UNL     1       5.762 -11.772  -1.653  0.00  0.00    +0.001 A 
ATOM     26  C   UNL     1       4.651 -11.018  -1.330  0.00  0.00    +0.015 A 
ATOM     27  C   UNL     1       4.522 -10.511  -0.054  0.00  0.00    +0.020 A 
ATOM     28  S   UNL     1       3.297  -9.528   0.770  0.00  0.00    -0.095 S 
ENDBRANCH  19  20
ENDBRANCH   5  19
TORSDOF 7
