REMARK  Name = ZINC05271705
REMARK  5 active torsions:
REMARK  status: ('A' for Active; 'I' for Inactive)
REMARK    1  A    between atoms: C_1  and  C_2
REMARK    2  A    between atoms: C_5  and  C_9
REMARK    3  A    between atoms: C_6  and  C_8
REMARK    4  A    between atoms: N_11  and  N_12
REMARK    5  A    between atoms: C_13  and  C_15
REMARK                            x       y       z     vdW  Elec       q    Type
REMARK                         _______ _______ _______ _____ _____    ______ ____
ROOT
ATOM      1  N   UNL     1      -1.699   3.465   1.022  0.00  0.00    -0.234 N 
ATOM      2  C   UNL     1      -1.738   2.160   0.689  0.00  0.00    +0.235 C 
ATOM      3  O   UNL     1      -2.154   1.344   1.484  0.00  0.00    -0.274 OA
ATOM      4  H   UNL     1      -1.366   4.118   0.386  0.00  0.00    +0.173 HD
ENDROOT
BRANCH   2   5
ATOM      5  C   UNL     1      -1.265   1.714  -0.671  0.00  0.00    +0.049 C 
ATOM      6  C   UNL     1       0.206   2.097  -0.850  0.00  0.00    +0.019 C 
ATOM      7  C   UNL     1       0.686   1.645  -2.230  0.00  0.00    -0.009 C 
ATOM      8  C   UNL     1       0.536   0.127  -2.350  0.00  0.00    +0.007 C 
ATOM      9  C   UNL     1      -0.934  -0.256  -2.171  0.00  0.00    -0.009 C 
ATOM     10  C   UNL     1      -1.415   0.196  -0.791  0.00  0.00    +0.019 C 
ATOM     11  C   UNL     1      -1.774   0.427  -3.252  0.00  0.00    +0.007 C 
ATOM     12  C   UNL     1      -1.624   1.944  -3.132  0.00  0.00    -0.009 C 
ATOM     13  C   UNL     1      -0.153   2.327  -3.311  0.00  0.00    +0.007 C 
ATOM     14  C   UNL     1      -2.105   2.397  -1.752  0.00  0.00    +0.019 C 
ENDBRANCH   2   5
BRANCH   1  17
ATOM     15  C   UNL     1      -2.100   5.185   2.619  0.00  0.00    +0.260 C 
ATOM     16  O   UNL     1      -1.682   6.003   1.822  0.00  0.00    -0.269 OA
ATOM     17  N   UNL     1      -2.139   3.879   2.286  0.00  0.00    -0.230 N 
ATOM     18  H   UNL     1      -2.472   3.227   2.921  0.00  0.00    +0.173 HD
BRANCH  15  23
ATOM     19  C   UNL     1      -3.907   6.886   7.811  0.00  0.00    +0.044 C 
ATOM     20  C   UNL     1      -3.434   6.441   6.451  0.00  0.00    -0.050 A 
ATOM     21  C   UNL     1      -3.595   5.122   6.063  0.00  0.00    +0.004 A 
ATOM     22  C   UNL     1      -3.164   4.708   4.820  0.00  0.00    +0.013 A 
ATOM     23  C   UNL     1      -2.564   5.622   3.952  0.00  0.00    +0.041 A 
ATOM     24  C   UNL     1      -2.400   6.949   4.351  0.00  0.00    -0.038 A 
ATOM     25  C   UNL     1      -2.840   7.352   5.596  0.00  0.00    +0.007 A 
ATOM     26  C   UNL     1      -1.748   7.942   3.423  0.00  0.00    +0.044 C 
ENDBRANCH  15  23
ENDBRANCH   1  17
TORSDOF 3
