REMARK  Name = ZINC67357589
REMARK  3 active torsions:
REMARK  status: ('A' for Active; 'I' for Inactive)
REMARK    1  A    between atoms: C_5  and  C_7
REMARK    2  A    between atoms: N_16  and  C_17
REMARK    3  A    between atoms: C_20  and  O_23
REMARK                            x       y       z     vdW  Elec       q    Type
REMARK                         _______ _______ _______ _____ _____    ______ ____
ROOT
ATOM      1  C   UNL     1       1.231  -2.186  -0.021  0.00  0.00    +0.168 C 
ATOM      2  C   UNL     1       1.345  -2.688  -1.465  0.00  0.00    +0.145 C 
ATOM      3  N   UNL     1       1.174  -4.150  -1.463  0.00  0.00    -0.281 N 
ATOM      4  C   UNL     1       0.009  -4.709  -0.760  0.00  0.00    +0.137 C 
ATOM      5  C   UNL     1      -0.040  -4.109   0.649  0.00  0.00    +0.179 C 
ATOM      6  O   UNL     1       0.022  -2.683   0.557  0.00  0.00    -0.369 OA
ATOM      7  C   UNL     1       2.059  -4.953  -2.086  0.00  0.00    +0.303 C 
ATOM      8  O   UNL     1       2.965  -4.469  -2.737  0.00  0.00    -0.253 OA
ATOM      9  N   UNL     1       1.941  -6.292  -1.988  0.00  0.00    -0.296 N 
ATOM     10  H   UNL     1       1.178  -6.678  -1.530  0.00  0.00    +0.151 HD
ENDROOT
BRANCH   1  15
ATOM     11  C   UNL     1      -0.014   1.378   0.013  0.00  0.00    +0.001 A 
ATOM     12  C   UNL     1       1.174   2.087   0.003  0.00  0.00    +0.003 A 
ATOM     13  C   UNL     1       2.380   1.414  -0.014  0.00  0.00    +0.039 A 
ATOM     14  C   UNL     1       2.400   0.029  -0.021  0.00  0.00    +0.129 A 
ATOM     15  C   UNL     1       1.211  -0.679  -0.012  0.00  0.00    +0.018 A 
ATOM     16  C   UNL     1       0.005  -0.004   0.005  0.00  0.00    +0.009 A 
ATOM     17  F   UNL     1       3.580  -0.630  -0.038  0.00  0.00    -0.205 F 
ENDBRANCH   1  15
BRANCH   9  18
ATOM     18  C   UNL     1       2.964  -7.163  -2.571  0.00  0.00    +0.075 C 
ATOM     19  C   UNL     1       2.655  -7.391  -4.052  0.00  0.00    +0.025 C 
ATOM     20  C   UNL     1       1.282  -8.053  -4.191  0.00  0.00    +0.033 C 
ATOM     21  C   UNL     1       1.287  -9.396  -3.457  0.00  0.00    +0.115 C 
ATOM     22  C   UNL     1       1.596  -9.167  -1.976  0.00  0.00    +0.033 C 
ATOM     23  C   UNL     1       2.969  -8.505  -1.838  0.00  0.00    +0.025 C 
BRANCH  21  24
ATOM     24  O   UNL     1       0.005 -10.014  -3.587  0.00  0.00    -0.392 OA
ATOM     25  H   UNL     1      -0.064 -10.871  -3.145  0.00  0.00    +0.210 HD
ENDBRANCH  21  24
ENDBRANCH   9  18
TORSDOF 3
