REMARK  Name = ZINC03634558
REMARK  6 active torsions:
REMARK  status: ('A' for Active; 'I' for Inactive)
REMARK    1  A    between atoms: C_1  and  C_2
REMARK    2  A    between atoms: C_8  and  C_13
REMARK    3  A    between atoms: C_9  and  O_12
REMARK    4  A    between atoms: C_13  and  C_15
REMARK    5  A    between atoms: C_13  and  N_23
REMARK    6  A    between atoms: N_23  and  C_24
REMARK                            x       y       z     vdW  Elec       q    Type
REMARK                         _______ _______ _______ _____ _____    ______ ____
ROOT
ATOM      1  C   UNL     1       0.342   3.135   7.006  0.00  0.00    +0.137 C 
ENDROOT
BRANCH   1   9
ATOM      2  C   UNL     1      -3.762  -1.303   2.912  0.00  0.00    +0.065 C 
ATOM      3  C   UNL     1      -3.292   0.094   3.228  0.00  0.00    +0.039 A 
ATOM      4  C   UNL     1      -3.771   1.159   2.468  0.00  0.00    +0.023 A 
ATOM      5  C   UNL     1      -3.358   2.432   2.744  0.00  0.00    +0.012 A 
ATOM      6  C   UNL     1      -2.442   2.620   3.796  0.00  0.00    +0.004 A 
ATOM      7  C   UNL     1      -1.970   3.899   4.134  0.00  0.00    +0.010 A 
ATOM      8  C   UNL     1      -1.085   4.043   5.159  0.00  0.00    +0.010 A 
ATOM      9  C   UNL     1      -0.638   2.938   5.879  0.00  0.00    +0.021 A 
ATOM     10  C   UNL     1      -1.074   1.679   5.579  0.00  0.00    +0.148 A 
ATOM     11  C   UNL     1      -1.992   1.492   4.524  0.00  0.00    +0.113 A 
ATOM     12  N   UNL     1      -2.438   0.273   4.207  0.00  0.00    -0.248 NA
BRANCH  10  13
ATOM     13  O   UNL     1      -0.627   0.614   6.293  0.00  0.00    -0.504 OA
ATOM     14  H   UNL     1       0.127   0.160   5.892  0.00  0.00    +0.292 HD
ENDBRANCH  10  13
ENDBRANCH   1   9
BRANCH   1  15
ATOM     15  C   UNL     1       0.964   4.503   6.898  0.00  0.00    -0.003 A 
ATOM     16  C   UNL     1       0.429   5.564   7.606  0.00  0.00    +0.007 A 
ATOM     17  C   UNL     1       1.002   6.818   7.511  0.00  0.00    +0.002 A 
ATOM     18  C   UNL     1       2.105   7.016   6.701  0.00  0.00    +0.021 A 
ATOM     19  C   UNL     1       2.638   5.957   5.989  0.00  0.00    +0.060 A 
ATOM     20  C   UNL     1       2.067   4.700   6.087  0.00  0.00    +0.064 A 
ATOM     21 CL   UNL     1       2.736   3.370   5.194  0.00  0.00    -0.082 Cl
ATOM     22 CL   UNL     1       4.023   6.205   4.971  0.00  0.00    -0.082 Cl
ENDBRANCH   1  15
BRANCH   1  23
ATOM     23  N   UNL     1      -0.357   3.017   8.288  0.00  0.00    -0.320 N 
ATOM     24  H   UNL     1      -1.315   3.166   8.334  0.00  0.00    +0.148 HD
BRANCH  23  25
ATOM     25  C   UNL     1       0.350   2.689   9.439  0.00  0.00    +0.097 A 
ATOM     26  C   UNL     1       1.723   2.470   9.365  0.00  0.00    +0.041 A 
ATOM     27  C   UNL     1       2.415   2.152  10.519  0.00  0.00    +0.005 A 
ATOM     28  C   UNL     1       1.708   2.051  11.710  0.00  0.00    +0.018 A 
ATOM     29  C   UNL     1       0.347   2.275  11.709  0.00  0.00    +0.084 A 
ATOM     30  N   UNL     1      -0.366   2.596  10.596  0.00  0.00    -0.350 N 
ATOM     31  H   UNL     1      -1.379   2.759  10.625  0.00  0.00    +0.166 HD
ENDBRANCH  23  25
ENDBRANCH   1  23
TORSDOF 5
