REMARK  Name = ZINC54533989
REMARK  3 active torsions:
REMARK  status: ('A' for Active; 'I' for Inactive)
REMARK    1  A    between atoms: C_1  and  C_2
REMARK    2  A    between atoms: C_2  and  C_3
REMARK    3  A    between atoms: C_11  and  C_20
REMARK                            x       y       z     vdW  Elec       q    Type
REMARK                         _______ _______ _______ _____ _____    ______ ____
ROOT
ATOM      1  C   UNL     1      -3.545  -0.552   1.218  0.00  0.00    +0.006 C 
ATOM      2  C   UNL     1      -2.674  -1.013   2.389  0.00  0.00    +0.006 C 
ATOM      3  C   UNL     1      -2.661  -2.542   2.446  0.00  0.00    +0.019 C 
ATOM      4  C   UNL     1      -2.059  -3.093   1.149  0.00  0.00    +0.106 C 
ATOM      5  N   UNL     1      -2.802  -2.538   0.010  0.00  0.00    -0.316 N 
ATOM      6  C   UNL     1      -2.954  -1.080  -0.093  0.00  0.00    +0.110 C 
ATOM      7  C   UNL     1      -3.349  -3.371  -0.947  0.00  0.00    +0.113 A 
ATOM      8  C   UNL     1      -2.626  -3.664  -2.118  0.00  0.00    +0.101 A 
ATOM      9  C   UNL     1      -3.212  -4.507  -3.068  0.00  0.00    +0.023 A 
ATOM     10  C   UNL     1      -4.477  -5.023  -2.818  0.00  0.00    -0.027 A 
ATOM     11  C   UNL     1      -5.123  -4.697  -1.644  0.00  0.00    +0.021 A 
ATOM     12  N   UNL     1      -4.546  -3.894  -0.758  0.00  0.00    -0.346 N 
ATOM     13  C   UNL     1      -6.489  -5.236  -1.302  0.00  0.00    +0.053 C 
ATOM     14  C   UNL     1      -7.188  -5.763  -2.553  0.00  0.00    +0.006 C 
ATOM     15  C   UNL     1      -6.237  -6.730  -3.268  0.00  0.00    +0.005 C 
ATOM     16  C   UNL     1      -5.085  -5.921  -3.862  0.00  0.00    +0.037 C 
ATOM     17  H   UNL     1      -5.024  -3.681   0.058  0.00  0.00    +0.167 HD
ENDROOT
BRANCH   8  18
ATOM     18  C   UNL     1      -1.287  -3.097  -2.339  0.00  0.00    +0.390 C 
ATOM     19  O   UNL     1      -0.715  -3.275  -3.405  0.00  0.00    -0.240 OA
ATOM     20  O   UNL     1      -0.745  -2.447  -1.455  0.00  0.00    -0.240 OA
ENDBRANCH   8  18
BRANCH   1  22
ATOM     21  C   UNL     1      -4.286   1.500   2.437  0.00  0.00    +0.004 C 
ATOM     22  C   UNL     1      -3.584   0.977   1.182  0.00  0.00    +0.002 C 
ENDBRANCH   1  22
TORSDOF 2
