REMARK  Name = ZINC55527780
REMARK  6 active torsions:
REMARK  status: ('A' for Active; 'I' for Inactive)
REMARK    1  A    between atoms: C_3  and  C_6
REMARK    2  A    between atoms: C_8  and  C_11
REMARK    3  A    between atoms: C_11  and  N_12
REMARK    4  A    between atoms: N_12  and  C_13
REMARK    5  A    between atoms: C_13  and  C_15
REMARK    6  A    between atoms: C_13  and  C_22
REMARK                            x       y       z     vdW  Elec       q    Type
REMARK                         _______ _______ _______ _____ _____    ______ ____
ROOT
ATOM      1  N   UNL     1       6.802  -1.956   1.293  0.00  0.00    -0.300 NA
ATOM      2  H   UNL     1       7.169  -1.222   1.880  0.00  0.00    +0.123 HD
ENDROOT
BRANCH   1   3
ATOM      3  C   UNL     1       6.592  -1.478  -0.080  0.00  0.00    +0.138 C 
BRANCH   3   6
ATOM      4  C   UNL     1       3.567   0.618  -0.029  0.00  0.00    +0.144 A 
ATOM      5  N   UNL     1       4.385  -0.428  -0.048  0.00  0.00    -0.240 NA
ATOM      6  C   UNL     1       5.689  -0.272  -0.059  0.00  0.00    +0.063 A 
ATOM      7  C   UNL     1       6.222   0.978  -0.051  0.00  0.00    +0.072 A 
ATOM      8  S   UNL     1       4.735   1.972  -0.034  0.00  0.00    -0.072 S 
BRANCH   4  11
ATOM      9  C   UNL     1      -0.016   1.344   0.009  0.00  0.00    +0.042 A 
ATOM     10  C   UNL     1       1.324   1.776  -0.001  0.00  0.00    +0.052 A 
ATOM     11  C   UNL     1       2.097   0.654  -0.015  0.00  0.00    +0.160 A 
ATOM     12  O   UNL     1       1.279  -0.418  -0.012  0.00  0.00    -0.461 OA
ATOM     13  C   UNL     1       0.002  -0.004   0.002  0.00  0.00    +0.196 A 
ENDBRANCH   4  11
ENDBRANCH   3   6
ENDBRANCH   1   3
BRANCH   1  14
ATOM     14  C   UNL     1       7.681  -3.134   1.312  0.00  0.00    +0.122 C 
BRANCH  14  15
ATOM     15  C   UNL     1       7.403  -3.948   2.549  0.00  0.00    -0.025 A 
ATOM     16  C   UNL     1       7.161  -3.313   3.753  0.00  0.00    +0.008 A 
ATOM     17  C   UNL     1       6.906  -4.058   4.889  0.00  0.00    +0.038 A 
ATOM     18  C   UNL     1       6.894  -5.441   4.820  0.00  0.00    +0.123 A 
ATOM     19  C   UNL     1       7.137  -6.076   3.614  0.00  0.00    +0.038 A 
ATOM     20  C   UNL     1       7.386  -5.328   2.479  0.00  0.00    +0.008 A 
ATOM     21  F   UNL     1       6.645  -6.171   5.930  0.00  0.00    -0.205 F 
ENDBRANCH  14  15
BRANCH  14  22
ATOM     22  C   UNL     1       9.120  -2.687   1.316  0.00  0.00    +0.011 A 
ATOM     23  C   UNL     1      10.178  -3.208   0.648  0.00  0.00    +0.013 A 
ATOM     24  C   UNL     1      11.422  -2.627   0.805  0.00  0.00    +0.008 A 
ATOM     25  C   UNL     1      11.548  -1.553   1.622  0.00  0.00    +0.045 A 
ATOM     26  S   UNL     1       9.872  -1.329   2.197  0.00  0.00    -0.100 S 
ENDBRANCH  14  22
ENDBRANCH   1  14
TORSDOF 6
