REMARK  Name = ZINC40327350
REMARK  8 active torsions:
REMARK  status: ('A' for Active; 'I' for Inactive)
REMARK    1  A    between atoms: C_1  and  C_2
REMARK    2  A    between atoms: C_5  and  C_8
REMARK    3  A    between atoms: C_8  and  C_10
REMARK    4  A    between atoms: C_8  and  N_26
REMARK    5  A    between atoms: C_10  and  N_11
REMARK    6  A    between atoms: C_12  and  C_14
REMARK    7  A    between atoms: C_15  and  C_20
REMARK    8  A    between atoms: C_17  and  C_19
REMARK                            x       y       z     vdW  Elec       q    Type
REMARK                         _______ _______ _______ _____ _____    ______ ____
ROOT
ATOM      1  C   UNL     1      -0.716  -4.989  -0.216  0.00  0.00    +0.094 C 
ENDROOT
BRANCH   1   2
ATOM      2  N   UNL     1      -1.742  -4.510  -1.145  0.00  0.00    -0.311 N 
ATOM      3  C   UNL     1      -3.006  -4.967  -1.047  0.00  0.00    +0.264 C 
ATOM      4  O   UNL     1      -3.295  -5.778  -0.188  0.00  0.00    -0.268 OA
ATOM      5  H   UNL     1      -1.512  -3.863  -1.830  0.00  0.00    +0.149 HD
BRANCH   3   6
ATOM      6  C   UNL     1      -4.036  -4.486  -1.980  0.00  0.00    +0.140 A 
ATOM      7  C   UNL     1      -5.360  -4.934  -1.923  0.00  0.00    +0.051 A 
ATOM      8  S   UNL     1      -6.075  -4.006  -3.271  0.00  0.00    -0.072 S 
ATOM      9  C   UNL     1      -4.692  -3.180  -3.753  0.00  0.00    +0.077 A 
ATOM     10  N   UNL     1      -3.772  -3.595  -2.927  0.00  0.00    -0.239 NA
ATOM     11  C   UNL     1      -4.550  -2.185  -4.876  0.00  0.00    +0.073 C 
BRANCH   7  12
ATOM     12  C   UNL     1      -5.991  -5.904  -1.005  0.00  0.00    -0.009 A 
ATOM     13  C   UNL     1      -5.909  -5.717   0.377  0.00  0.00    +0.009 A 
ATOM     14  C   UNL     1      -6.500  -6.627   1.228  0.00  0.00    +0.001 A 
ATOM     15  C   UNL     1      -7.173  -7.722   0.717  0.00  0.00    +0.000 A 
ATOM     16  C   UNL     1      -7.257  -7.914  -0.651  0.00  0.00    +0.001 A 
ATOM     17  C   UNL     1      -6.676  -7.008  -1.514  0.00  0.00    +0.009 A 
ENDBRANCH   7  12
ENDBRANCH   3   6
ENDBRANCH   1   2
BRANCH   1  18
ATOM     18  C   UNL     1       0.586  -4.221  -0.453  0.00  0.00    -0.020 C 
BRANCH  18  19
ATOM     19  N   UNL     1       1.627  -4.731   0.449  0.00  0.00    +0.385 N 
ATOM     20  C   UNL     1       2.850  -3.926   0.263  0.00  0.00    -0.078 C 
ATOM     21  C   UNL     1       3.670  -4.011   1.526  0.00  0.00    -0.019 C 
ATOM     22  C   UNL     1       4.753  -5.100   1.423  0.00  0.00    -0.002 C 
ATOM     23  C   UNL     1       4.224  -6.370   0.726  0.00  0.00    -0.002 C 
ATOM     24  C   UNL     1       2.828  -6.727   1.167  0.00  0.00    -0.019 C 
ATOM     25  C   UNL     1       1.814  -6.090   0.194  0.00  0.00    -0.078 C 
ATOM     26  H   UNL     1       1.311  -4.621   1.401  0.00  0.00    -0.081 HD
ENDBRANCH  18  19
BRANCH  18  31
ATOM     27  C   UNL     1      -0.281   1.398   0.585  0.00  0.00    +0.044 C 
ATOM     28  C   UNL     1      -0.055  -0.067   0.314  0.00  0.00    -0.050 A 
ATOM     29  C   UNL     1      -0.053  -0.538  -0.986  0.00  0.00    +0.003 A 
ATOM     30  C   UNL     1       0.154  -1.882  -1.234  0.00  0.00    +0.002 A 
ATOM     31  C   UNL     1       0.360  -2.755  -0.182  0.00  0.00    -0.059 A 
ATOM     32  C   UNL     1       0.359  -2.284   1.117  0.00  0.00    +0.002 A 
ATOM     33  C   UNL     1       0.156  -0.940   1.365  0.00  0.00    +0.003 A 
ENDBRANCH  18  31
ENDBRANCH   1  18
TORSDOF 6
