REMARK  Name = ZINC11286286
REMARK  9 active torsions:
REMARK  status: ('A' for Active; 'I' for Inactive)
REMARK    1  A    between atoms: C_1  and  C_2
REMARK    2  A    between atoms: C_6  and  C_36
REMARK    3  A    between atoms: C_7  and  N_8
REMARK    4  A    between atoms: C_9  and  C_11
REMARK    5  A    between atoms: C_11  and  N_12
REMARK    6  A    between atoms: N_12  and  C_13
REMARK    7  A    between atoms: C_14  and  C_16
REMARK    8  A    between atoms: C_16  and  N_73
REMARK    9  A    between atoms: C_29  and  C_31
REMARK                            x       y       z     vdW  Elec       q    Type
REMARK                         _______ _______ _______ _____ _____    ______ ____
ROOT
ATOM      1  C   UNL     1      -2.857  -4.773   3.867  0.00  0.00    -0.066 C 
ATOM      2  C   UNL     1      -3.185  -5.245   5.281  0.00  0.00    -0.019 C 
ATOM      3  C   UNL     1      -4.316  -6.291   5.230  0.00  0.00    +0.010 C 
ATOM      4  C   UNL     1      -3.573  -7.651   5.236  0.00  0.00    +0.001 C 
ATOM      5  C   UNL     1      -2.391  -7.392   6.204  0.00  0.00    +0.001 C 
ATOM      6  C   UNL     1      -1.963  -5.941   5.898  0.00  0.00    +0.010 C 
ATOM      7  C   UNL     1      -3.606  -4.086   6.142  0.00  0.00    -0.038 A 
ATOM      8  C   UNL     1      -3.611  -4.247   7.519  0.00  0.00    +0.053 A 
ATOM      9  C   UNL     1      -3.996  -3.205   8.348  0.00  0.00    +0.162 A 
ATOM     10  C   UNL     1      -4.380  -1.990   7.792  0.00  0.00    +0.162 A 
ATOM     11  C   UNL     1      -4.374  -1.835   6.415  0.00  0.00    +0.051 A 
ATOM     12  C   UNL     1      -3.985  -2.880   5.590  0.00  0.00    -0.054 A 
ATOM     13  C   UNL     1      -3.990  -2.657   4.100  0.00  0.00    -0.040 C 
ATOM     14  C   UNL     1      -5.252  -1.883   3.711  0.00  0.00    -0.008 C 
ATOM     15  O   UNL     1      -4.756  -0.956   8.582  0.00  0.00    -0.485 OA
ATOM     16  C   UNL     1      -5.037  -1.196   9.952  0.00  0.00    +0.270 C 
ATOM     17  C   UNL     1      -4.112  -2.250  10.540  0.00  0.00    +0.270 C 
ATOM     18  O   UNL     1      -3.999  -3.382   9.692  0.00  0.00    -0.485 OA
ATOM     19  N   UNL     1      -3.990  -3.948   3.393  0.00  0.00    +0.390 N 
ATOM     20  H   UNL     1      -4.869  -4.440   3.592  0.00  0.00    -0.080 HD
ENDROOT
BRANCH  19  21
ATOM     21  C   UNL     1      -3.881  -3.728   1.934  0.00  0.00    +0.020 C 
BRANCH  21  24
ATOM     22  N   UNL     1      -2.245  -2.823   0.314  0.00  0.00    -0.297 N 
ATOM     23  C   UNL     1      -3.207  -3.119  -0.750  0.00  0.00    +0.132 C 
ATOM     24  C   UNL     1      -2.550  -3.107   1.596  0.00  0.00    +0.199 C 
ATOM     25  O   UNL     1      -1.754  -2.862   2.477  0.00  0.00    -0.278 OA
BRANCH  22  26
ATOM     26  C   UNL     1      -0.952  -2.219  -0.015  0.00  0.00    +0.203 C 
BRANCH  26  28
ATOM     27  N   UNL     1      -0.002   0.053  -0.246  0.00  0.00    -0.284 N 
ATOM     28  C   UNL     1      -1.074  -0.718   0.025  0.00  0.00    +0.235 C 
ATOM     29  O   UNL     1      -2.137  -0.203   0.300  0.00  0.00    -0.274 OA
ATOM     30  H   UNL     1       0.829  -0.356  -0.536  0.00  0.00    +0.155 HD
BRANCH  27  37
ATOM     31  C   UNL     1      -2.021   1.426  -1.707  0.00  0.00    +0.045 C 
ATOM     32  C   UNL     1      -1.058   2.152  -0.804  0.00  0.00    -0.029 A 
ATOM     33  C   UNL     1      -1.142   3.524  -0.663  0.00  0.00    +0.005 A 
ATOM     34  C   UNL     1      -0.255   4.191   0.160  0.00  0.00    +0.001 A 
ATOM     35  C   UNL     1       0.717   3.489   0.850  0.00  0.00    +0.005 A 
ATOM     36  C   UNL     1       0.803   2.116   0.717  0.00  0.00    -0.029 A 
ATOM     37  C   UNL     1      -0.087   1.443  -0.110  0.00  0.00    +0.039 A 
ATOM     38  C   UNL     1       1.863   1.351   1.467  0.00  0.00    +0.045 C 
ENDBRANCH  27  37
ENDBRANCH  26  28
ENDBRANCH  22  26
ENDBRANCH  21  24
ENDBRANCH  19  21
TORSDOF 5
