REMARK  Name = ZINC21265406
REMARK  10 active torsions:
REMARK  status: ('A' for Active; 'I' for Inactive)
REMARK    1  A    between atoms: C_1  and  C_2
REMARK    2  A    between atoms: C_2  and  C_3
REMARK    3  A    between atoms: N_9  and  S_10
REMARK    4  A    between atoms: S_10  and  C_13
REMARK    5  A    between atoms: C_16  and  N_19
REMARK    6  A    between atoms: C_20  and  C_22
REMARK    7  A    between atoms: C_22  and  N_23
REMARK    8  A    between atoms: N_26  and  C_29
REMARK    9  A    between atoms: C_33  and  C_36
REMARK   10  A    between atoms: C_34  and  C_35
REMARK                            x       y       z     vdW  Elec       q    Type
REMARK                         _______ _______ _______ _____ _____    ______ ____
ROOT
ATOM      1  N   UNL     1      -2.293   3.773   0.146  0.00  0.00    -0.287 N 
ATOM      2  C   UNL     1      -0.963   3.562   0.195  0.00  0.00    +0.201 C 
ATOM      3  O   UNL     1      -0.529   2.430   0.230  0.00  0.00    -0.278 OA
ATOM      4  H   UNL     1      -2.691   4.796   0.219  0.00  0.00    +0.155 HD
ENDROOT
BRANCH   1   8
ATOM      5  C   UNL     1      -4.898   0.550  -0.284  0.00  0.00    +0.106 A 
ATOM      6  C   UNL     1      -5.286   1.659   0.447  0.00  0.00    +0.030 A 
ATOM      7  C   UNL     1      -4.425   2.728   0.591  0.00  0.00    +0.025 A 
ATOM      8  C   UNL     1      -3.168   2.691   0.001  0.00  0.00    +0.033 A 
ATOM      9  C   UNL     1      -2.784   1.579  -0.737  0.00  0.00    +0.025 A 
ATOM     10  C   UNL     1      -3.648   0.510  -0.873  0.00  0.00    +0.030 A 
BRANCH   5  11
ATOM     11  S   UNL     1      -6.000  -0.812  -0.466  0.00  0.00    +0.061 S 
ATOM     12  O   UNL     1      -5.193  -1.978  -0.562  0.00  0.00    -0.153 OA
ATOM     13  O   UNL     1      -7.003  -0.660   0.529  0.00  0.00    -0.153 OA
BRANCH  11  19
ATOM     14  C   UNL     1      -7.912   0.256  -2.073  0.00  0.00    +0.080 C 
ATOM     15  C   UNL     1      -9.072  -0.524  -2.688  0.00  0.00    +0.021 C 
ATOM     16  C   UNL     1      -8.612  -1.172  -3.997  0.00  0.00    +0.003 C 
ATOM     17  C   UNL     1      -7.469  -2.148  -3.710  0.00  0.00    +0.017 C 
ATOM     18  C   UNL     1      -6.287  -1.381  -3.107  0.00  0.00    +0.110 C 
ATOM     19  N   UNL     1      -6.756  -0.639  -1.930  0.00  0.00    -0.174 NA
BRANCH  14  21
ATOM     20  C   UNL     1      -9.369   1.891  -0.870  0.00  0.00    +0.005 C 
ATOM     21  C   UNL     1      -8.325   0.786  -0.698  0.00  0.00    +0.017 C 
ENDBRANCH  14  21
ENDBRANCH  11  19
ENDBRANCH   5  11
ENDBRANCH   1   8
BRANCH   2  22
ATOM     22  C   UNL     1      -0.014   4.733   0.201  0.00  0.00    +0.019 C 
BRANCH  22  23
ATOM     23  N   UNL     1       1.369   4.242   0.251  0.00  0.00    +0.387 N 
ATOM     24  C   UNL     1       1.643   3.568   1.529  0.00  0.00    -0.059 C 
ATOM     25  C   UNL     1       3.065   3.003   1.510  0.00  0.00    +0.086 C 
ATOM     26  N   UNL     1       4.020   4.096   1.279  0.00  0.00    -0.333 N 
ATOM     27  C   UNL     1       3.747   4.769   0.002  0.00  0.00    +0.086 C 
ATOM     28  C   UNL     1       2.325   5.334   0.020  0.00  0.00    -0.059 C 
ATOM     29  H   UNL     1       1.495   3.504  -0.555  0.00  0.00    -0.081 HD
BRANCH  26  30
ATOM     30  C   UNL     1       5.336   3.629   1.327  0.00  0.00    +0.033 A 
ATOM     31  C   UNL     1       5.783   2.708   0.388  0.00  0.00    +0.023 A 
ATOM     32  C   UNL     1       7.084   2.249   0.438  0.00  0.00    +0.002 A 
ATOM     33  C   UNL     1       7.942   2.704   1.423  0.00  0.00    +0.004 A 
ATOM     34  C   UNL     1       7.501   3.620   2.359  0.00  0.00    -0.046 A 
ATOM     35  C   UNL     1       6.202   4.088   2.311  0.00  0.00    -0.027 A 
ATOM     36  C   UNL     1       5.723   5.091   3.329  0.00  0.00    +0.046 C 
ATOM     37  C   UNL     1       8.439   4.113   3.430  0.00  0.00    +0.044 C 
ENDBRANCH  26  30
ENDBRANCH  22  23
ENDBRANCH   2  22
TORSDOF 7
