REMARK  Name = ZINC39364668
REMARK  7 active torsions:
REMARK  status: ('A' for Active; 'I' for Inactive)
REMARK    1  A    between atoms: C_1  and  C_2
REMARK    2  A    between atoms: C_10  and  C_15
REMARK    3  A    between atoms: C_12  and  C_14
REMARK    4  A    between atoms: N_17  and  C_18
REMARK    5  A    between atoms: C_18  and  C_19
REMARK    6  A    between atoms: C_20  and  C_26
REMARK    7  A    between atoms: C_23  and  C_25
REMARK                            x       y       z     vdW  Elec       q    Type
REMARK                         _______ _______ _______ _____ _____    ______ ____
ROOT
ATOM      1  C   UNL     1      -0.018   1.503   0.010  0.00  0.00    +0.044 C 
ATOM      2  C   UNL     1       0.002  -0.004   0.002  0.00  0.00    -0.049 A 
ATOM      3  C   UNL     1       0.006  -0.692  -1.199  0.00  0.00    +0.011 A 
ATOM      4  C   UNL     1       0.025  -2.069  -1.204  0.00  0.00    +0.003 A 
ATOM      5  C   UNL     1       0.048  -2.784  -0.013  0.00  0.00    +0.143 A 
ATOM      6  C   UNL     1       0.040  -2.084   1.192  0.00  0.00    +0.083 A 
ATOM      7  C   UNL     1       0.023  -0.704   1.194  0.00  0.00    +0.027 A 
ATOM      8 CL   UNL     1       0.057  -2.952   2.696  0.00  0.00    -0.080 Cl
ATOM      9  O   UNL     1       0.088  -4.125  -0.245  0.00  0.00    -0.477 OA
ATOM     10  C   UNL     1      -0.352  -4.387  -1.588  0.00  0.00    +0.266 C 
ATOM     11  C   UNL     1       0.022  -3.083  -2.331  0.00  0.00    +0.069 C 
ATOM     12  C   UNL     1       1.409  -3.196  -2.969  0.00  0.00    +0.017 C 
ENDROOT
BRANCH  10  13
ATOM     13  C   UNL     1      -1.841  -4.619  -1.627  0.00  0.00    +0.255 C 
ATOM     14  O   UNL     1      -2.499  -4.506  -0.614  0.00  0.00    -0.272 OA
ATOM     15  N   UNL     1      -2.441  -4.952  -2.786  0.00  0.00    -0.308 N 
ATOM     16  H   UNL     1      -1.915  -5.043  -3.596  0.00  0.00    +0.149 HD
BRANCH  15  17
ATOM     17  C   UNL     1      -3.888  -5.178  -2.824  0.00  0.00    +0.139 C 
BRANCH  17  18
ATOM     18  C   UNL     1      -4.305  -5.535  -4.227  0.00  0.00    -0.004 C 
ATOM     19  C   UNL     1      -4.473  -6.751  -4.751  0.00  0.00    +0.063 C 
ATOM     20  N   UNL     1      -4.852  -6.667  -6.046  0.00  0.00    -0.159 NA
ATOM     21  N   UNL     1      -4.965  -5.516  -6.473  0.00  0.00    -0.180 NA
ATOM     22  C   UNL     1      -4.638  -4.594  -5.372  0.00  0.00    +0.154 C 
ATOM     23  C   UNL     1      -3.428  -3.731  -5.733  0.00  0.00    +0.039 C 
ATOM     24  C   UNL     1      -4.266  -8.041  -4.002  0.00  0.00    +0.067 C 
ENDBRANCH  17  18
ENDBRANCH  15  17
ENDBRANCH  10  13
TORSDOF 3
