REMARK  Name = ZINC00247589
REMARK  4 active torsions:
REMARK  status: ('A' for Active; 'I' for Inactive)
REMARK    1  A    between atoms: C_3  and  N_19
REMARK    2  A    between atoms: C_6  and  N_7
REMARK    3  A    between atoms: C_8  and  C_9
REMARK    4  A    between atoms: C_13  and  N_15
REMARK                            x       y       z     vdW  Elec       q    Type
REMARK                         _______ _______ _______ _____ _____    ______ ____
ROOT
ATOM      1  C   UNL     1      -0.328   4.179   0.885  0.00  0.00    +0.029 A 
ATOM      2  C   UNL     1      -0.346   5.557   0.887  0.00  0.00    +0.025 A 
ATOM      3  C   UNL     1      -1.211   6.244   0.042  0.00  0.00    +0.030 A 
ATOM      4  C   UNL     1      -2.058   5.543  -0.810  0.00  0.00    +0.025 A 
ATOM      5  C   UNL     1      -2.042   4.165  -0.821  0.00  0.00    +0.029 A 
ATOM      6  C   UNL     1      -1.173   3.472   0.026  0.00  0.00    +0.064 A 
ENDROOT
BRANCH   3   7
ATOM      7  N   UNL     1      -1.231   7.639   0.050  0.00  0.00    -0.326 N 
ATOM      8  C   UNL     1      -0.974   8.177  -1.294  0.00  0.00    +0.133 C 
ATOM      9  C   UNL     1      -1.063   9.705  -1.251  0.00  0.00    +0.178 C 
ATOM     10  O   UNL     1      -0.138  10.205  -0.282  0.00  0.00    -0.377 OA
ATOM     11  C   UNL     1      -0.359   9.701   1.038  0.00  0.00    +0.178 C 
ATOM     12  C   UNL     1      -0.263   8.174   1.019  0.00  0.00    +0.133 C 
ENDBRANCH   3   7
BRANCH   6  13
ATOM     13  N   UNL     1      -1.155   2.104   0.019  0.00  0.00    -0.255 NA
ATOM     14  C   UNL     1      -0.018   1.468   0.010  0.00  0.00    +0.119 C 
BRANCH  14  15
ATOM     15  C   UNL     1       0.002  -0.004   0.002  0.00  0.00    -0.005 A 
ATOM     16  C   UNL     1      -1.197  -0.723   0.015  0.00  0.00    +0.011 A 
ATOM     17  C   UNL     1      -1.171  -2.101   0.003  0.00  0.00    +0.023 A 
ATOM     18  C   UNL     1       0.040  -2.774  -0.013  0.00  0.00    +0.071 A 
ATOM     19  C   UNL     1       1.232  -2.068  -0.020  0.00  0.00    +0.145 A 
ATOM     20  C   UNL     1       1.220  -0.690  -0.013  0.00  0.00    +0.043 A 
ATOM     21 CL   UNL     1       0.063  -4.510  -0.022  0.00  0.00    -0.081 Cl
BRANCH  19  22
ATOM     22  N   UNL     1       2.520  -2.796  -0.036  0.00  0.00    +0.058 N 
ATOM     23  O   UNL     1       3.569  -2.177  -0.044  0.00  0.00    -0.126 OA
ATOM     24  O   UNL     1       2.532  -4.014  -0.043  0.00  0.00    -0.126 OA
ENDBRANCH  19  22
ENDBRANCH  14  15
ENDBRANCH   6  13
TORSDOF 4
