REMARK  Name = ZINC63350667
REMARK  15 active torsions:
REMARK  status: ('A' for Active; 'I' for Inactive)
REMARK    1  A    between atoms: C_1  and  C_2
REMARK    2  A    between atoms: C_2  and  C_3
REMARK    3  A    between atoms: C_3  and  C_4
REMARK    4  A    between atoms: C_11  and  O_16
REMARK    5  A    between atoms: C_13  and  C_15
REMARK    6  A    between atoms: O_16  and  C_17
REMARK    7  A    between atoms: C_17  and  C_19
REMARK    8  A    between atoms: C_19  and  C_21
REMARK    9  A    between atoms: C_19  and  N_31
REMARK   10  A    between atoms: C_21  and  C_22
REMARK   11  A    between atoms: C_32  and  O_34
REMARK   12  A    between atoms: O_34  and  C_35
REMARK   13  A    between atoms: C_35  and  C_36
REMARK   14  A    between atoms: C_35  and  C_37
REMARK   15  A    between atoms: C_35  and  C_38
REMARK                            x       y       z     vdW  Elec       q    Type
REMARK                         _______ _______ _______ _____ _____    ______ ____
ROOT
ATOM      1  C   UNL     1      -2.857   1.273   2.713  0.00  0.00    +0.189 C 
ENDROOT
BRANCH   1   2
ATOM      2  N   UNL     1      -4.281   1.610   2.767  0.00  0.00    -0.268 N 
ATOM      3  C   UNL     1      -5.022   1.239   3.830  0.00  0.00    +0.401 C 
ATOM      4  O   UNL     1      -4.509   0.625   4.744  0.00  0.00    -0.226 OA
ATOM      5  H   UNL     1      -4.691   2.100   2.037  0.00  0.00    +0.153 HD
BRANCH   3   6
ATOM      6  O   UNL     1      -6.332   1.549   3.879  0.00  0.00    -0.445 OA
BRANCH   6   7
ATOM      7  C   UNL     1      -7.056   1.125   5.035  0.00  0.00    +0.107 C 
ATOM      8  C   UNL     1      -6.437   1.755   6.284  0.00  0.00    +0.055 C 
ATOM      9  C   UNL     1      -8.516   1.564   4.912  0.00  0.00    +0.055 C 
ATOM     10  C   UNL     1      -6.990  -0.400   5.147  0.00  0.00    +0.055 C 
ENDBRANCH   6   7
ENDBRANCH   3   6
ENDBRANCH   1   2
BRANCH   1  11
ATOM     11  C   UNL     1      -2.692  -0.225   2.767  0.00  0.00    +0.333 C 
ATOM     12  O   UNL     1      -3.586  -0.915   3.196  0.00  0.00    -0.248 OA
BRANCH  11  13
ATOM     13  O   UNL     1      -1.553  -0.791   2.338  0.00  0.00    -0.424 OA
BRANCH  13  21
ATOM     14  C   UNL     1       0.058  -2.239   0.496  0.00  0.00    -0.026 A 
ATOM     15  C   UNL     1       0.811  -3.018  -0.324  0.00  0.00    +0.096 A 
ATOM     16  C   UNL     1       0.925  -4.400  -0.068  0.00  0.00    +0.337 A 
ATOM     17  O   UNL     1       1.603  -5.087  -0.811  0.00  0.00    -0.245 OA
ATOM     18  O   UNL     1       0.306  -4.977   0.973  0.00  0.00    -0.422 OA
ATOM     19  C   UNL     1      -0.457  -4.260   1.826  0.00  0.00    +0.143 A 
ATOM     20  C   UNL     1      -0.609  -2.875   1.632  0.00  0.00    +0.063 A 
ATOM     21  C   UNL     1      -1.397  -2.127   2.521  0.00  0.00    +0.143 A 
ATOM     22  C   UNL     1      -2.014  -2.762   3.584  0.00  0.00    +0.050 A 
ATOM     23  C   UNL     1      -1.854  -4.125   3.771  0.00  0.00    -0.043 A 
ATOM     24  C   UNL     1      -1.091  -4.873   2.897  0.00  0.00    +0.050 A 
ATOM     25  C   UNL     1      -2.533  -4.802   4.934  0.00  0.00    +0.044 C 
BRANCH  14  26
ATOM     26  C   UNL     1      -0.080  -0.759   0.246  0.00  0.00    +0.036 C 
BRANCH  26  28
ATOM     27  C   UNL     1      -1.498   1.008  -0.808  0.00  0.00    +0.004 C 
ATOM     28  C   UNL     1      -1.357  -0.495  -0.555  0.00  0.00    +0.001 C 
ENDBRANCH  26  28
ENDBRANCH  14  26
ENDBRANCH  13  21
ENDBRANCH  11  13
ENDBRANCH   1  11
BRANCH   1  29
ATOM     29  C   UNL     1      -2.137   1.908   3.905  0.00  0.00    +0.067 C 
BRANCH  29  30
ATOM     30  C   UNL     1      -2.196   3.409   3.785  0.00  0.00    -0.039 C 
ATOM     31  C   UNL     1      -3.100   4.235   4.359  0.00  0.00    -0.001 A 
ATOM     32  C   UNL     1      -4.255   3.993   5.232  0.00  0.00    +0.010 A 
ATOM     33  C   UNL     1      -4.990   5.047   5.656  0.00  0.00    +0.001 A 
ATOM     34  C   UNL     1      -4.676   6.361   5.283  0.00  0.00    +0.002 A 
ATOM     35  C   UNL     1      -3.631   6.663   4.484  0.00  0.00    +0.026 A 
ATOM     36  C   UNL     1      -2.790   5.632   3.980  0.00  0.00    +0.043 A 
ATOM     37  N   UNL     1      -1.736   5.668   3.203  0.00  0.00    -0.380 N 
ATOM     38  C   UNL     1      -1.253   4.297   3.005  0.00  0.00    +0.144 C 
ATOM     39  H   UNL     1      -1.338   6.468   2.824  0.00  0.00    +0.160 HD
ENDBRANCH  29  30
ENDBRANCH   1  29
TORSDOF 10
