REMARK  Name = ZINC00887696
REMARK  11 active torsions:
REMARK  status: ('A' for Active; 'I' for Inactive)
REMARK    1  A    between atoms: C_1  and  C_2
REMARK    2  A    between atoms: C_5  and  C_8
REMARK    3  A    between atoms: C_8  and  C_10
REMARK    4  A    between atoms: C_8  and  N_20
REMARK    5  A    between atoms: N_12  and  C_13
REMARK    6  A    between atoms: C_13  and  C_14
REMARK    7  A    between atoms: N_20  and  C_21
REMARK    8  A    between atoms: C_25  and  C_27
REMARK    9  A    between atoms: C_31  and  C_33
REMARK   10  A    between atoms: C_33  and  N_34
REMARK   11  A    between atoms: C_36  and  C_39
REMARK                            x       y       z     vdW  Elec       q    Type
REMARK                         _______ _______ _______ _____ _____    ______ ____
ROOT
ATOM      1  N   UNL     1       1.042  -4.741   0.934  0.00  0.00    -0.254 N 
ATOM      2  C   UNL     1       1.482  -6.000   0.738  0.00  0.00    +0.244 C 
ATOM      3  O   UNL     1       0.860  -6.755   0.021  0.00  0.00    -0.273 OA
ENDROOT
BRANCH   1   4
ATOM      4  C   UNL     1       1.702  -3.903   1.840  0.00  0.00    +0.038 A 
ATOM      5  C   UNL     1       1.667  -4.184   3.200  0.00  0.00    +0.023 A 
ATOM      6  C   UNL     1       2.320  -3.354   4.091  0.00  0.00    +0.002 A 
ATOM      7  C   UNL     1       3.007  -2.246   3.630  0.00  0.00    +0.012 A 
ATOM      8  C   UNL     1       3.043  -1.964   2.277  0.00  0.00    +0.057 A 
ATOM      9  C   UNL     1       2.398  -2.793   1.380  0.00  0.00    +0.036 A 
BRANCH   8  10
ATOM     10  C   UNL     1       3.792  -0.755   1.780  0.00  0.00    +0.417 C 
ATOM     11  F   UNL     1       4.362  -0.081   2.866  0.00  0.00    -0.166 F 
ATOM     12  F   UNL     1       4.802  -1.161   0.901  0.00  0.00    -0.166 F 
ATOM     13  F   UNL     1       2.908   0.100   1.113  0.00  0.00    -0.166 F 
ENDBRANCH   8  10
ENDBRANCH   1   4
BRANCH   1  14
ATOM     14  C   UNL     1      -0.126  -4.250   0.199  0.00  0.00    +0.197 C 
BRANCH  14  19
ATOM     15  C   UNL     1      -0.826   1.391   1.236  0.00  0.00    +0.044 C 
ATOM     16  C   UNL     1      -0.643  -0.080   0.966  0.00  0.00    -0.050 A 
ATOM     17  C   UNL     1      -0.495  -0.531  -0.333  0.00  0.00    +0.004 A 
ATOM     18  C   UNL     1      -0.328  -1.880  -0.581  0.00  0.00    +0.006 A 
ATOM     19  C   UNL     1      -0.308  -2.779   0.470  0.00  0.00    -0.018 A 
ATOM     20  C   UNL     1      -0.455  -2.328   1.768  0.00  0.00    +0.006 A 
ATOM     21  C   UNL     1      -0.618  -0.978   2.016  0.00  0.00    +0.004 A 
ENDBRANCH  14  19
BRANCH  14  22
ATOM     22  C   UNL     1      -1.354  -4.999   0.649  0.00  0.00    +0.239 C 
ATOM     23  O   UNL     1      -1.262  -5.859   1.500  0.00  0.00    -0.273 OA
ATOM     24  N   UNL     1      -2.554  -4.714   0.106  0.00  0.00    -0.311 N 
ATOM     25  H   UNL     1      -2.627  -4.027  -0.574  0.00  0.00    +0.149 HD
BRANCH  24  26
ATOM     26  C   UNL     1      -3.747  -5.442   0.544  0.00  0.00    +0.135 C 
BRANCH  26  27
ATOM     27  C   UNL     1      -4.968  -4.929  -0.224  0.00  0.00    +0.135 C 
ATOM     28  C   UNL     1      -6.247  -5.604   0.316  0.00  0.00    +0.035 C 
ATOM     29  C   UNL     1      -7.062  -5.850  -0.983  0.00  0.00    +0.031 C 
ATOM     30  C   UNL     1      -5.925  -6.142  -1.994  0.00  0.00    +0.160 C 
ATOM     31  O   UNL     1      -4.848  -5.269  -1.610  0.00  0.00    -0.375 OA
ENDBRANCH  26  27
ENDBRANCH  24  26
ENDBRANCH  14  22
ENDBRANCH   1  14
BRANCH   2  32
ATOM     32  C   UNL     1       2.746  -6.470   1.409  0.00  0.00    +0.264 C 
BRANCH  32  33
ATOM     33  N   UNL     1       3.078  -7.817   0.938  0.00  0.00    -0.154 N 
ATOM     34  N   UNL     1       2.673  -8.916   1.477  0.00  0.00    -0.129 NA
ATOM     35  C   UNL     1       3.175  -9.917   0.778  0.00  0.00    +0.211 A 
ATOM     36  N   UNL     1       3.901  -9.369  -0.209  0.00  0.00    -0.107 NA
ATOM     37  N   UNL     1       3.814  -8.088  -0.082  0.00  0.00    -0.045 NA
BRANCH  35  38
ATOM     38  C   UNL     1       2.976 -11.360   1.033  0.00  0.00    +0.060 A 
ATOM     39  C   UNL     1       3.475 -12.434   0.346  0.00  0.00    +0.019 A 
ATOM     40  C   UNL     1       3.150 -13.703   0.774  0.00  0.00    +0.008 A 
ATOM     41  C   UNL     1       2.348 -13.850   1.859  0.00  0.00    +0.046 A 
ATOM     42  S   UNL     1       2.029 -12.155   2.321  0.00  0.00    -0.093 S 
ENDBRANCH  35  38
ENDBRANCH  32  33
ENDBRANCH   2  32
TORSDOF 10
