REMARK  Name = ZINC43400317
REMARK  8 active torsions:
REMARK  status: ('A' for Active; 'I' for Inactive)
REMARK    1  A    between atoms: C_1  and  C_2
REMARK    2  A    between atoms: C_5  and  C_18
REMARK    3  A    between atoms: C_6  and  O_8
REMARK    4  A    between atoms: O_8  and  C_9
REMARK    5  A    between atoms: C_14  and  C_15
REMARK    6  A    between atoms: C_15  and  C_16
REMARK    7  A    between atoms: C_15  and  C_17
REMARK    8  A    between atoms: N_19  and  O_20
REMARK                            x       y       z     vdW  Elec       q    Type
REMARK                         _______ _______ _______ _____ _____    ______ ____
ROOT
ATOM      1  C   UNL     1      -4.680  -2.743   2.869  0.00  0.00    +0.066 C 
ATOM      2  C   UNL     1      -3.428  -3.232   2.187  0.00  0.00    +0.042 A 
ATOM      3  C   UNL     1      -3.525  -4.184   1.190  0.00  0.00    +0.024 A 
ATOM      4  C   UNL     1      -2.375  -4.633   0.563  0.00  0.00    +0.018 A 
ATOM      5  C   UNL     1      -1.147  -4.101   0.968  0.00  0.00    +0.080 A 
ATOM      6  C   UNL     1      -1.131  -3.139   1.987  0.00  0.00    +0.231 A 
ATOM      7  N   UNL     1      -2.259  -2.740   2.549  0.00  0.00    -0.217 NA
ENDROOT
BRANCH   5   8
ATOM      8  C   UNL     1       0.112  -4.546   0.333  0.00  0.00    +0.168 C 
ATOM      9  N   UNL     1       1.248  -4.043   0.719  0.00  0.00    -0.071 NA
ATOM     10  N   UNL     1       0.081  -5.498  -0.672  0.00  0.00    -0.340 N 
ATOM     11  H   UNL     1      -0.766  -5.873  -0.960  0.00  0.00    +0.144 HD
ATOM     12  H   UNL     1       0.907  -5.790  -1.089  0.00  0.00    +0.144 HD
BRANCH   9  13
ATOM     13  O   UNL     1       2.454  -4.469   0.110  0.00  0.00    -0.408 OA
ATOM     14  H   UNL     1       3.245  -4.040   0.463  0.00  0.00    +0.328 HD
ENDBRANCH   9  13
ENDBRANCH   5   8
BRANCH   6  15
ATOM     15  O   UNL     1       0.049  -2.610   2.394  0.00  0.00    -0.437 OA
BRANCH  15  16
ATOM     16  C   UNL     1       0.035  -1.761   3.455  0.00  0.00    +0.134 A 
ATOM     17  C   UNL     1      -0.050  -0.392   3.249  0.00  0.00    +0.046 A 
ATOM     18  C   UNL     1      -0.064   0.469   4.329  0.00  0.00    +0.004 A 
ATOM     19  C   UNL     1       0.005  -0.033   5.615  0.00  0.00    +0.001 A 
ATOM     20  C   UNL     1       0.090  -1.397   5.824  0.00  0.00    +0.007 A 
ATOM     21  C   UNL     1       0.099  -2.263   4.747  0.00  0.00    -0.002 A 
BRANCH  21  22
ATOM     22  C   UNL     1       0.185  -3.750   4.976  0.00  0.00    +0.016 C 
ATOM     23  C   UNL     1       1.476  -4.076   5.729  0.00  0.00    +0.012 C 
ATOM     24  C   UNL     1      -1.018  -4.210   5.802  0.00  0.00    +0.012 C 
ENDBRANCH  21  22
ENDBRANCH  15  16
ENDBRANCH   6  15
TORSDOF 5
