REMARK  Name = ZINC59333713
REMARK  9 active torsions:
REMARK  status: ('A' for Active; 'I' for Inactive)
REMARK    1  A    between atoms: C_1  and  C_2
REMARK    2  A    between atoms: C_2  and  C_3
REMARK    3  A    between atoms: C_3  and  C_4
REMARK    4  A    between atoms: C_3  and  N_6
REMARK    5  A    between atoms: C_4  and  C_5
REMARK    6  A    between atoms: N_6  and  S_7
REMARK    7  A    between atoms: S_7  and  C_10
REMARK    8  A    between atoms: C_19  and  C_22
REMARK    9  A    between atoms: C_22  and  C_24
REMARK                            x       y       z     vdW  Elec       q    Type
REMARK                         _______ _______ _______ _____ _____    ______ ____
ROOT
ATOM      1  C   UNL     1      -4.418  -1.279   1.029  0.00  0.00    +0.123 A 
ATOM      2  C   UNL     1      -4.687  -1.660  -0.279  0.00  0.00    +0.033 A 
ATOM      3  C   UNL     1      -5.292  -2.884  -0.499  0.00  0.00    +0.045 A 
ATOM      4  C   UNL     1      -5.611  -3.687   0.592  0.00  0.00    +0.121 A 
ATOM      5  N   UNL     1      -5.338  -3.288   1.825  0.00  0.00    -0.238 NA
ATOM      6  C   UNL     1      -4.756  -2.128   2.063  0.00  0.00    +0.141 A 
ATOM      7  N   UNL     1      -6.220  -4.919   0.386  0.00  0.00    -0.315 N 
ATOM      8  C   UNL     1      -6.779  -5.676   1.514  0.00  0.00    +0.107 C 
ATOM      9  C   UNL     1      -8.239  -6.021   1.201  0.00  0.00    +0.030 C 
ATOM     10  C   UNL     1      -8.310  -6.750  -0.142  0.00  0.00    +0.063 C 
ATOM     11  C   UNL     1      -7.782  -5.836  -1.250  0.00  0.00    +0.030 C 
ATOM     12  C   UNL     1      -6.322  -5.487  -0.966  0.00  0.00    +0.107 C 
ENDROOT
BRANCH   1  13
ATOM     13  S   UNL     1      -3.648   0.270   1.364  0.00  0.00    +0.060 S 
ATOM     14  O   UNL     1      -3.951   0.590   2.715  0.00  0.00    -0.153 OA
ATOM     15  O   UNL     1      -3.982   1.132   0.284  0.00  0.00    -0.153 OA
BRANCH  13  16
ATOM     16  N   UNL     1      -2.012   0.029   1.290  0.00  0.00    -0.187 NA
ATOM     17  H   UNL     1      -1.469   0.136   2.087  0.00  0.00    +0.148 HD
BRANCH  16  18
ATOM     18  C   UNL     1      -1.383  -0.344   0.020  0.00  0.00    +0.076 C 
BRANCH  18  20
ATOM     19  C   UNL     1      -1.276   2.032  -0.747  0.00  0.00    +0.005 C 
ATOM     20  C   UNL     1      -0.452   0.781  -0.438  0.00  0.00    +0.017 C 
ENDBRANCH  18  20
BRANCH  18  21
ATOM     21  C   UNL     1      -0.576  -1.629   0.209  0.00  0.00    +0.017 C 
ATOM     22  C   UNL     1      -1.525  -2.784   0.536  0.00  0.00    +0.005 C 
ENDBRANCH  18  21
ENDBRANCH  16  18
ENDBRANCH  13  16
ENDBRANCH   1  13
BRANCH  10  23
ATOM     23  C   UNL     1      -9.741  -7.121  -0.437  0.00  0.00    +0.166 C 
ATOM     24  O   UNL     1     -10.645  -6.430  -0.017  0.00  0.00    -0.292 OA
BRANCH  23  25
ATOM     25  C   UNL     1     -10.040  -8.319  -1.232  0.00  0.00    +0.021 A 
ATOM     26  C   UNL     1      -8.998  -9.122  -1.712  0.00  0.00    +0.015 A 
ATOM     27  C   UNL     1      -9.283 -10.243  -2.458  0.00  0.00    +0.050 A 
ATOM     28  C   UNL     1     -10.602 -10.584  -2.737  0.00  0.00    +0.162 A 
ATOM     29  C   UNL     1     -11.645  -9.791  -2.260  0.00  0.00    +0.163 A 
ATOM     30  C   UNL     1     -11.368  -8.666  -1.507  0.00  0.00    +0.060 A 
ATOM     31  O   UNL     1     -12.941 -10.117  -2.518  0.00  0.00    -0.485 OA
ATOM     32  C   UNL     1     -13.171 -11.046  -3.583  0.00  0.00    +0.270 C 
ATOM     33  C   UNL     1     -12.190 -12.214  -3.421  0.00  0.00    +0.270 C 
ATOM     34  O   UNL     1     -10.858 -11.693  -3.479  0.00  0.00    -0.485 OA
ENDBRANCH  23  25
ENDBRANCH  10  23
TORSDOF 7
