REMARK  Name = ZINC01038104
REMARK  7 active torsions:
REMARK  status: ('A' for Active; 'I' for Inactive)
REMARK    1  A    between atoms: C_1  and  N_2
REMARK    2  A    between atoms: C_3  and  C_26
REMARK    3  A    between atoms: C_5  and  C_7
REMARK    4  A    between atoms: C_10  and  S_12
REMARK    5  A    between atoms: S_12  and  N_15
REMARK    6  A    between atoms: N_15  and  N_16
REMARK    7  A    between atoms: C_17  and  C_19
REMARK                            x       y       z     vdW  Elec       q    Type
REMARK                         _______ _______ _______ _____ _____    ______ ____
ROOT
ATOM      1  S   UNL     1      -6.306  -0.978   0.025  0.00  0.00    +0.080 S 
ATOM      2  O   UNL     1      -5.841  -2.207   0.567  0.00  0.00    -0.151 OA
ATOM      3  O   UNL     1      -7.400  -0.265   0.585  0.00  0.00    -0.151 OA
ENDROOT
BRANCH   1   7
ATOM      4  C   UNL     1      -2.565   1.418   0.020  0.00  0.00    +0.041 A 
ATOM      5  C   UNL     1      -3.722   2.150   0.035  0.00  0.00    +0.020 A 
ATOM      6  C   UNL     1      -4.928   1.482   0.032  0.00  0.00    +0.037 A 
ATOM      7  C   UNL     1      -4.932   0.125   0.025  0.00  0.00    +0.145 A 
ATOM      8  S   UNL     1      -3.188  -0.255   0.015  0.00  0.00    -0.067 S 
BRANCH   4  13
ATOM      9  C   UNL     1       1.478   4.360   0.011  0.00  0.00    +0.173 C 
ATOM     10  N   UNL     1       0.632   3.164   0.013  0.00  0.00    -0.262 N 
ATOM     11  C   UNL     1       1.068   1.886   0.002  0.00  0.00    +0.142 A 
ATOM     12  C   UNL     1      -0.013   1.076   0.008  0.00  0.00    +0.062 A 
ATOM     13  C   UNL     1      -1.163   1.891   0.017  0.00  0.00    +0.100 A 
ATOM     14  N   UNL     1      -0.769   3.148   0.026  0.00  0.00    -0.170 NA
BRANCH  11  15
ATOM     15  C   UNL     1       2.508   1.442  -0.015  0.00  0.00    +0.434 C 
ATOM     16  F   UNL     1       2.565   0.049  -0.138  0.00  0.00    -0.164 F 
ATOM     17  F   UNL     1       3.166   2.033  -1.099  0.00  0.00    -0.164 F 
ATOM     18  F   UNL     1       3.130   1.830   1.176  0.00  0.00    -0.164 F 
ENDBRANCH  11  15
ENDBRANCH   4  13
ENDBRANCH   1   7
BRANCH   1  19
ATOM     19  N   UNL     1      -6.696  -1.276  -1.557  0.00  0.00    -0.107 NA
ATOM     20  H   UNL     1      -7.578  -1.048  -1.890  0.00  0.00    +0.172 HD
BRANCH  19  21
ATOM     21  N   UNL     1      -5.752  -1.857  -2.413  0.00  0.00    -0.228 N 
ATOM     22  C   UNL     1      -6.056  -2.985  -3.086  0.00  0.00    +0.259 C 
ATOM     23  O   UNL     1      -7.150  -3.497  -2.949  0.00  0.00    -0.269 OA
ATOM     24  H   UNL     1      -4.879  -1.448  -2.522  0.00  0.00    +0.171 HD
BRANCH  22  25
ATOM     25  C   UNL     1      -5.060  -3.599  -3.990  0.00  0.00    +0.039 A 
ATOM     26  C   UNL     1      -3.805  -3.009  -4.153  0.00  0.00    +0.013 A 
ATOM     27  C   UNL     1      -2.878  -3.589  -4.994  0.00  0.00    +0.002 A 
ATOM     28  C   UNL     1      -3.192  -4.747  -5.683  0.00  0.00    +0.020 A 
ATOM     29  C   UNL     1      -4.437  -5.334  -5.530  0.00  0.00    +0.042 A 
ATOM     30  C   UNL     1      -5.372  -4.766  -4.687  0.00  0.00    +0.033 A 
ATOM     31 CL   UNL     1      -4.822  -6.786  -6.399  0.00  0.00    -0.084 Cl
ENDBRANCH  22  25
ENDBRANCH  19  21
ENDBRANCH   1  19
TORSDOF 6
