REMARK  Name = ZINC03021913
REMARK  9 active torsions:
REMARK  status: ('A' for Active; 'I' for Inactive)
REMARK    1  A    between atoms: C_1  and  N_2
REMARK    2  A    between atoms: N_2  and  C_3
REMARK    3  A    between atoms: N_2  and  S_4
REMARK    4  A    between atoms: S_4  and  C_7
REMARK    5  A    between atoms: C_18  and  S_21
REMARK    6  A    between atoms: S_21  and  C_22
REMARK    7  A    between atoms: C_22  and  C_23
REMARK    8  A    between atoms: N_25  and  C_26
REMARK    9  A    between atoms: C_31  and  C_32
REMARK                            x       y       z     vdW  Elec       q    Type
REMARK                         _______ _______ _______ _____ _____    ______ ____
ROOT
ATOM      1  C   UNL     1       1.709  -1.019  -1.839  0.00  0.00    +0.106 A 
ATOM      2  C   UNL     1       2.349  -0.069  -2.620  0.00  0.00    +0.030 A 
ATOM      3  C   UNL     1       3.664  -0.239  -2.996  0.00  0.00    +0.028 A 
ATOM      4  C   UNL     1       4.359  -1.377  -2.601  0.00  0.00    +0.050 A 
ATOM      5  C   UNL     1       3.709  -2.341  -1.815  0.00  0.00    +0.031 A 
ATOM      6  C   UNL     1       2.381  -2.153  -1.438  0.00  0.00    +0.040 A 
ATOM      7  C   UNL     1       4.694  -3.408  -1.567  0.00  0.00    +0.137 A 
ATOM      8  C   UNL     1       5.878  -3.014  -2.223  0.00  0.00    +0.162 A 
ATOM      9  N   UNL     1       5.657  -1.804  -2.831  0.00  0.00    -0.338 N 
ATOM     10  H   UNL     1       6.316  -1.316  -3.349  0.00  0.00    +0.167 HD
ATOM     11  N   UNL     1       6.936  -3.817  -2.151  0.00  0.00    -0.201 NA
ATOM     12  C   UNL     1       6.843  -4.952  -1.471  0.00  0.00    +0.212 A 
ATOM     13  N   UNL     1       5.716  -5.301  -0.860  0.00  0.00    -0.122 NA
ATOM     14  N   UNL     1       4.666  -4.554  -0.903  0.00  0.00    -0.143 NA
ENDROOT
BRANCH   1  15
ATOM     15  S   UNL     1       0.030  -0.779  -1.363  0.00  0.00    +0.060 S 
ATOM     16  O   UNL     1      -0.506  -2.068  -1.099  0.00  0.00    -0.153 OA
ATOM     17  O   UNL     1      -0.542   0.101  -2.321  0.00  0.00    -0.153 OA
BRANCH  15  19
ATOM     18  C   UNL     1       0.027   1.499   0.095  0.00  0.00    +0.131 C 
ATOM     19  N   UNL     1       0.041   0.034   0.079  0.00  0.00    -0.183 NA
ATOM     20  C   UNL     1       0.064  -0.712   1.340  0.00  0.00    +0.131 C 
ENDBRANCH  15  19
ENDBRANCH   1  15
BRANCH  12  21
ATOM     21  S   UNL     1       8.243  -6.018  -1.374  0.00  0.00    -0.075 S 
BRANCH  21  22
ATOM     22  C   UNL     1       7.554  -7.352  -0.364  0.00  0.00    +0.173 C 
BRANCH  22  23
ATOM     23  C   UNL     1       8.605  -8.410  -0.144  0.00  0.00    +0.227 C 
ATOM     24  O   UNL     1       9.710  -8.275  -0.624  0.00  0.00    -0.275 OA
ATOM     25  N   UNL     1       8.315  -9.506   0.585  0.00  0.00    -0.284 N 
ATOM     26  H   UNL     1       7.453  -9.583   1.023  0.00  0.00    +0.155 HD
BRANCH  25  27
ATOM     27  C   UNL     1       9.258 -10.532   0.711  0.00  0.00    +0.045 A 
ATOM     28  C   UNL     1      10.613 -10.229   0.765  0.00  0.00    +0.024 A 
ATOM     29  C   UNL     1      11.541 -11.244   0.894  0.00  0.00    +0.002 A 
ATOM     30  C   UNL     1      11.123 -12.560   0.959  0.00  0.00    +0.001 A 
ATOM     31  C   UNL     1       9.776 -12.865   0.900  0.00  0.00    +0.014 A 
ATOM     32  C   UNL     1       8.842 -11.855   0.776  0.00  0.00    +0.076 A 
BRANCH  32  33
ATOM     33  C   UNL     1       7.374 -12.188   0.711  0.00  0.00    +0.419 C 
ATOM     34  F   UNL     1       7.206 -13.574   0.795  0.00  0.00    -0.166 F 
ATOM     35  F   UNL     1       6.709 -11.572   1.776  0.00  0.00    -0.166 F 
ATOM     36  F   UNL     1       6.844 -11.727  -0.499  0.00  0.00    -0.166 F 
ENDBRANCH  32  33
ENDBRANCH  25  27
ENDBRANCH  22  23
ENDBRANCH  21  22
ENDBRANCH  12  21
TORSDOF 7
