REMARK  Name = ZINC08819212
REMARK  11 active torsions:
REMARK  status: ('A' for Active; 'I' for Inactive)
REMARK    1  A    between atoms: C_1  and  O_2
REMARK    2  A    between atoms: O_2  and  C_3
REMARK    3  A    between atoms: C_7  and  C_9
REMARK    4  A    between atoms: N_13  and  C_17
REMARK    5  A    between atoms: C_17  and  C_18
REMARK    6  A    between atoms: C_18  and  C_19
REMARK    7  A    between atoms: C_19  and  C_20
REMARK    8  A    between atoms: N_22  and  N_23
REMARK    9  A    between atoms: N_23  and  C_24
REMARK   10  A    between atoms: C_27  and  N_33
REMARK   11  A    between atoms: C_29  and  N_30
REMARK                            x       y       z     vdW  Elec       q    Type
REMARK                         _______ _______ _______ _____ _____    ______ ____
ROOT
ATOM      1  C   UNL     1       0.456   0.670  -0.054  0.00  0.00    +0.099 C 
ENDROOT
BRANCH   1   2
ATOM      2  C   UNL     1      -0.169   0.764   1.314  0.00  0.00    +0.229 C 
ATOM      3  O   UNL     1      -1.295   1.196   1.437  0.00  0.00    -0.274 OA
ATOM      4  N   UNL     1       0.524   0.367   2.400  0.00  0.00    -0.236 N 
ATOM      5  H   UNL     1       1.425   0.021   2.301  0.00  0.00    +0.173 HD
BRANCH   4   6
ATOM      6  N   UNL     1      -0.057   0.454   3.671  0.00  0.00    -0.262 N 
ATOM      7  H   UNL     1      -0.958   0.800   3.770  0.00  0.00    +0.170 HD
BRANCH   6   8
ATOM      8  C   UNL     1       0.661   0.043   4.797  0.00  0.00    +0.075 A 
ATOM      9  C   UNL     1       1.991  -0.338   4.673  0.00  0.00    +0.029 A 
ATOM     10  C   UNL     1       2.698  -0.743   5.788  0.00  0.00    +0.035 A 
ATOM     11  C   UNL     1       2.083  -0.770   7.027  0.00  0.00    +0.128 A 
ATOM     12  C   UNL     1       0.759  -0.391   7.153  0.00  0.00    +0.067 A 
ATOM     13  C   UNL     1       0.048   0.020   6.043  0.00  0.00    +0.150 A 
BRANCH  13  14
ATOM     14  N   UNL     1      -1.368   0.430   6.181  0.00  0.00    +0.058 N 
ATOM     15  O   UNL     1      -1.924   0.346   7.261  0.00  0.00    -0.126 OA
ATOM     16  O   UNL     1      -1.976   0.852   5.213  0.00  0.00    -0.126 OA
ENDBRANCH  13  14
BRANCH  11  17
ATOM     17  N   UNL     1       2.844  -1.205   8.219  0.00  0.00    +0.056 N 
ATOM     18  O   UNL     1       4.010  -1.539   8.110  0.00  0.00    -0.126 OA
ATOM     19  O   UNL     1       2.304  -1.229   9.311  0.00  0.00    -0.126 OA
ENDBRANCH  11  17
ENDBRANCH   6   8
ENDBRANCH   4   6
ENDBRANCH   1   2
BRANCH   1  20
ATOM     20  C   UNL     1      -0.534   1.180  -1.103  0.00  0.00    +0.029 C 
BRANCH  20  21
ATOM     21  C   UNL     1       0.101   1.085  -2.492  0.00  0.00    +0.115 C 
BRANCH  21  26
ATOM     22  C   UNL     1      -2.046   4.517  -5.361  0.00  0.00    +0.028 C 
ATOM     23  C   UNL     1      -1.823   3.285  -4.840  0.00  0.00    +0.077 C 
ATOM     24  C   UNL     1      -0.842   2.856  -3.820  0.00  0.00    +0.258 C 
ATOM     25  O   UNL     1      -0.071   3.643  -3.304  0.00  0.00    -0.269 OA
ATOM     26  N   UNL     1      -0.847   1.574  -3.497  0.00  0.00    -0.255 N 
ATOM     27  C   UNL     1      -1.700   0.704  -4.075  0.00  0.00    +0.121 C 
ATOM     28  S   UNL     1      -1.853  -0.978  -3.798  0.00  0.00    -0.027 S 
ATOM     29  S   UNL     1      -2.635   1.732  -5.197  0.00  0.00    -0.061 S 
BRANCH  22  34
ATOM     30  C   UNL     1      -4.350   3.719  -8.214  0.00  0.00    +0.121 A 
ATOM     31  C   UNL     1      -4.712   4.994  -8.629  0.00  0.00    +0.045 A 
ATOM     32  C   UNL     1      -4.207   6.108  -7.981  0.00  0.00    +0.004 A 
ATOM     33  C   UNL     1      -3.341   5.960  -6.919  0.00  0.00    +0.008 A 
ATOM     34  C   UNL     1      -2.970   4.680  -6.493  0.00  0.00    -0.020 A 
ATOM     35  C   UNL     1      -3.477   3.556  -7.153  0.00  0.00    +0.053 A 
BRANCH  30  37
ATOM     36  C   UNL     1      -5.742   2.871  -9.945  0.00  0.00    +0.277 C 
ATOM     37  O   UNL     1      -4.850   2.630  -8.855  0.00  0.00    -0.495 OA
ENDBRANCH  30  37
ENDBRANCH  22  34
ENDBRANCH  21  26
ENDBRANCH  20  21
ENDBRANCH   1  20
TORSDOF 10
