REMARK  Name = ZINC22925011
REMARK  12 active torsions:
REMARK  status: ('A' for Active; 'I' for Inactive)
REMARK    1  A    between atoms: C_1  and  C_2
REMARK    2  A    between atoms: C_6  and  C_33
REMARK    3  A    between atoms: C_9  and  O_11
REMARK    4  A    between atoms: O_11  and  C_12
REMARK    5  A    between atoms: C_12  and  C_13
REMARK    6  A    between atoms: C_13  and  C_15
REMARK    7  A    between atoms: C_13  and  O_32
REMARK    8  A    between atoms: C_15  and  N_16
REMARK    9  A    between atoms: N_19  and  C_22
REMARK   10  A    between atoms: C_22  and  C_23
REMARK   11  A    between atoms: C_33  and  C_34
REMARK   12  A    between atoms: C_33  and  C_35
REMARK                            x       y       z     vdW  Elec       q    Type
REMARK                         _______ _______ _______ _____ _____    ______ ____
ROOT
ATOM      1  N   UNL     1      -0.700   1.560   1.217  0.00  0.00    -0.303 NA
ATOM      2  C   UNL     1      -0.612   3.022   1.334  0.00  0.00    +0.066 C 
ATOM      3  C   UNL     1      -1.405   3.482   2.559  0.00  0.00    -0.063 C 
ATOM      4  N   UNL     1      -0.870   2.826   3.761  0.00  0.00    +0.384 N 
ATOM      5  C   UNL     1      -0.959   1.364   3.643  0.00  0.00    -0.063 C 
ATOM      6  C   UNL     1      -0.165   0.904   2.418  0.00  0.00    +0.066 C 
ATOM      7  H   UNL     1       0.192   3.096   3.850  0.00  0.00    -0.081 HD
ENDROOT
BRANCH   1   8
ATOM      8  C   UNL     1      -0.013   1.086   0.008  0.00  0.00    +0.117 C 
BRANCH   8   9
ATOM      9  C   UNL     1      -0.753   1.593  -1.232  0.00  0.00    +0.154 C 
BRANCH   9  10
ATOM     10  O   UNL     1      -2.093   1.098  -1.221  0.00  0.00    -0.388 OA
ATOM     11  H   UNL     1      -2.766   1.350  -0.389  0.00  0.00    +0.210 HD
ENDBRANCH   9  10
BRANCH   9  12
ATOM     12  C   UNL     1      -0.037   1.099  -2.490  0.00  0.00    +0.192 C 
BRANCH  12  13
ATOM     13  O   UNL     1      -0.658   1.667  -3.645  0.00  0.00    -0.374 OA
BRANCH  13  20
ATOM     14  C   UNL     1       0.412   1.960  -7.235  0.00  0.00    +0.010 C 
ATOM     15  C   UNL     1      -0.226   2.387  -5.911  0.00  0.00    +0.015 C 
ATOM     16  C   UNL     1      -1.714   2.665  -6.129  0.00  0.00    +0.006 C 
ATOM     17  C   UNL     1      -2.401   1.397  -6.641  0.00  0.00    +0.004 C 
ATOM     18  C   UNL     1      -2.236   0.278  -5.610  0.00  0.00    -0.006 C 
ATOM     19  C   UNL     1      -0.748  -0.000  -5.392  0.00  0.00    +0.035 C 
ATOM     20  C   UNL     1      -0.062   1.268  -4.881  0.00  0.00    +0.121 C 
BRANCH  18  21
ATOM     21  C   UNL     1      -2.923  -0.991  -6.122  0.00  0.00    -0.014 C 
ATOM     22  C   UNL     1      -2.759  -2.110  -5.091  0.00  0.00    +0.007 C 
ATOM     23  C   UNL     1      -4.411  -0.713  -6.340  0.00  0.00    +0.007 C 
ENDBRANCH  18  21
ENDBRANCH  13  20
ENDBRANCH  12  13
ENDBRANCH   9  12
ENDBRANCH   8   9
ENDBRANCH   1   8
BRANCH   4  24
ATOM     24  C   UNL     1      -1.558   3.300   4.969  0.00  0.00    -0.043 C 
BRANCH  24  25
ATOM     25  C   UNL     1      -1.242   4.757   5.189  0.00  0.00    -0.060 A 
ATOM     26  C   UNL     1      -0.149   5.118   5.955  0.00  0.00    +0.005 A 
ATOM     27  C   UNL     1       0.148   6.453   6.154  0.00  0.00    +0.050 A 
ATOM     28  C   UNL     1      -0.656   7.434   5.596  0.00  0.00    +0.166 A 
ATOM     29  C   UNL     1      -1.760   7.070   4.829  0.00  0.00    +0.166 A 
ATOM     30  C   UNL     1      -2.048   5.730   4.628  0.00  0.00    +0.051 A 
ATOM     31  O   UNL     1      -2.383   8.205   4.396  0.00  0.00    -0.453 OA
ATOM     32  C   UNL     1      -1.889   9.261   5.241  0.00  0.00    +0.466 C 
ATOM     33  O   UNL     1      -0.588   8.796   5.644  0.00  0.00    -0.453 OA
ENDBRANCH  24  25
ENDBRANCH   4  24
TORSDOF 9
