REMARK  Name = ZINC06918767
REMARK  7 active torsions:
REMARK  status: ('A' for Active; 'I' for Inactive)
REMARK    1  A    between atoms: C_1  and  C_2
REMARK    2  A    between atoms: C_4  and  N_28
REMARK    3  A    between atoms: C_7  and  C_9
REMARK    4  A    between atoms: C_9  and  S_10
REMARK    5  A    between atoms: S_10  and  C_11
REMARK    6  A    between atoms: N_21  and  C_22
REMARK    7  A    between atoms: C_22  and  C_23
REMARK                            x       y       z     vdW  Elec       q    Type
REMARK                         _______ _______ _______ _____ _____    ______ ____
ROOT
ATOM      1  C   UNL     1      -4.064   1.847   0.031  0.00  0.00    +0.173 A 
ATOM      2  N   UNL     1      -3.832   3.136   0.037  0.00  0.00    -0.223 NA
ATOM      3  C   UNL     1      -4.836   4.035   0.047  0.00  0.00    +0.079 A 
ATOM      4  C   UNL     1      -4.588   5.411   0.054  0.00  0.00    +0.028 A 
ATOM      5  C   UNL     1      -5.636   6.287   0.064  0.00  0.00    +0.002 A 
ATOM      6  C   UNL     1      -6.949   5.832   0.068  0.00  0.00    +0.001 A 
ATOM      7  C   UNL     1      -7.223   4.492   0.061  0.00  0.00    +0.015 A 
ATOM      8  C   UNL     1      -6.173   3.575   0.051  0.00  0.00    +0.065 A 
ATOM      9  C   UNL     1      -6.408   2.125   0.044  0.00  0.00    +0.263 A 
ATOM     10  O   UNL     1      -7.536   1.668   0.047  0.00  0.00    -0.267 OA
ATOM     11  N   UNL     1      -5.323   1.316   0.029  0.00  0.00    -0.282 N 
ENDROOT
BRANCH   1  12
ATOM     12  S   UNL     1      -2.689   0.745   0.019  0.00  0.00    -0.078 S 
BRANCH  12  13
ATOM     13  C   UNL     1      -1.329   1.940   0.019  0.00  0.00    +0.178 C 
BRANCH  13  20
ATOM     14  C   UNL     1       3.127   4.976  -0.000  0.00  0.00    +0.067 C 
ATOM     15  C   UNL     1       2.548   3.585  -0.002  0.00  0.00    +0.062 A 
ATOM     16  C   UNL     1       3.283   2.394  -0.016  0.00  0.00    +0.068 A 
ATOM     17  C   UNL     1       2.401   1.358  -0.008  0.00  0.00    +0.123 A 
ATOM     18  N   UNL     1       1.144   1.894   0.001  0.00  0.00    -0.185 N 
ATOM     19  N   UNL     1       1.275   3.288   0.008  0.00  0.00    -0.168 NA
ATOM     20  C   UNL     1      -0.014   1.204   0.009  0.00  0.00    +0.259 C 
ATOM     21  O   UNL     1       0.002  -0.004   0.002  0.00  0.00    -0.270 OA
BRANCH  17  22
ATOM     22  N   UNL     1       2.720   0.006  -0.012  0.00  0.00    -0.343 N 
ATOM     23  H   UNL     1       2.013  -0.658  -0.008  0.00  0.00    +0.144 HD
ATOM     24  H   UNL     1       3.649  -0.273  -0.019  0.00  0.00    +0.144 HD
ENDBRANCH  17  22
ENDBRANCH  13  20
ENDBRANCH  12  13
ENDBRANCH   1  12
BRANCH  11  25
ATOM     25  C   UNL     1      -5.500  -0.138   0.016  0.00  0.00    +0.169 C 
BRANCH  25  26
ATOM     26  C   UNL     1      -5.558  -0.649   1.432  0.00  0.00    +0.010 A 
ATOM     27  C   UNL     1      -6.635  -0.807   2.240  0.00  0.00    +0.013 A 
ATOM     28  C   UNL     1      -6.450  -1.302   3.517  0.00  0.00    +0.008 A 
ATOM     29  C   UNL     1      -5.194  -1.607   3.927  0.00  0.00    +0.045 A 
ATOM     30  S   UNL     1      -4.224  -1.198   2.485  0.00  0.00    -0.100 S 
ENDBRANCH  25  26
ENDBRANCH  11  25
TORSDOF 6
