REMARK  Name = ZINC35432265
REMARK  9 active torsions:
REMARK  status: ('A' for Active; 'I' for Inactive)
REMARK    1  A    between atoms: C_1  and  C_2
REMARK    2  A    between atoms: C_5  and  C_37
REMARK    3  A    between atoms: C_6  and  N_8
REMARK    4  A    between atoms: C_9  and  C_11
REMARK    5  A    between atoms: C_11  and  S_12
REMARK    6  A    between atoms: S_12  and  C_13
REMARK    7  A    between atoms: C_24  and  C_26
REMARK    8  A    between atoms: N_29  and  C_30
REMARK    9  A    between atoms: C_30  and  C_31
REMARK                            x       y       z     vdW  Elec       q    Type
REMARK                         _______ _______ _______ _____ _____    ______ ____
ROOT
ATOM      1  C   UNL     1       0.560  -2.743   7.675  0.00  0.00    +0.173 A 
ATOM      2  N   UNL     1       0.573  -4.052   7.519  0.00  0.00    -0.216 NA
ATOM      3  C   UNL     1       0.677  -4.861   8.566  0.00  0.00    +0.117 A 
ATOM      4  C   UNL     1       0.778  -4.373   9.880  0.00  0.00    +0.076 A 
ATOM      5  C   UNL     1       0.886  -5.385  10.933  0.00  0.00    -0.020 A 
ATOM      6  C   UNL     1       0.876  -6.675  10.541  0.00  0.00    +0.013 A 
ATOM      7  S   UNL     1       0.730  -6.622   8.776  0.00  0.00    -0.072 S 
ATOM      8  C   UNL     1       0.966  -7.887  11.420  0.00  0.00    +0.150 C 
ATOM      9  N   UNL     1       1.300  -7.417  12.779  0.00  0.00    -0.297 N 
ATOM     10  C   UNL     1       0.612  -6.212  13.267  0.00  0.00    +0.113 C 
ATOM     11  C   UNL     1       1.010  -5.012  12.408  0.00  0.00    +0.056 C 
ATOM     12  C   UNL     1       2.200  -8.067  13.543  0.00  0.00    +0.213 C 
ATOM     13  O   UNL     1       2.395  -7.712  14.686  0.00  0.00    -0.276 OA
ATOM     14  C   UNL     1       2.966  -9.234  12.976  0.00  0.00    +0.109 C 
ATOM     15  C   UNL     1       0.762  -2.949  10.019  0.00  0.00    +0.263 A 
ATOM     16  O   UNL     1       0.845  -2.434  11.121  0.00  0.00    -0.267 OA
ATOM     17  N   UNL     1       0.659  -2.185   8.916  0.00  0.00    -0.285 N 
ENDROOT
BRANCH   1  18
ATOM     18  S   UNL     1       0.420  -1.701   6.261  0.00  0.00    -0.078 S 
BRANCH  18  19
ATOM     19  C   UNL     1       0.318  -2.860   4.869  0.00  0.00    +0.173 C 
BRANCH  19  21
ATOM     20  N   UNL     1       0.102  -2.745   2.408  0.00  0.00    -0.285 N 
ATOM     21  C   UNL     1       0.193  -2.088   3.581  0.00  0.00    +0.227 C 
ATOM     22  O   UNL     1       0.175  -0.875   3.600  0.00  0.00    -0.275 OA
ATOM     23  H   UNL     1       0.034  -3.713   2.398  0.00  0.00    +0.155 HD
BRANCH  20  29
ATOM     24  C   UNL     1       1.326   1.292  -0.116  0.00  0.00    +0.044 C 
ATOM     25  C   UNL     1       0.690  -0.072  -0.048  0.00  0.00    -0.049 A 
ATOM     26  C   UNL     1       0.107  -0.621  -1.176  0.00  0.00    +0.004 A 
ATOM     27  C   UNL     1      -0.477  -1.872  -1.117  0.00  0.00    +0.005 A 
ATOM     28  C   UNL     1      -0.480  -2.579   0.070  0.00  0.00    -0.029 A 
ATOM     29  C   UNL     1       0.104  -2.032   1.204  0.00  0.00    +0.037 A 
ATOM     30  C   UNL     1       0.694  -0.776   1.141  0.00  0.00    +0.027 A 
ATOM     31  C   UNL     1      -1.117  -3.943   0.133  0.00  0.00    +0.045 C 
ENDBRANCH  20  29
ENDBRANCH  19  21
ENDBRANCH  18  19
ENDBRANCH   1  18
BRANCH  17  32
ATOM     32  C   UNL     1       0.647  -0.726   9.050  0.00  0.00    +0.159 C 
BRANCH  32  33
ATOM     33  C   UNL     1      -0.794  -0.242   9.223  0.00  0.00    +0.138 C 
ATOM     34  C   UNL     1      -0.833   1.304   9.332  0.00  0.00    +0.035 C 
ATOM     35  C   UNL     1      -2.280   1.597   8.851  0.00  0.00    +0.031 C 
ATOM     36  C   UNL     1      -2.502   0.499   7.788  0.00  0.00    +0.160 C 
ATOM     37  O   UNL     1      -1.569  -0.557   8.055  0.00  0.00    -0.375 OA
ENDBRANCH  32  33
ENDBRANCH  17  32
TORSDOF 6
