REMARK  Name = ZINC13640446
REMARK  8 active torsions:
REMARK  status: ('A' for Active; 'I' for Inactive)
REMARK    1  A    between atoms: N_9  and  C_10
REMARK    2  A    between atoms: C_10  and  C_11
REMARK    3  A    between atoms: C_11  and  N_12
REMARK    4  A    between atoms: N_18  and  C_19
REMARK    5  A    between atoms: C_19  and  C_21
REMARK    6  A    between atoms: C_24  and  C_26
REMARK    7  A    between atoms: C_26  and  O_27
REMARK    8  A    between atoms: O_27  and  C_28
REMARK                            x       y       z     vdW  Elec       q    Type
REMARK                         _______ _______ _______ _____ _____    ______ ____
ROOT
ATOM      1  C   UNL     1      -0.015   1.377   0.027  0.00  0.00    +0.002 A 
ATOM      2  C   UNL     1       1.172   2.091   0.030  0.00  0.00    +0.002 A 
ATOM      3  C   UNL     1       2.383   1.429   0.016  0.00  0.00    +0.028 A 
ATOM      4  C   UNL     1       2.412   0.042  -0.002  0.00  0.00    +0.068 A 
ATOM      5  C   UNL     1       1.216  -0.678  -0.005  0.00  0.00    +0.066 A 
ATOM      6  C   UNL     1       0.003  -0.003   0.009  0.00  0.00    +0.028 A 
ATOM      7  N   UNL     1       1.549  -2.029  -0.023  0.00  0.00    -0.326 N 
ATOM      8  C   UNL     1       2.906  -2.133  -0.031  0.00  0.00    +0.201 A 
ATOM      9  N   UNL     1       3.450  -0.885  -0.018  0.00  0.00    -0.314 N 
ATOM     10  N   UNL     1       3.590  -3.270  -0.049  0.00  0.00    -0.140 NA
ATOM     11  H   UNL     1       0.922  -2.769  -0.030  0.00  0.00    +0.169 HD
ENDROOT
BRANCH  10  12
ATOM     12  C   UNL     1       2.946  -4.441   0.052  0.00  0.00    +0.305 C 
ATOM     13  O   UNL     1       1.726  -4.468   0.062  0.00  0.00    -0.265 OA
BRANCH  12  14
ATOM     14  C   UNL     1       3.710  -5.694   0.148  0.00  0.00    +0.192 A 
ATOM     15  C   UNL     1       3.183  -6.948   0.249  0.00  0.00    +0.055 A 
ATOM     16  C   UNL     1       4.268  -7.838   0.317  0.00  0.00    +0.049 A 
ATOM     17  C   UNL     1       5.394  -7.096   0.255  0.00  0.00    +0.143 A 
ATOM     18  O   UNL     1       5.054  -5.805   0.147  0.00  0.00    -0.452 OA
BRANCH  17  19
ATOM     19  C   UNL     1       6.802  -7.633   0.293  0.00  0.00    +0.303 C 
BRANCH  19  20
ATOM     20  O   UNL     1       7.243  -7.909  -1.038  0.00  0.00    -0.478 OA
BRANCH  20  21
ATOM     21  C   UNL     1       8.502  -8.404  -1.181  0.00  0.00    +0.197 A 
ATOM     22  C   UNL     1       9.575  -7.537  -1.338  0.00  0.00    +0.203 A 
ATOM     23  C   UNL     1      10.857  -8.043  -1.483  0.00  0.00    +0.165 A 
ATOM     24  C   UNL     1      11.068  -9.411  -1.471  0.00  0.00    +0.082 A 
ATOM     25  C   UNL     1       9.999 -10.277  -1.314  0.00  0.00    +0.165 A 
ATOM     26  C   UNL     1       8.716  -9.775  -1.164  0.00  0.00    +0.203 A 
ATOM     27  F   UNL     1       7.674 -10.620  -1.006  0.00  0.00    -0.199 F 
ATOM     28  F   UNL     1      10.207 -11.611  -1.303  0.00  0.00    -0.202 F 
ATOM     29  F   UNL     1      11.902  -7.200  -1.637  0.00  0.00    -0.202 F 
ATOM     30  F   UNL     1       9.370  -6.202  -1.350  0.00  0.00    -0.199 F 
ENDBRANCH  20  21
ENDBRANCH  19  20
ENDBRANCH  17  19
ENDBRANCH  12  14
ENDBRANCH  10  12
BRANCH   9  31
ATOM     31  C   UNL     1       4.881  -0.572  -0.021  0.00  0.00    +0.106 C 
BRANCH  31  32
ATOM     32  C   UNL     1       5.386  -0.481   1.420  0.00  0.00    -0.057 C 
BRANCH  32  33
ATOM     33  N   UNL     1       6.821  -0.167   1.417  0.00  0.00    +0.381 N 
ATOM     34  C   UNL     1       7.562  -1.277   0.807  0.00  0.00    -0.079 C 
ATOM     35  C   UNL     1       9.048  -0.921   0.728  0.00  0.00    -0.019 C 
ATOM     36  C   UNL     1       9.582  -0.664   2.140  0.00  0.00    -0.004 C 
ATOM     37  C   UNL     1       8.753   0.445   2.794  0.00  0.00    -0.019 C 
ATOM     38  C   UNL     1       7.278   0.038   2.797  0.00  0.00    -0.079 C 
ATOM     39  H   UNL     1       6.979   0.674   0.883  0.00  0.00    -0.082 HD
ENDBRANCH  32  33
ENDBRANCH  31  32
ENDBRANCH   9  31
TORSDOF 8
