REMARK  Name = ZINC13496413
REMARK  7 active torsions:
REMARK  status: ('A' for Active; 'I' for Inactive)
REMARK    1  A    between atoms: C_3  and  O_32
REMARK    2  A    between atoms: C_6  and  C_7
REMARK    3  A    between atoms: C_7  and  C_8
REMARK    4  A    between atoms: C_8  and  N_9
REMARK    5  A    between atoms: N_9  and  C_10
REMARK    6  A    between atoms: C_13  and  N_19
REMARK    7  A    between atoms: C_15  and  N_16
REMARK                            x       y       z     vdW  Elec       q    Type
REMARK                         _______ _______ _______ _____ _____    ______ ____
ROOT
ATOM      1  C   UNL     1      -3.787  -1.928  -2.627  0.00  0.00    +0.058 A 
ATOM      2  C   UNL     1      -3.255  -1.483  -3.831  0.00  0.00    +0.027 A 
ATOM      3  C   UNL     1      -3.692  -2.026  -5.022  0.00  0.00    +0.026 A 
ATOM      4  C   UNL     1      -4.665  -3.017  -5.017  0.00  0.00    +0.046 A 
ATOM      5  C   UNL     1      -5.197  -3.462  -3.815  0.00  0.00    +0.058 A 
ATOM      6  C   UNL     1      -4.755  -2.924  -2.623  0.00  0.00    +0.149 A 
ENDROOT
BRANCH   4   7
ATOM      7  N   UNL     1      -5.110  -3.569  -6.229  0.00  0.00    -0.210 N 
ATOM      8  C   UNL     1      -6.061  -4.536  -6.302  0.00  0.00    +0.230 C 
ATOM      9  O   UNL     1      -6.498  -5.198  -5.384  0.00  0.00    -0.274 OA
ATOM     10  C   UNL     1      -6.463  -4.621  -7.743  0.00  0.00    +0.092 C 
ATOM     11  C   UNL     1      -6.834  -5.976  -8.306  0.00  0.00    +0.040 C 
ATOM     12  C   UNL     1      -6.848  -5.838  -9.813  0.00  0.00    -0.030 C 
ATOM     13  C   UNL     1      -6.272  -4.875 -10.466  0.00  0.00    -0.030 C 
ATOM     14  C   UNL     1      -5.478  -3.759  -9.820  0.00  0.00    +0.040 C 
ATOM     15  C   UNL     1      -5.123  -4.205  -8.425  0.00  0.00    +0.092 C 
ATOM     16  C   UNL     1      -4.636  -3.183  -7.442  0.00  0.00    +0.230 C 
ATOM     17  O   UNL     1      -3.954  -2.209  -7.680  0.00  0.00    -0.274 OA
ENDBRANCH   4   7
BRANCH   6  18
ATOM     18  N   UNL     1      -5.318  -3.403  -1.340  0.00  0.00    +0.058 N 
ATOM     19  O   UNL     1      -4.605  -3.513  -0.371  0.00  0.00    -0.126 OA
ATOM     20  O   UNL     1      -6.492  -3.683  -1.263  0.00  0.00    -0.126 OA
ENDBRANCH   6  18
BRANCH   1  21
ATOM     21  N   UNL     1      -3.344  -1.377  -1.421  0.00  0.00    -0.342 N 
ATOM     22  H   UNL     1      -3.775  -1.626  -0.587  0.00  0.00    +0.146 HD
BRANCH  21  23
ATOM     23  C   UNL     1      -2.230  -0.426  -1.415  0.00  0.00    +0.106 C 
BRANCH  23  24
ATOM     24  C   UNL     1      -1.948   0.020   0.022  0.00  0.00    +0.054 C 
BRANCH  24  30
ATOM     25  C   UNL     1      -1.051   2.353  -0.099  0.00  0.00    +0.007 A 
ATOM     26  C   UNL     1      -0.002   3.252  -0.093  0.00  0.00    +0.045 A 
ATOM     27  C   UNL     1       1.301   2.796   0.040  0.00  0.00    +0.117 A 
ATOM     28  C   UNL     1       1.548   1.436   0.167  0.00  0.00    +0.045 A 
ATOM     29  C   UNL     1       0.496   0.541   0.160  0.00  0.00    +0.007 A 
ATOM     30  C   UNL     1      -0.802   0.999   0.028  0.00  0.00    -0.046 A 
BRANCH  27  31
ATOM     31  O   UNL     1       2.334   3.678   0.046  0.00  0.00    -0.507 OA
ATOM     32  H   UNL     1       2.568   4.004   0.925  0.00  0.00    +0.292 HD
ENDBRANCH  27  31
ENDBRANCH  24  30
ENDBRANCH  23  24
ENDBRANCH  21  23
ENDBRANCH   1  21
TORSDOF 7
