REMARK  Name = ZINC66156516
REMARK  6 active torsions:
REMARK  status: ('A' for Active; 'I' for Inactive)
REMARK    1  A    between atoms: C_3  and  C_23
REMARK    2  A    between atoms: N_6  and  C_8
REMARK    3  A    between atoms: C_8  and  C_9
REMARK    4  A    between atoms: N_14  and  C_15
REMARK    5  A    between atoms: C_23  and  C_24
REMARK    6  A    between atoms: C_24  and  C_25
REMARK                            x       y       z     vdW  Elec       q    Type
REMARK                         _______ _______ _______ _____ _____    ______ ____
ROOT
ATOM      1  C   UNL     1       0.662  -1.962   1.218  0.00  0.00    +0.019 C 
ENDROOT
BRANCH   1   2
ATOM      2  C   UNL     1      -0.767  -2.413   1.382  0.00  0.00    +0.204 C 
ATOM      3  O   UNL     1      -1.655  -1.592   1.468  0.00  0.00    -0.277 OA
ATOM      4  N   UNL     1      -1.056  -3.728   1.434  0.00  0.00    -0.242 N 
ATOM      5  C   UNL     1      -2.334  -4.131   1.582  0.00  0.00    +0.306 C 
ATOM      6  O   UNL     1      -3.225  -3.308   1.668  0.00  0.00    -0.252 OA
ATOM      7  N   UNL     1      -2.624  -5.446   1.634  0.00  0.00    -0.295 N 
ATOM      8  H   UNL     1      -0.346  -4.384   1.366  0.00  0.00    +0.159 HD
ATOM      9  H   UNL     1      -1.913  -6.103   1.565  0.00  0.00    +0.151 HD
BRANCH   7  10
ATOM     10  C   UNL     1      -4.013  -5.884   1.794  0.00  0.00    +0.097 C 
ATOM     11  C   UNL     1      -4.374  -5.930   3.288  0.00  0.00    +0.046 C 
ATOM     12  C   UNL     1      -5.709  -6.687   3.485  0.00  0.00    +0.168 C 
ATOM     13  S   UNL     1      -5.734  -7.842   2.054  0.00  0.00    -0.029 S 
ATOM     14  O   UNL     1      -6.842  -7.525   1.223  0.00  0.00    -0.174 OA
ATOM     15  O   UNL     1      -5.574  -9.172   2.530  0.00  0.00    -0.174 OA
ATOM     16  C   UNL     1      -4.182  -7.316   1.211  0.00  0.00    +0.188 C 
ENDBRANCH   7  10
ENDBRANCH   1   2
BRANCH   1  21
ATOM     17  C   UNL     1      -0.019   1.526   0.010  0.00  0.00    -0.018 C 
ATOM     18  C   UNL     1       1.420   2.051  -0.001  0.00  0.00    -0.000 C 
ATOM     19  C   UNL     1       2.172   1.474   1.202  0.00  0.00    -0.027 C 
ATOM     20  C   UNL     1       2.112  -0.054   1.150  0.00  0.00    -0.075 C 
ATOM     21  N   UNL     1       0.712  -0.494   1.190  0.00  0.00    +0.386 N 
ATOM     22  C   UNL     1       0.002  -0.004   0.002  0.00  0.00    -0.078 C 
ATOM     23  H   UNL     1       0.270  -0.128   2.019  0.00  0.00    -0.081 HD
BRANCH  19  24
ATOM     24  C   UNL     1       3.632   1.930   1.158  0.00  0.00    +0.011 C 
BRANCH  24  25
ATOM     25  C   UNL     1       3.697   3.449   1.331  0.00  0.00    +0.096 C 
BRANCH  25  26
ATOM     26  C   UNL     1       5.135   3.898   1.288  0.00  0.00    +0.210 C 
ATOM     27  O   UNL     1       6.020   3.084   1.134  0.00  0.00    -0.276 OA
ATOM     28  N   UNL     1       5.437   5.205   1.421  0.00  0.00    -0.329 N 
ATOM     29  H   UNL     1       4.729   5.856   1.544  0.00  0.00    +0.145 HD
ATOM     30  H   UNL     1       6.362   5.494   1.393  0.00  0.00    +0.145 HD
ENDBRANCH  25  26
ENDBRANCH  24  25
ENDBRANCH  19  24
ENDBRANCH   1  21
TORSDOF 6
