REMARK  Name = ZINC20385809
REMARK  11 active torsions:
REMARK  status: ('A' for Active; 'I' for Inactive)
REMARK    1  A    between atoms: C_1  and  C_2
REMARK    2  A    between atoms: C_5  and  C_8
REMARK    3  A    between atoms: C_8  and  N_9
REMARK    4  A    between atoms: C_12  and  N_20
REMARK    5  A    between atoms: N_23  and  C_24
REMARK    6  A    between atoms: C_26  and  C_34
REMARK    7  A    between atoms: C_28  and  C_30
REMARK    8  A    between atoms: C_30  and  O_32
REMARK    9  A    between atoms: O_32  and  C_33
REMARK   10  A    between atoms: C_34  and  O_36
REMARK   11  A    between atoms: O_36  and  C_37
REMARK                            x       y       z     vdW  Elec       q    Type
REMARK                         _______ _______ _______ _____ _____    ______ ____
ROOT
ATOM      1  N   UNL     1       2.676  -4.428  -5.553  0.00  0.00    -0.269 N 
ATOM      2  C   UNL     1       2.669  -3.993  -4.278  0.00  0.00    +0.308 C 
ATOM      3  O   UNL     1       3.127  -2.899  -4.007  0.00  0.00    -0.252 OA
ATOM      4  N   UNL     1       2.155  -4.769  -3.304  0.00  0.00    -0.269 N 
ATOM      5  H   UNL     1       2.192  -5.382  -5.811  0.00  0.00    +0.156 HD
ATOM      6  H   UNL     1       1.818  -5.790  -3.534  0.00  0.00    +0.156 HD
ENDROOT
BRANCH   1  10
ATOM      7  N   UNL     1       5.245  -4.204  -9.620  0.00  0.00    -0.265 N 
ATOM      8  C   UNL     1       4.585  -3.551  -8.583  0.00  0.00    +0.052 A 
ATOM      9  C   UNL     1       3.970  -4.299  -7.586  0.00  0.00    +0.048 A 
ATOM     10  C   UNL     1       3.298  -3.666  -6.552  0.00  0.00    +0.037 A 
ATOM     11  C   UNL     1       3.244  -2.279  -6.497  0.00  0.00    +0.024 A 
ATOM     12  C   UNL     1       3.859  -1.527  -7.480  0.00  0.00    +0.018 A 
ATOM     13  C   UNL     1       4.526  -2.158  -8.517  0.00  0.00    +0.030 A 
ATOM     14  S   UNL     1       5.319  -1.205  -9.774  0.00  0.00    -0.114 S 
ATOM     15  C   UNL     1       6.700  -2.279 -10.271  0.00  0.00    +0.170 C 
ATOM     16  C   UNL     1       6.194  -3.690 -10.397  0.00  0.00    +0.230 C 
ATOM     17  O   UNL     1       6.678  -4.398 -11.255  0.00  0.00    -0.274 OA
BRANCH   7  18
ATOM     18  C   UNL     1       4.855  -5.592  -9.881  0.00  0.00    +0.148 C 
BRANCH  18  23
ATOM     19  C   UNL     1       0.651  -5.700 -13.844  0.00  0.00    +0.044 C 
ATOM     20  C   UNL     1       1.747  -5.673 -12.810  0.00  0.00    -0.050 A 
ATOM     21  C   UNL     1       3.064  -5.842 -13.195  0.00  0.00    +0.003 A 
ATOM     22  C   UNL     1       4.070  -5.816 -12.247  0.00  0.00    +0.005 A 
ATOM     23  C   UNL     1       3.759  -5.620 -10.915  0.00  0.00    -0.030 A 
ATOM     24  C   UNL     1       2.442  -5.457 -10.529  0.00  0.00    +0.005 A 
ATOM     25  C   UNL     1       1.436  -5.478 -11.478  0.00  0.00    +0.003 A 
ENDBRANCH  18  23
ENDBRANCH   7  18
ENDBRANCH   1  10
BRANCH   4  26
ATOM     26  C   UNL     1       2.050  -4.275  -1.998  0.00  0.00    +0.036 A 
ATOM     27  C   UNL     1       2.219  -5.130  -0.919  0.00  0.00    +0.038 A 
ATOM     28  C   UNL     1       2.115  -4.641   0.385  0.00  0.00    +0.062 A 
ATOM     29  C   UNL     1       1.840  -3.292   0.602  0.00  0.00    +0.030 A 
ATOM     30  C   UNL     1       1.671  -2.435  -0.485  0.00  0.00    +0.062 A 
ATOM     31  C   UNL     1       1.772  -2.932  -1.786  0.00  0.00    +0.038 A 
BRANCH  30  32
ATOM     32  C   UNL     1       1.379  -1.004  -0.261  0.00  0.00    +0.339 C 
ATOM     33  O   UNL     1       1.232  -0.259  -1.208  0.00  0.00    -0.245 OA
BRANCH  32  34
ATOM     34  O   UNL     1       1.277  -0.527   0.995  0.00  0.00    -0.464 OA
ATOM     35  C   UNL     1       0.988   0.889   1.140  0.00  0.00    +0.280 C 
ENDBRANCH  32  34
ENDBRANCH  30  32
BRANCH  28  36
ATOM     36  C   UNL     1       2.295  -5.553   1.534  0.00  0.00    +0.339 C 
ATOM     37  O   UNL     1       2.534  -6.728   1.344  0.00  0.00    -0.245 OA
BRANCH  36  38
ATOM     38  O   UNL     1       2.193  -5.080   2.791  0.00  0.00    -0.464 OA
ATOM     39  C   UNL     1       2.382  -6.033   3.870  0.00  0.00    +0.280 C 
ENDBRANCH  36  38
ENDBRANCH  28  36
ENDBRANCH   4  26
TORSDOF 8
