REMARK  Name = ZINC42075208
REMARK  6 active torsions:
REMARK  status: ('A' for Active; 'I' for Inactive)
REMARK    1  A    between atoms: C_1  and  C_2
REMARK    2  A    between atoms: C_7  and  C_8
REMARK    3  A    between atoms: C_12  and  N_14
REMARK    4  A    between atoms: N_14  and  C_15
REMARK    5  A    between atoms: C_17  and  C_22
REMARK    6  A    between atoms: C_19  and  C_21
REMARK                            x       y       z     vdW  Elec       q    Type
REMARK                         _______ _______ _______ _____ _____    ______ ____
ROOT
ATOM      1  C   UNL     1      -0.018   1.503   0.010  0.00  0.00    +0.044 C 
ATOM      2  C   UNL     1       0.002  -0.004   0.002  0.00  0.00    -0.046 A 
ATOM      3  C   UNL     1       0.006  -0.685  -1.202  0.00  0.00    +0.004 A 
ATOM      4  C   UNL     1       0.024  -2.069  -1.210  0.00  0.00    +0.008 A 
ATOM      5  C   UNL     1       0.039  -2.762  -0.020  0.00  0.00    +0.003 A 
ATOM      6  C   UNL     1       0.036  -2.090   1.195  0.00  0.00    +0.042 A 
ATOM      7  C   UNL     1       0.023  -0.696   1.195  0.00  0.00    -0.026 A 
ATOM      8  C   UNL     1       0.025   0.056   2.501  0.00  0.00    +0.046 C 
ATOM      9  N   UNL     1       0.053  -3.002   2.251  0.00  0.00    -0.283 N 
ATOM     10  C   UNL     1       0.069  -4.275   1.823  0.00  0.00    +0.242 C 
ATOM     11  O   UNL     1       0.086  -5.269   2.518  0.00  0.00    -0.273 OA
ATOM     12  C   UNL     1       0.061  -4.237   0.310  0.00  0.00    +0.190 C 
ATOM     13  H   UNL     1       0.055  -2.746   3.187  0.00  0.00    +0.155 HD
ENDROOT
BRANCH  12  14
ATOM     14  N   UNL     1       1.271  -4.865  -0.226  0.00  0.00    -0.329 N 
ATOM     15  H   UNL     1       2.066  -4.332  -0.382  0.00  0.00    +0.147 HD
BRANCH  14  16
ATOM     16  C   UNL     1       1.280  -6.232  -0.513  0.00  0.00    +0.028 A 
ATOM     17  C   UNL     1       0.141  -6.996  -0.296  0.00  0.00    +0.026 A 
ATOM     18  C   UNL     1       0.153  -8.348  -0.581  0.00  0.00    -0.048 A 
ATOM     19  C   UNL     1       1.298  -8.940  -1.081  0.00  0.00    +0.006 A 
ATOM     20  C   UNL     1       2.434  -8.182  -1.298  0.00  0.00    -0.048 A 
ATOM     21  C   UNL     1       2.427  -6.829  -1.020  0.00  0.00    +0.026 A 
ATOM     22  C   UNL     1       3.680  -8.832  -1.843  0.00  0.00    +0.044 C 
ATOM     23  C   UNL     1      -1.083  -9.178  -0.346  0.00  0.00    +0.044 C 
ENDBRANCH  14  16
ENDBRANCH  12  14
TORSDOF 2
