REMARK  Name = ZINC00886064
REMARK  9 active torsions:
REMARK  status: ('A' for Active; 'I' for Inactive)
REMARK    1  A    between atoms: C_1  and  C_2
REMARK    2  A    between atoms: C_5  and  C_7
REMARK    3  A    between atoms: N_10  and  C_12
REMARK    4  A    between atoms: C_12  and  C_13
REMARK    5  A    between atoms: N_15  and  C_16
REMARK    6  A    between atoms: N_15  and  C_26
REMARK    7  A    between atoms: C_26  and  C_28
REMARK    8  A    between atoms: C_26  and  C_35
REMARK    9  A    between atoms: N_37  and  C_38
REMARK                            x       y       z     vdW  Elec       q    Type
REMARK                         _______ _______ _______ _____ _____    ______ ____
ROOT
ATOM      1  C   UNL     1       5.491  -4.566  -1.615  0.00  0.00    +0.244 C 
ATOM      2  O   UNL     1       4.646  -4.697  -2.476  0.00  0.00    -0.273 OA
ATOM      3  N   UNL     1       6.771  -4.902  -1.871  0.00  0.00    -0.254 N 
ENDROOT
BRANCH   3   4
ATOM      4  C   UNL     1       7.727  -4.848  -0.847  0.00  0.00    +0.041 A 
ATOM      5  C   UNL     1       8.720  -3.879  -0.875  0.00  0.00    +0.027 A 
ATOM      6  C   UNL     1       9.663  -3.827   0.133  0.00  0.00    +0.051 A 
ATOM      7  C   UNL     1       9.620  -4.741   1.176  0.00  0.00    +0.162 A 
ATOM      8  C   UNL     1       8.626  -5.711   1.207  0.00  0.00    +0.164 A 
ATOM      9  C   UNL     1       7.677  -5.761   0.197  0.00  0.00    +0.073 A 
ATOM     10  O   UNL     1       8.563  -6.612   2.226  0.00  0.00    -0.485 OA
ATOM     11  C   UNL     1       9.742  -6.764   3.024  0.00  0.00    +0.270 C 
ATOM     12  C   UNL     1      10.266  -5.366   3.378  0.00  0.00    +0.270 C 
ATOM     13  O   UNL     1      10.561  -4.676   2.159  0.00  0.00    -0.485 OA
ENDBRANCH   3   4
BRANCH   1  14
ATOM     14  C   UNL     1       5.109  -4.027  -0.261  0.00  0.00    +0.264 C 
BRANCH  14  18
ATOM     15  C   UNL     1       1.950  -2.468  -0.484  0.00  0.00    +0.239 A 
ATOM     16  N   UNL     1       1.613  -3.707  -0.094  0.00  0.00    -0.105 NA
ATOM     17  N   UNL     1       2.706  -4.382   0.023  0.00  0.00    -0.045 NA
ATOM     18  N   UNL     1       3.701  -3.623  -0.275  0.00  0.00    -0.154 N 
ATOM     19  N   UNL     1       3.266  -2.452  -0.593  0.00  0.00    -0.127 NA
BRANCH  15  24
ATOM     20  C   UNL     1       0.261   2.098  -1.709  0.00  0.00    +0.086 C 
ATOM     21  C   UNL     1       0.284   0.653  -1.281  0.00  0.00    +0.103 A 
ATOM     22  C   UNL     1      -0.795  -0.092  -0.974  0.00  0.00    +0.045 A 
ATOM     23  C   UNL     1      -0.325  -1.376  -0.630  0.00  0.00    +0.053 A 
ATOM     24  C   UNL     1       1.028  -1.342  -0.747  0.00  0.00    +0.175 A 
ATOM     25  O   UNL     1       1.384  -0.106  -1.148  0.00  0.00    -0.457 OA
ENDBRANCH  15  24
ENDBRANCH  14  18
ENDBRANCH   1  14
BRANCH   3  26
ATOM     26  C   UNL     1       7.163  -5.322  -3.218  0.00  0.00    +0.197 C 
BRANCH  26  27
ATOM     27  C   UNL     1       8.659  -5.497  -3.274  0.00  0.00    -0.018 A 
ATOM     28  C   UNL     1       9.283  -6.385  -2.418  0.00  0.00    +0.009 A 
ATOM     29  C   UNL     1      10.655  -6.547  -2.469  0.00  0.00    +0.038 A 
ATOM     30  C   UNL     1      11.404  -5.819  -3.378  0.00  0.00    +0.123 A 
ATOM     31  C   UNL     1      10.777  -4.930  -4.235  0.00  0.00    +0.038 A 
ATOM     32  C   UNL     1       9.405  -4.774  -4.186  0.00  0.00    +0.009 A 
ATOM     33  F   UNL     1      12.745  -5.976  -3.428  0.00  0.00    -0.205 F 
ENDBRANCH  26  27
BRANCH  26  34
ATOM     34  C   UNL     1       6.492  -6.629  -3.552  0.00  0.00    +0.239 C 
ATOM     35  O   UNL     1       5.758  -7.157  -2.744  0.00  0.00    -0.273 OA
ATOM     36  N   UNL     1       6.707  -7.211  -4.748  0.00  0.00    -0.311 N 
ATOM     37  H   UNL     1       7.293  -6.789  -5.394  0.00  0.00    +0.149 HD
BRANCH  36  38
ATOM     38  C   UNL     1       6.053  -8.482  -5.073  0.00  0.00    +0.073 C 
ATOM     39  C   UNL     1       6.922  -9.661  -4.587  0.00  0.00    +0.022 C 
ATOM     40  C   UNL     1       6.748 -10.738  -5.687  0.00  0.00    +0.002 C 
ATOM     41  C   UNL     1       6.714  -9.897  -6.987  0.00  0.00    +0.002 C 
ATOM     42  C   UNL     1       5.921  -8.632  -6.598  0.00  0.00    +0.022 C 
ENDBRANCH  36  38
ENDBRANCH  26  34
ENDBRANCH   3  26
TORSDOF 8
