REMARK  Name = ZINC39490849
REMARK  11 active torsions:
REMARK  status: ('A' for Active; 'I' for Inactive)
REMARK    1  A    between atoms: C_1  and  C_2
REMARK    2  A    between atoms: C_2  and  C_3
REMARK    3  A    between atoms: C_2  and  S_4
REMARK    4  A    between atoms: S_4  and  C_7
REMARK    5  A    between atoms: C_7  and  C_34
REMARK    6  A    between atoms: N_9  and  O_33
REMARK    7  A    between atoms: N_12  and  C_13
REMARK    8  A    between atoms: C_13  and  C_14
REMARK    9  A    between atoms: C_14  and  C_27
REMARK   10  A    between atoms: N_17  and  C_20
REMARK   11  A    between atoms: C_20  and  C_21
REMARK                            x       y       z     vdW  Elec       q    Type
REMARK                         _______ _______ _______ _____ _____    ______ ____
ROOT
ATOM      1  C   UNL     1      -5.236  -1.584   1.428  0.00  0.00    -0.014 C 
ATOM      2  C   UNL     1      -6.131  -2.592   0.702  0.00  0.00    -0.010 C 
ATOM      3  C   UNL     1      -5.690  -2.697  -0.760  0.00  0.00    -0.078 C 
ATOM      4  N   UNL     1      -5.806  -1.384  -1.405  0.00  0.00    +0.382 N 
ATOM      5  C   UNL     1      -4.897  -0.430  -0.759  0.00  0.00    -0.078 C 
ATOM      6  C   UNL     1      -5.307  -0.238   0.703  0.00  0.00    -0.010 C 
ATOM      7  H   UNL     1      -6.755  -1.052  -1.321  0.00  0.00    -0.081 HD
ENDROOT
BRANCH   1   8
ATOM      8  C   UNL     1      -5.719  -1.415   2.870  0.00  0.00    -0.003 C 
ATOM      9  C   UNL     1      -6.008  -2.790   3.476  0.00  0.00    +0.004 C 
ATOM     10  C   UNL     1      -6.491  -2.620   4.918  0.00  0.00    +0.000 C 
ATOM     11  C   UNL     1      -7.768  -1.779   4.932  0.00  0.00    +0.000 C 
ATOM     12  C   UNL     1      -7.480  -0.404   4.326  0.00  0.00    +0.000 C 
ATOM     13  C   UNL     1      -6.997  -0.573   2.884  0.00  0.00    +0.004 C 
ENDBRANCH   1   8
BRANCH   1  14
ATOM     14  C   UNL     1      -3.792  -2.090   1.429  0.00  0.00    +0.118 C 
BRANCH  14  20
ATOM     15  C   UNL     1      -3.796  -4.674   1.782  0.00  0.00    +0.171 C 
ATOM     16  C   UNL     1      -3.626  -5.523   3.057  0.00  0.00    +0.190 C 
ATOM     17  N   UNL     1      -3.447  -4.525   4.123  0.00  0.00    -0.164 N 
ATOM     18  C   UNL     1      -3.499  -3.298   3.590  0.00  0.00    +0.329 C 
ATOM     19  O   UNL     1      -3.379  -2.283   4.249  0.00  0.00    -0.250 OA
ATOM     20  N   UNL     1      -3.695  -3.289   2.264  0.00  0.00    -0.258 N 
ATOM     21  C   UNL     1      -2.681  -4.977   0.779  0.00  0.00    +0.059 C 
BRANCH  15  22
ATOM     22  S   UNL     1      -5.422  -4.970   1.033  0.00  0.00    -0.006 S 
ATOM     23  O   UNL     1      -5.407  -4.453  -0.291  0.00  0.00    -0.172 OA
ATOM     24  O   UNL     1      -6.422  -4.523   1.938  0.00  0.00    -0.172 OA
BRANCH  22  26
ATOM     25  C   UNL     1      -6.626  -7.196  -0.005  0.00  0.00    +0.031 C 
ATOM     26  C   UNL     1      -5.498  -6.780   0.942  0.00  0.00    +0.127 C 
ATOM     27  C   UNL     1      -4.166  -7.321   0.417  0.00  0.00    +0.031 C 
ENDBRANCH  22  26
ENDBRANCH  15  22
BRANCH  17  28
ATOM     28  O   UNL     1      -3.250  -4.816   5.495  0.00  0.00    -0.291 OA
ATOM     29  H   UNL     1      -3.150  -4.033   6.052  0.00  0.00    +0.242 HD
ENDBRANCH  17  28
ENDBRANCH  14  20
ENDBRANCH   1  14
BRANCH   4  30
ATOM     30  C   UNL     1      -5.456  -1.506  -2.826  0.00  0.00    -0.043 C 
BRANCH  30  31
ATOM     31  C   UNL     1      -5.587  -0.160  -3.493  0.00  0.00    -0.064 A 
ATOM     32  C   UNL     1      -6.817   0.262  -3.962  0.00  0.00    +0.002 A 
ATOM     33  C   UNL     1      -6.937   1.496  -4.573  0.00  0.00    +0.000 A 
ATOM     34  C   UNL     1      -5.828   2.308  -4.716  0.00  0.00    +0.000 A 
ATOM     35  C   UNL     1      -4.598   1.885  -4.246  0.00  0.00    +0.000 A 
ATOM     36  C   UNL     1      -4.479   0.653  -3.631  0.00  0.00    +0.002 A 
ENDBRANCH  30  31
ENDBRANCH   4  30
TORSDOF 8
