REMARK  Name = ZINC36274185
REMARK  5 active torsions:
REMARK  status: ('A' for Active; 'I' for Inactive)
REMARK    1  A    between atoms: C_3  and  C_6
REMARK    2  A    between atoms: C_7  and  C_16
REMARK    3  A    between atoms: C_10  and  N_15
REMARK    4  A    between atoms: C_16  and  N_17
REMARK    5  A    between atoms: C_21  and  C_24
REMARK                            x       y       z     vdW  Elec       q    Type
REMARK                         _______ _______ _______ _____ _____    ______ ____
ROOT
ATOM      1  C   UNL     1       3.741   1.825  -0.024  0.00  0.00    +0.098 A 
ATOM      2  C   UNL     1       4.805   1.234   0.592  0.00  0.00    +0.035 A 
ATOM      3  N   UNL     1       5.900   2.010   0.334  0.00  0.00    -0.303 N 
ATOM      4  C   UNL     1       7.214   1.898   0.697  0.00  0.00    +0.115 A 
ATOM      5  C   UNL     1       8.120   2.825   0.300  0.00  0.00    +0.041 A 
ATOM      6  C   UNL     1       7.714   3.917  -0.493  0.00  0.00    +0.028 A 
ATOM      7  C   UNL     1       6.410   4.035  -0.858  0.00  0.00    +0.048 A 
ATOM      8  C   UNL     1       5.480   3.062  -0.437  0.00  0.00    +0.139 A 
ATOM      9  N   UNL     1       4.177   2.932  -0.647  0.00  0.00    -0.227 NA
ENDROOT
BRANCH   1  12
ATOM     10  C   UNL     1      -0.016   1.353   0.009  0.00  0.00    +0.008 A 
ATOM     11  C   UNL     1       1.178   2.041   0.002  0.00  0.00    +0.018 A 
ATOM     12  C   UNL     1       2.347   1.329  -0.013  0.00  0.00    +0.039 A 
ATOM     13  S   UNL     1       1.752  -0.354  -0.017  0.00  0.00    -0.095 S 
ATOM     14  C   UNL     1       0.002  -0.004   0.002  0.00  0.00    +0.046 A 
ENDBRANCH   1  12
BRANCH   5  15
ATOM     15  N   UNL     1       9.463   2.697   0.679  0.00  0.00    -0.357 N 
ATOM     16  H   UNL     1       9.743   1.946   1.226  0.00  0.00    +0.142 HD
ATOM     17  H   UNL     1      10.112   3.360   0.396  0.00  0.00    +0.142 HD
ENDBRANCH   5  15
BRANCH   2  18
ATOM     18  C   UNL     1       4.779  -0.035   1.405  0.00  0.00    -0.022 C 
BRANCH  18  19
ATOM     19  N   UNL     1       4.517   0.291   2.813  0.00  0.00    +0.384 N 
ATOM     20  C   UNL     1       3.174   0.870   2.938  0.00  0.00    -0.078 C 
ATOM     21  C   UNL     1       2.927   1.286   4.390  0.00  0.00    -0.018 C 
ATOM     22  C   UNL     1       3.040   0.055   5.294  0.00  0.00    +0.011 C 
ATOM     23  C   UNL     1       4.418  -0.584   5.100  0.00  0.00    +0.086 C 
ATOM     24  C   UNL     1       4.610  -0.931   3.622  0.00  0.00    -0.064 C 
ATOM     25  H   UNL     1       5.200   0.959   3.135  0.00  0.00    -0.081 HD
BRANCH  23  26
ATOM     26  C   UNL     1       4.511  -1.840   5.928  0.00  0.00    +0.357 C 
ATOM     27  O   UNL     1       3.564  -2.192   6.611  0.00  0.00    -0.246 OA
ATOM     28  O   UNL     1       5.534  -2.504   5.915  0.00  0.00    -0.246 OA
ENDBRANCH  23  26
ENDBRANCH  18  19
ENDBRANCH   2  18
TORSDOF 5
