REMARK  Name = ZINC19219601
REMARK  9 active torsions:
REMARK  status: ('A' for Active; 'I' for Inactive)
REMARK    1  A    between atoms: C_1  and  C_2
REMARK    2  A    between atoms: C_10  and  C_35
REMARK    3  A    between atoms: C_11  and  C_12
REMARK    4  A    between atoms: C_12  and  C_14
REMARK    5  A    between atoms: C_12  and  O_34
REMARK    6  A    between atoms: C_14  and  N_15
REMARK    7  A    between atoms: C_22  and  O_33
REMARK    8  A    between atoms: C_26  and  C_32
REMARK    9  A    between atoms: C_27  and  C_31
REMARK                            x       y       z     vdW  Elec       q    Type
REMARK                         _______ _______ _______ _____ _____    ______ ____
ROOT
ATOM      1  N   UNL     1      -0.350   2.301  -0.418  0.00  0.00    +0.382 N 
ATOM      2  C   UNL     1       0.990   2.860  -0.639  0.00  0.00    -0.075 C 
ATOM      3  C   UNL     1       1.334   2.791  -2.129  0.00  0.00    +0.029 C 
ATOM      4  C   UNL     1       1.280   1.335  -2.594  0.00  0.00    +0.110 C 
ATOM      5  C   UNL     1      -0.107   0.758  -2.305  0.00  0.00    +0.029 C 
ATOM      6  C   UNL     1      -0.407   0.887  -0.810  0.00  0.00    -0.075 C 
ATOM      7  C   UNL     1       1.557   1.268  -4.100  0.00  0.00    +0.084 C 
ATOM      8  C   UNL     1       2.901   1.949  -4.372  0.00  0.00    +0.152 C 
ATOM      9  C   UNL     1       3.937   1.429  -3.408  0.00  0.00    +0.023 A 
ATOM     10  C   UNL     1       5.277   1.615  -3.706  0.00  0.00    +0.013 A 
ATOM     11  C   UNL     1       6.253   1.157  -2.842  0.00  0.00    -0.047 A 
ATOM     12  C   UNL     1       5.894   0.509  -1.674  0.00  0.00    -0.044 A 
ATOM     13  C   UNL     1       4.561   0.320  -1.373  0.00  0.00    +0.049 A 
ATOM     14  C   UNL     1       3.575   0.779  -2.241  0.00  0.00    +0.127 A 
ATOM     15  O   UNL     1       2.273   0.571  -1.913  0.00  0.00    -0.485 OA
ATOM     16  C   UNL     1       6.958   0.011  -0.731  0.00  0.00    +0.044 C 
ATOM     17  C   UNL     1       7.709   1.363  -3.172  0.00  0.00    +0.044 C 
ATOM     18  H   UNL     1      -1.054   2.855  -1.057  0.00  0.00    -0.082 HD
ENDROOT
BRANCH   8  19
ATOM     19  O   UNL     1       3.313   1.667  -5.711  0.00  0.00    -0.387 OA
ATOM     20  H   UNL     1       4.262   2.074  -6.092  0.00  0.00    +0.210 HD
ENDBRANCH   8  19
BRANCH   1  21
ATOM     21  C   UNL     1      -0.770   2.478   0.979  0.00  0.00    -0.042 C 
BRANCH  21  22
ATOM     22  C   UNL     1      -0.602   3.945   1.380  0.00  0.00    +0.130 C 
BRANCH  22  33
ATOM     23  C   UNL     1      -6.060   4.360   5.550  0.00  0.00    +0.044 C 
ATOM     24  C   UNL     1      -4.782   4.288   4.753  0.00  0.00    -0.048 A 
ATOM     25  C   UNL     1      -4.839   4.090   3.380  0.00  0.00    +0.004 A 
ATOM     26  C   UNL     1      -3.692   4.023   2.641  0.00  0.00    +0.010 A 
ATOM     27  C   UNL     1      -2.453   4.154   3.271  0.00  0.00    +0.005 A 
ATOM     28  C   UNL     1      -2.390   4.355   4.661  0.00  0.00    +0.047 A 
ATOM     29  C   UNL     1      -3.571   4.420   5.394  0.00  0.00    +0.029 A 
ATOM     30  N   UNL     1      -1.058   4.447   4.999  0.00  0.00    -0.358 N 
ATOM     31  H   UNL     1      -0.766   4.611   6.047  0.00  0.00    +0.166 HD
ATOM     32  C   UNL     1      -0.284   4.306   3.880  0.00  0.00    +0.019 A 
ATOM     33  C   UNL     1      -1.065   4.133   2.802  0.00  0.00    +0.007 A 
ATOM     34  C   UNL     1       1.222   4.345   3.859  0.00  0.00    +0.063 C 
ENDBRANCH  22  33
BRANCH  22  35
ATOM     35  O   UNL     1      -1.383   4.769   0.512  0.00  0.00    -0.389 OA
ATOM     36  H   UNL     1      -1.188   4.766  -0.571  0.00  0.00    +0.210 HD
ENDBRANCH  22  35
ENDBRANCH  21  22
ENDBRANCH   1  21
TORSDOF 5
