REMARK  Name = ZINC37140066
REMARK  7 active torsions:
REMARK  status: ('A' for Active; 'I' for Inactive)
REMARK    1  A    between atoms: C_1  and  C_2
REMARK    2  A    between atoms: C_2  and  C_4
REMARK    3  A    between atoms: C_2  and  N_12
REMARK    4  A    between atoms: C_7  and  O_11
REMARK    5  A    between atoms: C_9  and  O_10
REMARK    6  A    between atoms: N_12  and  C_13
REMARK    7  A    between atoms: C_18  and  N_19
REMARK                            x       y       z     vdW  Elec       q    Type
REMARK                         _______ _______ _______ _____ _____    ______ ____
ROOT
ATOM      1  C   UNL     1       0.409   0.743  -0.100  0.00  0.00    +0.033 C 
ATOM      2  C   UNL     1       0.164  -0.760   0.058  0.00  0.00    +0.101 C 
ENDROOT
BRANCH   2   3
ATOM      3  C   UNL     1       0.807  -1.496  -1.089  0.00  0.00    +0.014 A 
ATOM      4  C   UNL     1       0.062  -1.821  -2.206  0.00  0.00    +0.012 A 
ATOM      5  C   UNL     1       0.648  -2.496  -3.259  0.00  0.00    +0.046 A 
ATOM      6  C   UNL     1       1.989  -2.850  -3.197  0.00  0.00    +0.120 A 
ATOM      7  C   UNL     1       2.739  -2.525  -2.078  0.00  0.00    +0.091 A 
ATOM      8  C   UNL     1       2.149  -1.843  -1.025  0.00  0.00    +0.125 A 
BRANCH   8   9
ATOM      9  O   UNL     1       2.884  -1.518   0.072  0.00  0.00    -0.506 OA
ATOM     10  H   UNL     1       2.879  -2.195   0.763  0.00  0.00    +0.292 HD
ENDBRANCH   8   9
BRANCH   6  11
ATOM     11  O   UNL     1       2.566  -3.514  -4.233  0.00  0.00    -0.507 OA
ATOM     12  H   UNL     1       2.953  -2.936  -4.904  0.00  0.00    +0.292 HD
ENDBRANCH   6  11
ENDBRANCH   2   3
BRANCH   2  13
ATOM     13  N   UNL     1      -1.277  -1.022   0.059  0.00  0.00    -0.335 N 
ATOM     14  H   UNL     1      -1.726  -1.270  -0.764  0.00  0.00    +0.147 HD
BRANCH  13  15
ATOM     15  C   UNL     1      -2.005  -0.915   1.247  0.00  0.00    +0.058 A 
ATOM     16  C   UNL     1      -1.348  -0.676   2.447  0.00  0.00    +0.026 A 
ATOM     17  C   UNL     1      -2.070  -0.571   3.619  0.00  0.00    +0.017 A 
ATOM     18  C   UNL     1      -3.447  -0.704   3.599  0.00  0.00    +0.020 A 
ATOM     19  C   UNL     1      -4.105  -0.942   2.406  0.00  0.00    +0.050 A 
ATOM     20  C   UNL     1      -3.388  -1.042   1.229  0.00  0.00    +0.148 A 
ATOM     21 BR   UNL     1      -4.433  -0.559   5.207  0.00  0.00    -0.050 Br
BRANCH  20  22
ATOM     22  N   UNL     1      -4.093  -1.290  -0.049  0.00  0.00    +0.058 N 
ATOM     23  O   UNL     1      -3.713  -0.753  -1.063  0.00  0.00    -0.126 OA
ATOM     24  O   UNL     1      -5.048  -2.030  -0.078  0.00  0.00    -0.126 OA
ENDBRANCH  20  22
ENDBRANCH  13  15
ENDBRANCH   2  13
TORSDOF 6
