REMARK  Name = ZINC18321202
REMARK  6 active torsions:
REMARK  status: ('A' for Active; 'I' for Inactive)
REMARK    1  A    between atoms: C_12  and  C_18
REMARK    2  A    between atoms: C_13  and  N_17
REMARK    3  A    between atoms: C_18  and  O_20
REMARK    4  A    between atoms: O_20  and  C_21
REMARK    5  A    between atoms: C_21  and  C_22
REMARK    6  A    between atoms: C_22  and  C_24
REMARK                            x       y       z     vdW  Elec       q    Type
REMARK                         _______ _______ _______ _____ _____    ______ ____
ROOT
ATOM      1  C   UNL     1     -15.831  -1.858   3.267  0.00  0.00    +0.001 A 
ATOM      2  C   UNL     1     -15.525  -1.171   4.428  0.00  0.00    +0.001 A 
ATOM      3  C   UNL     1     -14.290  -0.566   4.580  0.00  0.00    +0.012 A 
ATOM      4  C   UNL     1     -13.347  -0.648   3.560  0.00  0.00    +0.033 A 
ATOM      5  C   UNL     1     -13.657  -1.347   2.379  0.00  0.00    +0.033 A 
ATOM      6  C   UNL     1     -14.905  -1.950   2.243  0.00  0.00    +0.012 A 
ATOM      7  C   UNL     1     -12.662  -1.439   1.292  0.00  0.00    +0.195 C 
ATOM      8  O   UNL     1     -12.929  -2.042   0.272  0.00  0.00    -0.287 OA
ATOM      9  C   UNL     1     -11.338  -0.795   1.448  0.00  0.00    +0.035 A 
ATOM     10  C   UNL     1     -10.396  -0.878   0.426  0.00  0.00    +0.013 A 
ATOM     11  C   UNL     1      -9.158  -0.279   0.564  0.00  0.00    +0.017 A 
ATOM     12  C   UNL     1      -8.837   0.416   1.729  0.00  0.00    +0.080 A 
ATOM     13  C   UNL     1      -9.775   0.507   2.775  0.00  0.00    +0.050 A 
ATOM     14  C   UNL     1     -11.031  -0.097   2.630  0.00  0.00    +0.054 A 
ATOM     15  C   UNL     1     -12.025  -0.006   3.713  0.00  0.00    +0.196 C 
ATOM     16  O   UNL     1     -11.757   0.598   4.734  0.00  0.00    -0.287 OA
ENDROOT
BRANCH  13  17
ATOM     17  N   UNL     1      -9.461   1.189   3.932  0.00  0.00    -0.357 N 
ATOM     18  H   UNL     1      -8.879   1.964   3.896  0.00  0.00    +0.142 HD
ATOM     19  H   UNL     1      -9.822   0.893   4.782  0.00  0.00    +0.142 HD
ENDBRANCH  13  17
BRANCH  12  20
ATOM     20  C   UNL     1      -7.513   1.052   1.868  0.00  0.00    +0.341 C 
ATOM     21  O   UNL     1      -7.253   1.704   2.860  0.00  0.00    -0.245 OA
BRANCH  20  22
ATOM     22  O   UNL     1      -6.591   0.908   0.896  0.00  0.00    -0.453 OA
BRANCH  22  23
ATOM     23  C   UNL     1      -5.310   1.560   1.100  0.00  0.00    +0.307 C 
BRANCH  23  24
ATOM     24  C   UNL     1      -4.415   1.291  -0.082  0.00  0.00    +0.177 C 
ATOM     25  O   UNL     1      -4.816   0.619  -1.002  0.00  0.00    -0.293 OA
BRANCH  24  26
ATOM     26  C   UNL     1      -3.021   1.861  -0.117  0.00  0.00    +0.033 C 
ATOM     27  C   UNL     1      -2.330   1.441  -1.416  0.00  0.00    +0.018 C 
ATOM     28  C   UNL     1      -0.914   2.020  -1.451  0.00  0.00    -0.010 C 
ATOM     29  C   UNL     1      -0.118   1.492  -0.256  0.00  0.00    +0.007 C 
ATOM     30  C   UNL     1      -0.808   1.911   1.043  0.00  0.00    -0.010 C 
ATOM     31  C   UNL     1      -2.224   1.333   1.078  0.00  0.00    +0.018 C 
ATOM     32  C   UNL     1      -0.879   3.438   1.112  0.00  0.00    +0.007 C 
ATOM     33  C   UNL     1      -1.676   3.966  -0.082  0.00  0.00    -0.010 C 
ATOM     34  C   UNL     1      -0.985   3.546  -1.381  0.00  0.00    +0.007 C 
ATOM     35  C   UNL     1      -3.092   3.388  -0.047  0.00  0.00    +0.018 C 
ENDBRANCH  24  26
ENDBRANCH  23  24
ENDBRANCH  22  23
ENDBRANCH  20  22
ENDBRANCH  12  20
TORSDOF 6
