REMARK  Name = ZINC16682535
REMARK  12 active torsions:
REMARK  status: ('A' for Active; 'I' for Inactive)
REMARK    1  A    between atoms: C_1  and  C_2
REMARK    2  A    between atoms: C_2  and  O_3
REMARK    3  A    between atoms: O_3  and  C_4
REMARK    4  A    between atoms: C_4  and  C_6
REMARK    5  A    between atoms: C_7  and  C_25
REMARK    6  A    between atoms: C_9  and  N_24
REMARK    7  A    between atoms: C_10  and  C_22
REMARK    8  A    between atoms: C_11  and  C_13
REMARK    9  A    between atoms: C_25  and  S_26
REMARK   10  A    between atoms: S_26  and  C_27
REMARK   11  A    between atoms: C_28  and  C_34
REMARK   12  A    between atoms: C_31  and  C_33
REMARK                            x       y       z     vdW  Elec       q    Type
REMARK                         _______ _______ _______ _____ _____    ______ ____
ROOT
ATOM      1  C   UNL     1       3.346   7.436  -1.144  0.00  0.00    +0.088 C 
ATOM      2  C   UNL     1       3.516   6.510  -0.193  0.00  0.00    +0.128 C 
ATOM      3  O   UNL     1       4.167   6.768   0.951  0.00  0.00    -0.444 OA
ATOM      4  C   UNL     1       4.996   7.828   1.011  0.00  0.00    +0.198 C 
ATOM      5  C   UNL     1       4.915   8.848   0.124  0.00  0.00    +0.098 C 
ATOM      6  C   UNL     1       3.889   8.830  -0.978  0.00  0.00    +0.105 C 
ENDROOT
BRANCH   6   7
ATOM      7  C   UNL     1       2.763   9.769  -0.630  0.00  0.00    -0.031 A 
ATOM      8  C   UNL     1       2.020   9.559   0.517  0.00  0.00    +0.008 A 
ATOM      9  C   UNL     1       0.986  10.418   0.840  0.00  0.00    +0.050 A 
ATOM     10  C   UNL     1       0.692  11.492   0.015  0.00  0.00    +0.166 A 
ATOM     11  C   UNL     1       1.441  11.702  -1.141  0.00  0.00    +0.167 A 
ATOM     12  C   UNL     1       2.479  10.841  -1.455  0.00  0.00    +0.054 A 
ATOM     13  O   UNL     1       0.961  12.811  -1.776  0.00  0.00    -0.453 OA
ATOM     14  C   UNL     1      -0.346  13.039  -1.216  0.00  0.00    +0.466 C 
ATOM     15  O   UNL     1      -0.257  12.468   0.103  0.00  0.00    -0.453 OA
ENDBRANCH   6   7
BRANCH   4  16
ATOM     16  N   UNL     1       5.944   7.878   2.002  0.00  0.00    -0.328 N 
ATOM     17  H   UNL     1       6.545   8.638   2.060  0.00  0.00    +0.145 HD
ATOM     18  H   UNL     1       6.014   7.155   2.645  0.00  0.00    +0.145 HD
ENDBRANCH   4  16
BRANCH   1  19
ATOM     19  C   UNL     1       2.642   7.100  -2.326  0.00  0.00    +0.339 C 
ATOM     20  O   UNL     1       1.686   6.350  -2.272  0.00  0.00    -0.245 OA
BRANCH  19  21
ATOM     21  O   UNL     1       3.032   7.611  -3.512  0.00  0.00    -0.462 OA
BRANCH  21  23
ATOM     22  C   UNL     1       2.863   7.903  -5.905  0.00  0.00    +0.048 C 
ATOM     23  C   UNL     1       2.276   7.229  -4.663  0.00  0.00    +0.229 C 
ENDBRANCH  21  23
ENDBRANCH  19  21
ENDBRANCH   1  19
BRANCH   5  24
ATOM     24  C   UNL     1       5.814   9.957   0.236  0.00  0.00    +0.101 C 
ATOM     25  N   UNL     1       6.527  10.836   0.324  0.00  0.00    -0.191 NA
ENDBRANCH   5  24
BRANCH   2  26
ATOM     26  C   UNL     1       2.952   5.130  -0.412  0.00  0.00    +0.150 C 
BRANCH  26  27
ATOM     27  S   UNL     1       1.438   4.936   0.561  0.00  0.00    -0.097 S 
BRANCH  27  28
ATOM     28  C   UNL     1       1.005   3.284   0.127  0.00  0.00    +0.115 A 
ATOM     29  C   UNL     1      -0.150   2.696   0.674  0.00  0.00    +0.084 A 
ATOM     30  C   UNL     1      -0.473   1.383   0.315  0.00  0.00    +0.023 A 
ATOM     31  C   UNL     1       0.366   0.716  -0.562  0.00  0.00    +0.024 A 
ATOM     32  C   UNL     1       1.482   1.363  -1.063  0.00  0.00    +0.040 A 
ATOM     33  N   UNL     1       1.769   2.601  -0.712  0.00  0.00    -0.244 NA
ATOM     34  C   UNL     1       2.389   0.636  -2.022  0.00  0.00    +0.065 C 
BRANCH  29  35
ATOM     35  C   UNL     1      -0.981   3.429   1.582  0.00  0.00    +0.102 C 
ATOM     36  N   UNL     1      -1.640   4.010   2.302  0.00  0.00    -0.191 NA
ENDBRANCH  29  35
ENDBRANCH  27  28
ENDBRANCH  26  27
ENDBRANCH   2  26
TORSDOF 10
