REMARK  Name = ZINC05013442
REMARK  2 active torsions:
REMARK  status: ('A' for Active; 'I' for Inactive)
REMARK    1  A    between atoms: C_7  and  C_11
REMARK    2  A    between atoms: C_11  and  C_22
REMARK                            x       y       z     vdW  Elec       q    Type
REMARK                         _______ _______ _______ _____ _____    ______ ____
ROOT
ATOM      1  C   UNL     1       3.476   2.436  -0.018  0.00  0.00    +0.127 C 
ATOM      2  C   UNL     1       2.289   1.522   0.183  0.00  0.00    -0.001 A 
ATOM      3  C   UNL     1       2.170   0.156   0.307  0.00  0.00    +0.027 A 
ATOM      4  C   UNL     1       0.920  -0.414   0.487  0.00  0.00    +0.041 A 
ATOM      5  C   UNL     1      -0.203   0.392   0.540  0.00  0.00    +0.022 A 
ATOM      6  C   UNL     1      -0.085   1.761   0.416  0.00  0.00    +0.025 A 
ATOM      7  C   UNL     1       1.169   2.342   0.235  0.00  0.00    +0.038 A 
ATOM      8  N   UNL     1       1.542   3.679   0.086  0.00  0.00    -0.284 N 
ATOM      9  C   UNL     1       2.869   3.822  -0.067  0.00  0.00    +0.237 C 
ATOM     10  O   UNL     1       3.468   4.866  -0.216  0.00  0.00    -0.274 OA
ATOM     11 CL   UNL     1       0.764  -2.136   0.644  0.00  0.00    -0.084 Cl
ATOM     12  H   UNL     1       0.915   4.419   0.091  0.00  0.00    +0.155 HD
ENDROOT
BRANCH   1  19
ATOM     13  C   UNL     1       7.460   4.646   1.083  0.00  0.00    +0.001 A 
ATOM     14  C   UNL     1       8.015   4.200   2.274  0.00  0.00    +0.002 A 
ATOM     15  C   UNL     1       7.399   3.211   3.009  0.00  0.00    +0.026 A 
ATOM     16  C   UNL     1       6.214   2.645   2.549  0.00  0.00    +0.047 A 
ATOM     17  C   UNL     1       5.658   3.099   1.339  0.00  0.00    +0.004 A 
ATOM     18  C   UNL     1       6.296   4.107   0.614  0.00  0.00    +0.010 A 
ATOM     19  C   UNL     1       4.434   2.320   1.139  0.00  0.00    +0.001 A 
ATOM     20  C   UNL     1       4.330   1.478   2.180  0.00  0.00    +0.089 A 
ATOM     21  N   UNL     1       5.385   1.658   3.033  0.00  0.00    -0.360 N 
ATOM     22  H   UNL     1       5.527   1.164   3.855  0.00  0.00    +0.165 HD
ENDBRANCH   1  19
BRANCH   1  23
ATOM     23  C   UNL     1       4.175   2.116  -1.314  0.00  0.00    +0.001 A 
ATOM     24  C   UNL     1       5.420   1.634  -1.452  0.00  0.00    +0.089 A 
ATOM     25  N   UNL     1       5.712   1.468  -2.779  0.00  0.00    -0.360 N 
ATOM     26  H   UNL     1       6.552   1.132  -3.127  0.00  0.00    +0.165 HD
ATOM     27  C   UNL     1       4.634   1.851  -3.546  0.00  0.00    +0.047 A 
ATOM     28  C   UNL     1       3.622   2.268  -2.663  0.00  0.00    +0.004 A 
ATOM     29  C   UNL     1       2.397   2.710  -3.165  0.00  0.00    +0.010 A 
ATOM     30  C   UNL     1       2.186   2.732  -4.515  0.00  0.00    +0.001 A 
ATOM     31  C   UNL     1       3.180   2.318  -5.391  0.00  0.00    +0.002 A 
ATOM     32  C   UNL     1       4.399   1.885  -4.917  0.00  0.00    +0.026 A 
ENDBRANCH   1  23
TORSDOF 2
