REMARK  Name = ZINC23044223
REMARK  10 active torsions:
REMARK  status: ('A' for Active; 'I' for Inactive)
REMARK    1  A    between atoms: C_1  and  C_2
REMARK    2  A    between atoms: C_2  and  C_3
REMARK    3  A    between atoms: C_3  and  N_4
REMARK    4  A    between atoms: C_8  and  S_30
REMARK    5  A    between atoms: C_12  and  S_13
REMARK    6  A    between atoms: S_13  and  C_14
REMARK    7  A    between atoms: C_14  and  C_16
REMARK    8  A    between atoms: C_14  and  C_17
REMARK    9  A    between atoms: C_27  and  C_29
REMARK   10  A    between atoms: S_30  and  N_33
REMARK                            x       y       z     vdW  Elec       q    Type
REMARK                         _______ _______ _______ _____ _____    ______ ____
ROOT
ATOM      1  N   UNL     1      -0.830   2.139   1.845  0.00  0.00    -0.319 N 
ATOM      2  C   UNL     1      -0.671   3.250   2.658  0.00  0.00    +0.070 A 
ATOM      3  C   UNL     1       0.116   4.389   2.586  0.00  0.00    +0.030 A 
ATOM      4  C   UNL     1       0.037   5.343   3.580  0.00  0.00    +0.030 A 
ATOM      5  C   UNL     1      -0.830   5.173   4.649  0.00  0.00    +0.107 A 
ATOM      6  C   UNL     1      -1.624   4.052   4.733  0.00  0.00    +0.058 A 
ATOM      7  C   UNL     1      -1.556   3.076   3.735  0.00  0.00    +0.092 A 
ATOM      8  N   UNL     1      -2.194   1.892   3.542  0.00  0.00    -0.222 NA
ATOM      9  C   UNL     1      -1.770   1.339   2.432  0.00  0.00    +0.171 A 
ENDROOT
BRANCH   5  10
ATOM     10  S   UNL     1      -0.917   6.403   5.908  0.00  0.00    +0.056 S 
ATOM     11  O   UNL     1      -0.471   7.617   5.321  0.00  0.00    -0.153 OA
ATOM     12  O   UNL     1      -2.196   6.274   6.514  0.00  0.00    -0.153 OA
BRANCH  10  13
ATOM     13  N   UNL     1       0.197   5.999   7.064  0.00  0.00    -0.204 NA
ATOM     14  H   UNL     1       0.175   6.745   7.872  0.00  0.00    +0.144 HD
ATOM     15  H   UNL     1       1.201   5.976   6.614  0.00  0.00    +0.144 HD
ENDBRANCH  10  13
ENDBRANCH   5  10
BRANCH   1  16
ATOM     16  C   UNL     1      -0.119   1.870   0.593  0.00  0.00    +0.124 C 
BRANCH  16  18
ATOM     17  C   UNL     1      -0.168   2.175  -1.887  0.00  0.00    +0.005 C 
ATOM     18  C   UNL     1      -0.910   2.456  -0.579  0.00  0.00    +0.018 C 
ENDBRANCH  16  18
ENDBRANCH   1  16
BRANCH   9  19
ATOM     19  S   UNL     1      -2.326  -0.205   1.793  0.00  0.00    -0.075 S 
BRANCH  19  20
ATOM     20  C   UNL     1      -3.527  -0.659   3.069  0.00  0.00    +0.137 C 
ATOM     21  C   UNL     1      -2.800  -0.886   4.396  0.00  0.00    +0.029 C 
BRANCH  20  22
ATOM     22  C   UNL     1      -4.239  -1.924   2.662  0.00  0.00    +0.233 C 
ATOM     23  O   UNL     1      -3.688  -2.722   1.934  0.00  0.00    -0.274 OA
ATOM     24  N   UNL     1      -5.487  -2.168   3.107  0.00  0.00    -0.267 N 
ATOM     25  C   UNL     1      -6.188  -3.362   2.914  0.00  0.00    +0.040 A 
ATOM     26  C   UNL     1      -5.790  -4.525   2.252  0.00  0.00    +0.024 A 
ATOM     27  C   UNL     1      -6.641  -5.606   2.172  0.00  0.00    +0.002 A 
ATOM     28  C   UNL     1      -7.897  -5.547   2.748  0.00  0.00    +0.000 A 
ATOM     29  C   UNL     1      -8.299  -4.399   3.405  0.00  0.00    +0.005 A 
ATOM     30  C   UNL     1      -7.448  -3.313   3.488  0.00  0.00    -0.024 A 
ATOM     31  C   UNL     1      -7.630  -1.959   4.135  0.00  0.00    +0.059 C 
ATOM     32  C   UNL     1      -6.307  -1.223   3.870  0.00  0.00    +0.083 C 
ATOM     33  C   UNL     1      -6.561   0.043   3.049  0.00  0.00    +0.029 C 
ENDBRANCH  20  22
ENDBRANCH  19  20
ENDBRANCH   9  19
TORSDOF 7
