REMARK  Name = ZINC60130950
REMARK  8 active torsions:
REMARK  status: ('A' for Active; 'I' for Inactive)
REMARK    1  A    between atoms: C_3  and  N_25
REMARK    2  A    between atoms: C_5  and  S_7
REMARK    3  A    between atoms: S_7  and  N_10
REMARK    4  A    between atoms: N_10  and  C_11
REMARK    5  A    between atoms: C_11  and  C_12
REMARK    6  A    between atoms: C_12  and  N_13
REMARK    7  A    between atoms: C_14  and  C_16
REMARK    8  A    between atoms: C_16  and  C_17
REMARK                            x       y       z     vdW  Elec       q    Type
REMARK                         _______ _______ _______ _____ _____    ______ ____
ROOT
ATOM      1  C   UNL     1       0.111  -2.664   2.429  0.00  0.00    +0.124 C 
ENDROOT
BRANCH   1   2
ATOM      2  N   UNL     1       1.256  -2.939   1.557  0.00  0.00    -0.188 NA
ATOM      3  H   UNL     1       2.027  -3.413   1.905  0.00  0.00    +0.148 HD
BRANCH   2   4
ATOM      4  S   UNL     1       1.232  -2.441  -0.022  0.00  0.00    +0.059 S 
ATOM      5  O   UNL     1      -0.013  -2.861  -0.562  0.00  0.00    -0.153 OA
ATOM      6  O   UNL     1       2.477  -2.827  -0.588  0.00  0.00    -0.153 OA
BRANCH   4  11
ATOM      7  C   UNL     1      -0.017   1.378   0.010  0.00  0.00    +0.004 A 
ATOM      8  C   UNL     1       1.171   2.085   0.002  0.00  0.00    +0.033 A 
ATOM      9  C   UNL     1       2.377   1.411  -0.013  0.00  0.00    +0.128 A 
ATOM     10  C   UNL     1       2.396   0.028  -0.020  0.00  0.00    +0.061 A 
ATOM     11  C   UNL     1       1.209  -0.679  -0.012  0.00  0.00    +0.107 A 
ATOM     12  C   UNL     1       0.002  -0.004   0.002  0.00  0.00    +0.028 A 
BRANCH   9  13
ATOM     13  N   UNL     1       3.649   2.168  -0.022  0.00  0.00    +0.056 N 
ATOM     14  O   UNL     1       3.633   3.377  -0.016  0.00  0.00    -0.126 OA
ATOM     15  O   UNL     1       4.704   1.578  -0.035  0.00  0.00    -0.126 OA
ENDBRANCH   9  13
ENDBRANCH   4  11
ENDBRANCH   2   4
ENDBRANCH   1   2
BRANCH   1  16
ATOM     16  C   UNL     1       0.209  -3.529   3.688  0.00  0.00    +0.121 C 
BRANCH  16  17
ATOM     17  N   UNL     1      -0.935  -3.253   4.559  0.00  0.00    -0.314 N 
ATOM     18  C   UNL     1      -1.060  -3.904   5.733  0.00  0.00    +0.217 C 
ATOM     19  O   UNL     1      -0.225  -4.717   6.068  0.00  0.00    -0.275 OA
ATOM     20  H   UNL     1      -1.604  -2.603   4.292  0.00  0.00    +0.149 HD
BRANCH  18  21
ATOM     21  C   UNL     1      -2.238  -3.621   6.630  0.00  0.00    +0.132 C 
BRANCH  21  22
ATOM     22  C   UNL     1      -2.141  -4.472   7.870  0.00  0.00    -0.020 A 
ATOM     23  C   UNL     1      -2.801  -5.685   7.929  0.00  0.00    +0.007 A 
ATOM     24  C   UNL     1      -2.713  -6.467   9.065  0.00  0.00    +0.020 A 
ATOM     25  C   UNL     1      -1.963  -6.035  10.145  0.00  0.00    +0.042 A 
ATOM     26  C   UNL     1      -1.302  -4.822  10.087  0.00  0.00    +0.040 A 
ATOM     27  C   UNL     1      -1.386  -4.043   8.947  0.00  0.00    +0.046 A 
ATOM     28 CL   UNL     1      -0.551  -2.523   8.871  0.00  0.00    -0.083 Cl
ATOM     29 CL   UNL     1      -1.853  -7.017  11.573  0.00  0.00    -0.083 Cl
ENDBRANCH  21  22
ENDBRANCH  18  21
ENDBRANCH  16  17
ENDBRANCH   1  16
TORSDOF 8
