REMARK  Name = ZINC09669984
REMARK  10 active torsions:
REMARK  status: ('A' for Active; 'I' for Inactive)
REMARK    1  A    between atoms: C_1  and  C_2
REMARK    2  A    between atoms: C_2  and  N_3
REMARK    3  A    between atoms: C_7  and  S_29
REMARK    4  A    between atoms: C_11  and  S_12
REMARK    5  A    between atoms: S_12  and  C_13
REMARK    6  A    between atoms: C_13  and  C_15
REMARK    7  A    between atoms: C_13  and  C_16
REMARK    8  A    between atoms: N_18  and  C_19
REMARK    9  A    between atoms: C_22  and  N_26
REMARK   10  A    between atoms: S_29  and  N_32
REMARK                            x       y       z     vdW  Elec       q    Type
REMARK                         _______ _______ _______ _____ _____    ______ ____
ROOT
ATOM      1  N   UNL     1       0.972  -1.559   2.093  0.00  0.00    -0.319 N 
ATOM      2  C   UNL     1       1.559  -1.372   3.334  0.00  0.00    +0.070 A 
ATOM      3  C   UNL     1       2.030  -2.233   4.314  0.00  0.00    +0.030 A 
ATOM      4  C   UNL     1       2.569  -1.722   5.476  0.00  0.00    +0.030 A 
ATOM      5  C   UNL     1       2.644  -0.351   5.672  0.00  0.00    +0.107 A 
ATOM      6  C   UNL     1       2.182   0.519   4.710  0.00  0.00    +0.058 A 
ATOM      7  C   UNL     1       1.632   0.017   3.527  0.00  0.00    +0.092 A 
ATOM      8  N   UNL     1       1.105   0.603   2.421  0.00  0.00    -0.222 NA
ATOM      9  C   UNL     1       0.719  -0.320   1.575  0.00  0.00    +0.171 A 
ENDROOT
BRANCH   5  10
ATOM     10  S   UNL     1       3.337   0.283   7.163  0.00  0.00    +0.056 S 
ATOM     11  O   UNL     1       4.198  -0.727   7.672  0.00  0.00    -0.153 OA
ATOM     12  O   UNL     1       3.793   1.597   6.872  0.00  0.00    -0.153 OA
BRANCH  10  13
ATOM     13  N   UNL     1       2.098   0.441   8.250  0.00  0.00    -0.204 NA
ATOM     14  H   UNL     1       1.195   0.196   7.995  0.00  0.00    +0.144 HD
ATOM     15  H   UNL     1       2.275   0.779   9.142  0.00  0.00    +0.144 HD
ENDBRANCH  10  13
ENDBRANCH   5  10
BRANCH   1  17
ATOM     16  C   UNL     1       1.882  -3.284   0.618  0.00  0.00    +0.027 C 
ATOM     17  C   UNL     1       0.679  -2.845   1.455  0.00  0.00    +0.121 C 
ENDBRANCH   1  17
BRANCH   9  18
ATOM     18  S   UNL     1      -0.022  -0.011   0.006  0.00  0.00    -0.075 S 
BRANCH  18  19
ATOM     19  C   UNL     1      -0.038   1.799   0.018  0.00  0.00    +0.137 C 
ATOM     20  C   UNL     1       1.399   2.322   0.017  0.00  0.00    +0.029 C 
BRANCH  19  21
ATOM     21  C   UNL     1      -0.757   2.303  -1.207  0.00  0.00    +0.230 C 
ATOM     22  O   UNL     1      -0.893   1.579  -2.171  0.00  0.00    -0.274 OA
ATOM     23  N   UNL     1      -1.249   3.557  -1.231  0.00  0.00    -0.283 N 
ATOM     24  H   UNL     1      -1.198   4.114  -0.439  0.00  0.00    +0.155 HD
BRANCH  23  25
ATOM     25  C   UNL     1      -1.833   4.057  -2.401  0.00  0.00    +0.052 A 
ATOM     26  C   UNL     1      -2.554   3.212  -3.235  0.00  0.00    +0.027 A 
ATOM     27  C   UNL     1      -3.130   3.709  -4.388  0.00  0.00    +0.034 A 
ATOM     28  C   UNL     1      -2.989   5.045  -4.714  0.00  0.00    +0.128 A 
ATOM     29  C   UNL     1      -2.272   5.890  -3.886  0.00  0.00    +0.054 A 
ATOM     30  C   UNL     1      -1.698   5.401  -2.728  0.00  0.00    +0.064 A 
ATOM     31 CL   UNL     1      -0.804   6.463  -1.685  0.00  0.00    -0.082 Cl
BRANCH  28  32
ATOM     32  N   UNL     1      -3.607   5.573  -5.951  0.00  0.00    +0.056 N 
ATOM     33  O   UNL     1      -4.239   4.831  -6.680  0.00  0.00    -0.126 OA
ATOM     34  O   UNL     1      -3.484   6.750  -6.239  0.00  0.00    -0.126 OA
ENDBRANCH  28  32
ENDBRANCH  23  25
ENDBRANCH  19  21
ENDBRANCH  18  19
ENDBRANCH   9  18
TORSDOF 8
