REMARK  Name = ZINC36628927
REMARK  8 active torsions:
REMARK  status: ('A' for Active; 'I' for Inactive)
REMARK    1  A    between atoms: C_1  and  C_2
REMARK    2  A    between atoms: C_2  and  C_3
REMARK    3  A    between atoms: C_2  and  N_4
REMARK    4  A    between atoms: C_10  and  N_15
REMARK    5  A    between atoms: C_11  and  C_12
REMARK    6  A    between atoms: C_16  and  C_18
REMARK    7  A    between atoms: C_18  and  O_19
REMARK    8  A    between atoms: O_19  and  C_20
REMARK                            x       y       z     vdW  Elec       q    Type
REMARK                         _______ _______ _______ _____ _____    ______ ____
ROOT
ATOM      1  N   UNL     1      -1.441  -0.258   0.104  0.00  0.00    +0.384 N 
ATOM      2  C   UNL     1      -1.671  -1.690   0.331  0.00  0.00    -0.073 C 
ATOM      3  C   UNL     1      -3.125  -1.933   0.749  0.00  0.00    +0.018 C 
ATOM      4  C   UNL     1      -4.025  -1.256  -0.276  0.00  0.00    -0.027 A 
ATOM      5  C   UNL     1      -3.519  -0.320  -1.111  0.00  0.00    -0.021 A 
ATOM      6  S   UNL     1      -4.892   0.179  -2.106  0.00  0.00    -0.079 S 
ATOM      7  C   UNL     1      -6.091  -0.800  -1.452  0.00  0.00    +0.084 A 
ATOM      8  C   UNL     1      -5.438  -1.519  -0.461  0.00  0.00    +0.068 A 
ATOM      9  C   UNL     1      -2.102   0.159  -1.147  0.00  0.00    -0.035 C 
ATOM     10  H   UNL     1      -1.821   0.269   0.876  0.00  0.00    -0.081 HD
ENDROOT
BRANCH   8  11
ATOM     11  C   UNL     1      -6.147  -2.503   0.363  0.00  0.00    +0.244 C 
ATOM     12  O   UNL     1      -6.674  -2.159   1.404  0.00  0.00    -0.270 OA
ATOM     13  N   UNL     1      -6.216  -3.790  -0.034  0.00  0.00    -0.325 N 
ATOM     14  H   UNL     1      -5.796  -4.064  -0.864  0.00  0.00    +0.145 HD
ATOM     15  H   UNL     1      -6.685  -4.441   0.511  0.00  0.00    +0.145 HD
ENDBRANCH   8  11
BRANCH   7  16
ATOM     16  N   UNL     1      -7.426  -0.872  -1.818  0.00  0.00    -0.277 N 
ATOM     17  C   UNL     1      -7.895  -0.092  -2.812  0.00  0.00    +0.255 C 
ATOM     18  O   UNL     1      -7.149   0.672  -3.387  0.00  0.00    -0.272 OA
ATOM     19  H   UNL     1      -8.023  -1.483  -1.358  0.00  0.00    +0.155 HD
BRANCH  17  20
ATOM     20  C   UNL     1      -9.347  -0.171  -3.210  0.00  0.00    +0.325 C 
BRANCH  20  21
ATOM     21  O   UNL     1      -9.598   0.745  -4.278  0.00  0.00    -0.480 OA
BRANCH  21  22
ATOM     22  C   UNL     1     -10.868   0.799  -4.759  0.00  0.00    +0.156 A 
ATOM     23  C   UNL     1     -11.854  -0.007  -4.210  0.00  0.00    +0.048 A 
ATOM     24  C   UNL     1     -13.144   0.049  -4.699  0.00  0.00    +0.004 A 
ATOM     25  C   UNL     1     -13.455   0.909  -5.737  0.00  0.00    +0.003 A 
ATOM     26  C   UNL     1     -12.476   1.714  -6.288  0.00  0.00    +0.042 A 
ATOM     27  C   UNL     1     -11.183   1.666  -5.797  0.00  0.00    +0.165 A 
ATOM     28  F   UNL     1     -10.227   2.458  -6.331  0.00  0.00    -0.202 F 
ENDBRANCH  21  22
ENDBRANCH  20  21
ENDBRANCH  17  20
ENDBRANCH   7  16
BRANCH   1  30
ATOM     29  C   UNL     1       0.238   1.469  -0.338  0.00  0.00    -0.014 C 
ATOM     30  C   UNL     1       0.002  -0.004   0.002  0.00  0.00    -0.074 C 
ATOM     31  C   UNL     1       0.673  -0.333   1.337  0.00  0.00    -0.014 C 
ENDBRANCH   1  30
TORSDOF 6
