REMARK  Name = ZINC33378874
REMARK  5 active torsions:
REMARK  status: ('A' for Active; 'I' for Inactive)
REMARK    1  A    between atoms: C_1  and  C_2
REMARK    2  A    between atoms: C_2  and  C_3
REMARK    3  A    between atoms: C_3  and  C_4
REMARK    4  A    between atoms: C_8  and  N_10
REMARK    5  A    between atoms: N_13  and  C_14
REMARK                            x       y       z     vdW  Elec       q    Type
REMARK                         _______ _______ _______ _____ _____    ______ ____
ROOT
ATOM      1  N   UNL     1      -0.128  -4.639  -2.023  0.00  0.00    -0.177 NA
ATOM      2  C   UNL     1       0.035  -5.940  -1.899  0.00  0.00    +0.203 C 
ATOM      3  N   UNL     1      -0.502  -6.597  -0.825  0.00  0.00    -0.369 N 
ATOM      4  N   UNL     1       0.742  -6.636  -2.845  0.00  0.00    -0.326 N 
ATOM      5  H   UNL     1      -1.381  -6.352  -0.496  0.00  0.00    +0.159 HD
ATOM      6  H   UNL     1       0.824  -7.600  -2.776  0.00  0.00    +0.169 HD
ATOM      7  H   UNL     1      -0.004  -7.308  -0.392  0.00  0.00    +0.159 HD
ENDROOT
BRANCH   4   8
ATOM      8  C   UNL     1       1.343  -5.956  -3.909  0.00  0.00    +0.045 A 
ATOM      9  C   UNL     1       1.899  -4.699  -3.706  0.00  0.00    +0.045 A 
ATOM     10  C   UNL     1       2.493  -4.029  -4.759  0.00  0.00    +0.044 A 
ATOM     11  C   UNL     1       2.534  -4.610  -6.014  0.00  0.00    +0.040 A 
ATOM     12  C   UNL     1       1.981  -5.861  -6.219  0.00  0.00    +0.044 A 
ATOM     13  C   UNL     1       1.391  -6.538  -5.168  0.00  0.00    +0.045 A 
ATOM     14 CL   UNL     1       2.035  -6.586  -7.796  0.00  0.00    -0.083 Cl
ATOM     15 CL   UNL     1       3.188  -2.459  -4.506  0.00  0.00    -0.083 Cl
ENDBRANCH   4   8
BRANCH   1  20
ATOM     16  C   UNL     1      -1.547  -1.921  -0.253  0.00  0.00    +0.048 A 
ATOM     17  C   UNL     1      -1.837  -2.519   0.963  0.00  0.00    +0.063 A 
ATOM     18  C   UNL     1      -1.529  -3.862   1.134  0.00  0.00    +0.135 A 
ATOM     19  N   UNL     1      -0.970  -4.529   0.138  0.00  0.00    -0.199 NA
ATOM     20  C   UNL     1      -0.703  -3.926  -1.017  0.00  0.00    +0.255 A 
ATOM     21  N   UNL     1      -0.992  -2.642  -1.212  0.00  0.00    -0.215 NA
ATOM     22 CL   UNL     1      -1.874  -4.657   2.639  0.00  0.00    -0.062 Cl
BRANCH  16  23
ATOM     23  C   UNL     1      -1.865  -0.466  -0.481  0.00  0.00    +0.055 C 
BRANCH  23  25
ATOM     24  C   UNL     1      -0.924   1.746  -1.162  0.00  0.00    +0.004 C 
ATOM     25  C   UNL     1      -0.601   0.269  -0.930  0.00  0.00    +0.003 C 
ENDBRANCH  23  25
ENDBRANCH  16  23
ENDBRANCH   1  20
TORSDOF 4
