REMARK  Name = ZINC34774385
REMARK  10 active torsions:
REMARK  status: ('A' for Active; 'I' for Inactive)
REMARK    1  A    between atoms: C_1  and  C_2
REMARK    2  A    between atoms: C_2  and  C_3
REMARK    3  A    between atoms: C_3  and  C_4
REMARK    4  A    between atoms: C_4  and  S_5
REMARK    5  A    between atoms: S_5  and  C_6
REMARK    6  A    between atoms: C_10  and  C_15
REMARK    7  A    between atoms: N_24  and  C_27
REMARK    8  A    between atoms: C_27  and  C_28
REMARK    9  A    between atoms: N_30  and  C_31
REMARK   10  A    between atoms: C_34  and  C_37
REMARK                            x       y       z     vdW  Elec       q    Type
REMARK                         _______ _______ _______ _____ _____    ______ ____
ROOT
ATOM      1  C   UNL     1       2.404  -5.951  -1.652  0.00  0.00    +0.191 A 
ATOM      2  N   UNL     1       2.729  -6.734  -2.674  0.00  0.00    -0.206 NA
ATOM      3  C   UNL     1       1.840  -7.115  -3.576  0.00  0.00    +0.134 A 
ATOM      4  C   UNL     1       0.493  -6.677  -3.455  0.00  0.00    +0.055 A 
ATOM      5  C   UNL     1      -0.655  -6.958  -4.312  0.00  0.00    +0.002 A 
ATOM      6  C   UNL     1      -1.855  -6.421  -3.989  0.00  0.00    +0.056 A 
ATOM      7  S   UNL     1      -1.512  -5.498  -2.504  0.00  0.00    -0.076 S 
ATOM      8  C   UNL     1       0.220  -5.849  -2.348  0.00  0.00    +0.115 A 
ATOM      9  N   UNL     1       1.162  -5.516  -1.487  0.00  0.00    -0.215 NA
ATOM     10  N   UNL     1       2.217  -7.931  -4.627  0.00  0.00    -0.318 N 
ATOM     11  C   UNL     1       1.843  -9.354  -4.652  0.00  0.00    +0.088 C 
ATOM     12  C   UNL     1       3.101 -10.183  -4.931  0.00  0.00    -0.059 C 
ATOM     13  N   UNL     1       3.739  -9.702  -6.162  0.00  0.00    +0.387 N 
ATOM     14  C   UNL     1       4.208  -8.323  -5.977  0.00  0.00    -0.059 C 
ATOM     15  C   UNL     1       3.000  -7.401  -5.753  0.00  0.00    +0.088 C 
ATOM     16  H   UNL     1       3.072  -9.731  -6.919  0.00  0.00    -0.081 HD
ENDROOT
BRANCH   5  17
ATOM     17  C   UNL     1      -0.510  -7.815  -5.512  0.00  0.00    -0.017 A 
ATOM     18  C   UNL     1       0.359  -7.443  -6.537  0.00  0.00    +0.008 A 
ATOM     19  C   UNL     1       0.490  -8.245  -7.652  0.00  0.00    +0.001 A 
ATOM     20  C   UNL     1      -0.238  -9.417  -7.754  0.00  0.00    +0.000 A 
ATOM     21  C   UNL     1      -1.103  -9.791  -6.741  0.00  0.00    +0.001 A 
ATOM     22  C   UNL     1      -1.238  -8.999  -5.619  0.00  0.00    +0.008 A 
ENDBRANCH   5  17
BRANCH   1  23
ATOM     23  S   UNL     1       3.644  -5.486  -0.490  0.00  0.00    -0.086 S 
BRANCH  23  24
ATOM     24  C   UNL     1       2.759  -4.447   0.705  0.00  0.00    +0.077 C 
BRANCH  24  25
ATOM     25  C   UNL     1       3.733  -3.969   1.785  0.00  0.00    +0.011 C 
BRANCH  25  27
ATOM     26  C   UNL     1       3.959  -2.615   3.872  0.00  0.00    +0.004 C 
ATOM     27  C   UNL     1       2.986  -3.093   2.792  0.00  0.00    -0.003 C 
ENDBRANCH  25  27
ENDBRANCH  24  25
ENDBRANCH  23  24
ENDBRANCH   1  23
BRANCH  13  28
ATOM     28  C   UNL     1       4.882 -10.566  -6.488  0.00  0.00    +0.019 C 
BRANCH  28  29
ATOM     29  C   UNL     1       5.463 -10.151  -7.815  0.00  0.00    +0.201 C 
ATOM     30  O   UNL     1       4.974  -9.226  -8.428  0.00  0.00    -0.278 OA
ATOM     31  N   UNL     1       6.527 -10.807  -8.320  0.00  0.00    -0.287 N 
ATOM     32  H   UNL     1       6.879 -11.585  -7.861  0.00  0.00    +0.155 HD
BRANCH  31  33
ATOM     33  C   UNL     1       7.124 -10.364  -9.506  0.00  0.00    +0.033 A 
ATOM     34  C   UNL     1       8.498 -10.475  -9.677  0.00  0.00    +0.023 A 
ATOM     35  C   UNL     1       9.083 -10.037 -10.848  0.00  0.00    +0.005 A 
ATOM     36  C   UNL     1       8.304  -9.489 -11.850  0.00  0.00    -0.050 A 
ATOM     37  C   UNL     1       6.936  -9.378 -11.683  0.00  0.00    +0.005 A 
ATOM     38  C   UNL     1       6.343  -9.819 -10.516  0.00  0.00    +0.023 A 
ATOM     39  C   UNL     1       8.946  -9.013 -13.127  0.00  0.00    +0.044 C 
ENDBRANCH  31  33
ENDBRANCH  28  29
ENDBRANCH  13  28
TORSDOF 8
