REMARK  Name = ZINC05376636
REMARK  5 active torsions:
REMARK  status: ('A' for Active; 'I' for Inactive)
REMARK    1  A    between atoms: C_1  and  C_2
REMARK    2  A    between atoms: C_2  and  C_3
REMARK    3  A    between atoms: C_8  and  N_9
REMARK    4  A    between atoms: C_15  and  C_16
REMARK    5  A    between atoms: N_18  and  C_25
REMARK                            x       y       z     vdW  Elec       q    Type
REMARK                         _______ _______ _______ _____ _____    ______ ____
ROOT
ATOM      1  N   UNL     1       4.526  -3.467   0.377  0.00  0.00    -0.225 NA
ATOM      2  C   UNL     1       3.807  -2.366   0.386  0.00  0.00    +0.166 C 
ATOM      3  N   UNL     1       2.437  -2.225   0.288  0.00  0.00    -0.260 N 
ATOM      4  C   UNL     1       1.891  -1.022   0.317  0.00  0.00    +0.256 C 
ATOM      5  O   UNL     1       0.684  -0.883   0.231  0.00  0.00    -0.269 OA
ATOM      6  C   UNL     1       2.749   0.109   0.450  0.00  0.00    +0.078 C 
ATOM      7  C   UNL     1       2.430   1.432   0.502  0.00  0.00    +0.030 C 
ATOM      8  S   UNL     1       4.355  -0.671   0.522  0.00  0.00    -0.049 S 
ATOM      9  H   UNL     1       1.875  -3.010   0.198  0.00  0.00    +0.157 HD
ENDROOT
BRANCH   7  10
ATOM     10  C   UNL     1       1.054   1.863   0.255  0.00  0.00    +0.001 A 
ATOM     11  C   UNL     1       0.207   1.387  -0.706  0.00  0.00    +0.094 A 
ATOM     12  N   UNL     1      -0.984   2.034  -0.628  0.00  0.00    -0.349 N 
ATOM     13  C   UNL     1      -0.964   2.956   0.398  0.00  0.00    +0.049 A 
ATOM     14  C   UNL     1       0.306   2.897   0.995  0.00  0.00    +0.007 A 
ATOM     15  C   UNL     1       0.614   3.732   2.066  0.00  0.00    +0.010 A 
ATOM     16  C   UNL     1      -0.334   4.615   2.537  0.00  0.00    +0.001 A 
ATOM     17  C   UNL     1      -1.588   4.675   1.948  0.00  0.00    +0.002 A 
ATOM     18  C   UNL     1      -1.906   3.855   0.887  0.00  0.00    +0.026 A 
ATOM     19  C   UNL     1      -2.129   1.786  -1.507  0.00  0.00    +0.149 C 
ENDBRANCH   7  10
BRANCH   1  25
ATOM     20  C   UNL     1       6.512  -4.205   1.496  0.00  0.00    -0.022 A 
ATOM     21  C   UNL     1       7.881  -4.136   1.655  0.00  0.00    +0.006 A 
ATOM     22  C   UNL     1       8.627  -3.264   0.883  0.00  0.00    +0.000 A 
ATOM     23  C   UNL     1       8.009  -2.460  -0.059  0.00  0.00    +0.002 A 
ATOM     24  C   UNL     1       6.642  -2.522  -0.232  0.00  0.00    +0.028 A 
ATOM     25  C   UNL     1       5.882  -3.400   0.544  0.00  0.00    +0.070 A 
BRANCH  20  27
ATOM     26  C   UNL     1       5.492  -6.463   1.585  0.00  0.00    +0.009 C 
ATOM     27  C   UNL     1       5.700  -5.150   2.343  0.00  0.00    +0.034 C 
ENDBRANCH  20  27
ENDBRANCH   1  25
TORSDOF 3
