REMARK  Name = ZINC65474532
REMARK  6 active torsions:
REMARK  status: ('A' for Active; 'I' for Inactive)
REMARK    1  A    between atoms: C_1  and  N_2
REMARK    2  A    between atoms: N_2  and  C_3
REMARK    3  A    between atoms: C_9  and  C_11
REMARK    4  A    between atoms: C_11  and  N_12
REMARK    5  A    between atoms: N_12  and  C_13
REMARK    6  A    between atoms: C_18  and  C_19
REMARK                            x       y       z     vdW  Elec       q    Type
REMARK                         _______ _______ _______ _____ _____    ______ ____
ROOT
ATOM      1  N   UNL     1       0.019  -0.853  -3.588  0.00  0.00    -0.335 N 
ATOM      2  H   UNL     1       0.024  -1.808  -3.414  0.00  0.00    +0.147 HD
ENDROOT
BRANCH   1   3
ATOM      3  C   UNL     1      -0.019  -0.385  -4.895  0.00  0.00    +0.040 A 
ATOM      4  C   UNL     1      -0.140   0.976  -5.146  0.00  0.00    +0.025 A 
ATOM      5  C   UNL     1      -0.178   1.439  -6.445  0.00  0.00    +0.022 A 
ATOM      6  C   UNL     1      -0.097   0.553  -7.509  0.00  0.00    +0.042 A 
ATOM      7  C   UNL     1       0.023  -0.801  -7.280  0.00  0.00    +0.035 A 
ATOM      8  C   UNL     1       0.069  -1.284  -5.969  0.00  0.00    +0.059 A 
ATOM      9 CL   UNL     1      -0.147   1.152  -9.138  0.00  0.00    -0.084 Cl
BRANCH   8  10
ATOM     10  C   UNL     1       0.203  -2.731  -5.716  0.00  0.00    +0.243 C 
ATOM     11  O   UNL     1       0.134  -3.158  -4.580  0.00  0.00    -0.270 OA
ATOM     12  N   UNL     1       0.402  -3.579  -6.745  0.00  0.00    -0.325 N 
ATOM     13  H   UNL     1       0.457  -3.238  -7.651  0.00  0.00    +0.145 HD
ATOM     14  H   UNL     1       0.491  -4.530  -6.578  0.00  0.00    +0.145 HD
ENDBRANCH   8  10
ENDBRANCH   1   3
BRANCH   1  15
ATOM     15  C   UNL     1       0.051   0.094  -2.471  0.00  0.00    +0.197 C 
BRANCH  15  18
ATOM     16  C   UNL     1       0.123   1.470   0.005  0.00  0.00    +0.132 C 
ATOM     17  N   UNL     1       0.123   0.005  -0.000  0.00  0.00    -0.300 N 
ATOM     18  C   UNL     1       0.089  -0.664  -1.170  0.00  0.00    +0.233 C 
ATOM     19  O   UNL     1       0.089  -1.877  -1.174  0.00  0.00    -0.274 OA
BRANCH  17  20
ATOM     20  C   UNL     1       0.160  -0.733   1.265  0.00  0.00    +0.076 C 
ATOM     21  C   UNL     1       1.432  -0.366   2.032  0.00  0.00    +0.022 C 
ATOM     22  C   UNL     1       1.471  -1.136   3.353  0.00  0.00    +0.002 C 
ATOM     23  C   UNL     1       0.246  -0.770   4.193  0.00  0.00    +0.000 C 
ATOM     24  C   UNL     1      -1.026  -1.137   3.426  0.00  0.00    +0.002 C 
ATOM     25  C   UNL     1      -1.065  -0.366   2.105  0.00  0.00    +0.022 C 
ENDBRANCH  17  20
ENDBRANCH  15  18
ENDBRANCH   1  15
TORSDOF 5
