REMARK  Name = ZINC23539780
REMARK  5 active torsions:
REMARK  status: ('A' for Active; 'I' for Inactive)
REMARK    1  A    between atoms: C_5  and  C_11
REMARK    2  A    between atoms: C_11  and  O_12
REMARK    3  A    between atoms: O_12  and  C_13
REMARK    4  A    between atoms: C_13  and  C_15
REMARK    5  A    between atoms: C_15  and  C_16
REMARK                            x       y       z     vdW  Elec       q    Type
REMARK                         _______ _______ _______ _____ _____    ______ ____
ROOT
ATOM      1  C   UNL     1      -0.627   7.390   3.607  0.00  0.00    +0.289 C 
ENDROOT
BRANCH   1   6
ATOM      2  C   UNL     1      -2.196  10.754   8.316  0.00  0.00    +0.025 A 
ATOM      3  C   UNL     1      -1.557  10.791   7.116  0.00  0.00    +0.048 A 
ATOM      4  C   UNL     1      -1.468   9.616   6.344  0.00  0.00    +0.138 A 
ATOM      5  N   UNL     1      -0.912   9.361   5.167  0.00  0.00    -0.229 NA
ATOM      6  C   UNL     1      -1.103   8.075   4.862  0.00  0.00    +0.097 A 
ATOM      7  C   UNL     1      -1.789   7.490   5.868  0.00  0.00    +0.119 A 
ATOM      8  N   UNL     1      -2.025   8.454   6.811  0.00  0.00    -0.305 N 
ATOM      9  C   UNL     1      -2.665   8.429   8.016  0.00  0.00    +0.112 A 
ATOM     10  C   UNL     1      -2.758   9.548   8.768  0.00  0.00    +0.058 A 
ATOM     11 CL   UNL     1      -3.576   9.495  10.299  0.00  0.00    -0.082 Cl
ENDBRANCH   1   6
BRANCH   1  12
ATOM     12  O   UNL     1      -1.019   5.992   3.641  0.00  0.00    -0.458 OA
BRANCH  12  13
ATOM     13  C   UNL     1      -0.669   5.235   2.589  0.00  0.00    +0.308 C 
ATOM     14  O   UNL     1      -0.055   5.724   1.671  0.00  0.00    -0.251 OA
BRANCH  13  15
ATOM     15  C   UNL     1      -1.042   3.776   2.554  0.00  0.00    +0.124 C 
BRANCH  15  16
ATOM     16  C   UNL     1      -0.527   3.149   1.256  0.00  0.00    +0.003 C 
ATOM     17  C   UNL     1      -1.326   3.694   0.023  0.00  0.00    +0.008 C 
ATOM     18  C   UNL     1      -1.991   2.420  -0.581  0.00  0.00    -0.010 C 
ATOM     19  C   UNL     1      -0.806   1.621  -1.206  0.00  0.00    +0.004 C 
ATOM     20  C   UNL     1      -0.013   1.086   0.008  0.00  0.00    +0.004 C 
ATOM     21  C   UNL     1      -0.790   1.612   1.253  0.00  0.00    -0.007 C 
ATOM     22  C   UNL     1      -2.265   1.571   0.710  0.00  0.00    +0.007 C 
ENDBRANCH  15  16
ENDBRANCH  13  15
ENDBRANCH  12  13
ENDBRANCH   1  12
TORSDOF 5
