REMARK  Name = ZINC02791865
REMARK  8 active torsions:
REMARK  status: ('A' for Active; 'I' for Inactive)
REMARK    1  A    between atoms: C_1  and  C_2
REMARK    2  A    between atoms: C_2  and  N_3
REMARK    3  A    between atoms: N_3  and  C_4
REMARK    4  A    between atoms: C_4  and  C_5
REMARK    5  A    between atoms: C_6  and  C_10
REMARK    6  A    between atoms: C_11  and  C_13
REMARK    7  A    between atoms: C_18  and  O_19
REMARK    8  A    between atoms: O_19  and  C_20
REMARK                            x       y       z     vdW  Elec       q    Type
REMARK                         _______ _______ _______ _____ _____    ______ ____
ROOT
ATOM      1  N   UNL     1      -3.639  -0.712  -0.056  0.00  0.00    -0.292 N 
ATOM      2  C   UNL     1      -2.475  -0.039   0.047  0.00  0.00    +0.251 C 
ATOM      3  O   UNL     1      -2.481   1.169   0.176  0.00  0.00    -0.270 OA
ENDROOT
BRANCH   2   4
ATOM      4  C   UNL     1      -1.194  -0.770   0.001  0.00  0.00    +0.080 A 
ATOM      5  C   UNL     1      -0.903  -1.610  -1.076  0.00  0.00    +0.032 A 
ATOM      6  C   UNL     1       0.293  -2.295  -1.110  0.00  0.00    +0.019 A 
ATOM      7  C   UNL     1       1.211  -2.150  -0.081  0.00  0.00    +0.019 A 
ATOM      8  C   UNL     1       0.937  -1.318   0.987  0.00  0.00    +0.048 A 
ATOM      9  C   UNL     1      -0.262  -0.622   1.036  0.00  0.00    +0.139 A 
ATOM     10 BR   UNL     1       0.684  -3.437  -2.565  0.00  0.00    -0.050 Br
BRANCH   9  11
ATOM     11  O   UNL     1      -0.532   0.194   2.086  0.00  0.00    -0.433 OA
BRANCH  11  12
ATOM     12  C   UNL     1       0.463   0.291   3.106  0.00  0.00    +0.541 C 
ATOM     13  F   UNL     1       0.686  -0.974   3.662  0.00  0.00    -0.166 F 
ATOM     14  F   UNL     1       1.654   0.773   2.552  0.00  0.00    -0.166 F 
ENDBRANCH  11  12
ENDBRANCH   9  11
ENDBRANCH   2   4
BRANCH   1  16
ATOM     15  C   UNL     1      -3.620  -2.716   1.346  0.00  0.00    +0.024 C 
ATOM     16  C   UNL     1      -3.639  -2.176  -0.086  0.00  0.00    +0.105 C 
ENDBRANCH   1  16
BRANCH   1  17
ATOM     17  C   UNL     1      -4.904   0.022  -0.137  0.00  0.00    +0.168 C 
BRANCH  17  18
ATOM     18  C   UNL     1      -5.296   0.189  -1.583  0.00  0.00    +0.124 A 
ATOM     19  C   UNL     1      -4.854   1.222  -2.433  0.00  0.00    +0.106 A 
ATOM     20  N   UNL     1      -5.381   1.068  -3.610  0.00  0.00    -0.054 NA
ATOM     21  O   UNL     1      -6.197  -0.092  -3.561  0.00  0.00    -0.242 OA
ATOM     22  N   UNL     1      -6.090  -0.601  -2.242  0.00  0.00    -0.052 NA
ATOM     23  C   UNL     1      -3.916   2.333  -2.037  0.00  0.00    +0.071 C 
ENDBRANCH  17  18
ENDBRANCH   1  17
TORSDOF 6
