REMARK  Name = ZINC66328540
REMARK  6 active torsions:
REMARK  status: ('A' for Active; 'I' for Inactive)
REMARK    1  A    between atoms: C_1  and  C_2
REMARK    2  A    between atoms: C_2  and  C_4
REMARK    3  A    between atoms: C_2  and  N_19
REMARK    4  A    between atoms: C_4  and  C_5
REMARK    5  A    between atoms: C_11  and  C_13
REMARK    6  A    between atoms: C_20  and  C_22
REMARK                            x       y       z     vdW  Elec       q    Type
REMARK                         _______ _______ _______ _____ _____    ______ ____
ROOT
ATOM      1  C   UNL     1       0.870  -2.011   1.172  0.00  0.00    +0.220 C 
ATOM      2  O   UNL     1       0.414  -2.615   0.224  0.00  0.00    -0.275 OA
ATOM      3  N   UNL     1       1.491  -2.681   2.163  0.00  0.00    -0.263 N 
ATOM      4  C   UNL     1       1.609  -4.063   2.099  0.00  0.00    +0.188 A 
ATOM      5  N   UNL     1       1.189  -4.891   1.159  0.00  0.00    -0.125 NA
ATOM      6  N   UNL     1       1.370  -6.139   1.238  0.00  0.00    -0.138 NA
ATOM      7  C   UNL     1       2.001  -6.628   2.298  0.00  0.00    +0.152 A 
ATOM      8  S   UNL     1       2.331  -5.119   3.196  0.00  0.00    -0.029 S 
ATOM      9  H   UNL     1       1.855  -2.198   2.921  0.00  0.00    +0.157 HD
ENDROOT
BRANCH   7  10
ATOM     10  C   UNL     1       2.340  -8.026   2.637  0.00  0.00    +0.098 A 
ATOM     11  C   UNL     1       1.986  -9.056   1.764  0.00  0.00    +0.030 A 
ATOM     12  C   UNL     1       2.311 -10.359   2.096  0.00  0.00    +0.004 A 
ATOM     13  C   UNL     1       2.979 -10.592   3.291  0.00  0.00    +0.020 A 
ATOM     14  C   UNL     1       3.300  -9.525   4.109  0.00  0.00    +0.111 A 
ATOM     15  N   UNL     1       2.984  -8.292   3.768  0.00  0.00    -0.253 NA
ENDBRANCH   7  10
BRANCH   1  16
ATOM     16  C   UNL     1       0.742  -0.511   1.242  0.00  0.00    +0.118 C 
BRANCH  16  18
ATOM     17  C   UNL     1      -0.019   1.526   0.010  0.00  0.00    +0.028 C 
ATOM     18  C   UNL     1       0.002  -0.004   0.002  0.00  0.00    +0.079 C 
BRANCH  18  19
ATOM     19  N   UNL     1      -1.372  -0.511   0.012  0.00  0.00    -0.312 N 
ATOM     20  C   UNL     1      -2.051  -0.643  -1.145  0.00  0.00    +0.216 C 
ATOM     21  O   UNL     1      -1.524  -0.341  -2.194  0.00  0.00    -0.276 OA
ATOM     22  H   UNL     1      -1.794  -0.752   0.852  0.00  0.00    +0.149 HD
BRANCH  20  23
ATOM     23  C   UNL     1      -3.465  -1.164  -1.134  0.00  0.00    +0.075 C 
ATOM     24  C   UNL     1      -3.485  -2.571  -0.532  0.00  0.00    +0.013 C 
ATOM     25  C   UNL     1      -4.920  -3.100  -0.521  0.00  0.00    +0.001 C 
ATOM     26  C   UNL     1      -5.456  -3.151  -1.953  0.00  0.00    +0.000 C 
ATOM     27  C   UNL     1      -5.436  -1.745  -2.555  0.00  0.00    +0.001 C 
ATOM     28  C   UNL     1      -4.000  -1.215  -2.566  0.00  0.00    +0.013 C 
ENDBRANCH  20  23
ENDBRANCH  18  19
ENDBRANCH  16  18
ENDBRANCH   1  16
TORSDOF 5
