REMARK  Name = ZINC14544574
REMARK  6 active torsions:
REMARK  status: ('A' for Active; 'I' for Inactive)
REMARK    1  A    between atoms: C_1  and  N_2
REMARK    2  A    between atoms: N_2  and  C_3
REMARK    3  A    between atoms: N_2  and  S_10
REMARK    4  A    between atoms: C_3  and  C_4
REMARK    5  A    between atoms: S_10  and  C_13
REMARK    6  A    between atoms: C_26  and  C_29
REMARK                            x       y       z     vdW  Elec       q    Type
REMARK                         _______ _______ _______ _____ _____    ______ ____
ROOT
ATOM      1  C   UNL     1       3.548   3.120   0.001  0.00  0.00    +0.106 A 
ATOM      2  C   UNL     1       3.545   1.793   0.393  0.00  0.00    +0.030 A 
ATOM      3  C   UNL     1       2.362   1.083   0.393  0.00  0.00    +0.025 A 
ATOM      4  C   UNL     1       1.181   1.699  -0.000  0.00  0.00    +0.031 A 
ATOM      5  C   UNL     1       1.179   3.028  -0.396  0.00  0.00    -0.018 A 
ATOM      6  C   UNL     1       2.375   3.732  -0.391  0.00  0.00    +0.034 A 
ATOM      7  C   UNL     1      -0.067   3.732  -0.830  0.00  0.00    +0.049 C 
ATOM      8  C   UNL     1      -0.568   4.676   0.236  0.00  0.00    -0.023 C 
ATOM      9  C   UNL     1      -1.879   4.683   0.257  0.00  0.00    -0.030 C 
ATOM     10  C   UNL     1      -2.432   3.746  -0.799  0.00  0.00    +0.033 C 
ATOM     11  C   UNL     1      -1.248   2.771  -1.071  0.00  0.00    +0.029 C 
ATOM     12  C   UNL     1      -1.281   1.700   0.017  0.00  0.00    +0.107 C 
ATOM     13  N   UNL     1      -0.011   0.966   0.007  0.00  0.00    -0.336 N 
ATOM     14  H   UNL     1       0.002  -0.004   0.002  0.00  0.00    +0.147 HD
ENDROOT
BRANCH  12  15
ATOM     15  C   UNL     1      -1.473   2.357   1.360  0.00  0.00    -0.002 A 
ATOM     16  C   UNL     1      -0.507   2.711   2.221  0.00  0.00    +0.089 A 
ATOM     17  N   UNL     1      -1.060   3.281   3.335  0.00  0.00    -0.360 N 
ATOM     18  H   UNL     1      -0.561   3.616   4.096  0.00  0.00    +0.165 HD
ATOM     19  C   UNL     1      -2.432   3.310   3.214  0.00  0.00    +0.047 A 
ATOM     20  C   UNL     1      -2.750   2.738   1.969  0.00  0.00    +0.005 A 
ATOM     21  C   UNL     1      -4.085   2.626   1.574  0.00  0.00    +0.010 A 
ATOM     22  C   UNL     1      -5.075   3.085   2.396  0.00  0.00    +0.001 A 
ATOM     23  C   UNL     1      -4.766   3.656   3.623  0.00  0.00    +0.002 A 
ATOM     24  C   UNL     1      -3.456   3.770   4.034  0.00  0.00    +0.026 A 
ENDBRANCH  12  15
BRANCH   1  25
ATOM     25  S   UNL     1       5.056   4.031   0.001  0.00  0.00    +0.061 S 
ATOM     26  O   UNL     1       6.105   3.080  -0.112  0.00  0.00    -0.153 OA
ATOM     27  O   UNL     1       4.888   5.095  -0.926  0.00  0.00    -0.153 OA
BRANCH  25  29
ATOM     28  C   UNL     1       4.653   6.061   1.744  0.00  0.00    +0.132 C 
ATOM     29  N   UNL     1       5.207   4.727   1.497  0.00  0.00    -0.175 NA
BRANCH  29  30
ATOM     30  C   UNL     1       5.894   4.008   2.573  0.00  0.00    +0.144 C 
BRANCH  30  31
ATOM     31  C   UNL     1       7.337   4.440   2.623  0.00  0.00    -0.032 A 
ATOM     32  C   UNL     1       8.287   3.761   1.884  0.00  0.00    +0.005 A 
ATOM     33  C   UNL     1       9.610   4.160   1.927  0.00  0.00    +0.000 A 
ATOM     34  C   UNL     1       9.984   5.231   2.716  0.00  0.00    +0.000 A 
ATOM     35  C   UNL     1       9.034   5.907   3.460  0.00  0.00    +0.000 A 
ATOM     36  C   UNL     1       7.711   5.511   3.413  0.00  0.00    +0.005 A 
ENDBRANCH  30  31
ENDBRANCH  29  30
ENDBRANCH  25  29
ENDBRANCH   1  25
TORSDOF 5
