REMARK  Name = ZINC09529811
REMARK  17 active torsions:
REMARK  status: ('A' for Active; 'I' for Inactive)
REMARK    1  A    between atoms: C_1  and  C_2
REMARK    2  A    between atoms: C_2  and  N_3
REMARK    3  A    between atoms: N_3  and  C_4
REMARK    4  A    between atoms: N_3  and  C_32
REMARK    5  A    between atoms: C_4  and  C_5
REMARK    6  A    between atoms: C_5  and  C_6
REMARK    7  A    between atoms: C_6  and  N_7
REMARK    8  A    between atoms: C_8  and  C_10
REMARK    9  A    between atoms: C_10  and  C_11
REMARK   10  A    between atoms: C_11  and  C_12
REMARK   11  A    between atoms: C_12  and  C_13
REMARK   12  A    between atoms: C_13  and  C_14
REMARK   13  A    between atoms: C_14  and  N_15
REMARK   14  A    between atoms: C_21  and  C_28
REMARK   15  A    between atoms: C_28  and  O_30
REMARK   16  A    between atoms: O_30  and  C_31
REMARK   17  A    between atoms: C_36  and  C_38
REMARK                            x       y       z     vdW  Elec       q    Type
REMARK                         _______ _______ _______ _____ _____    ______ ____
ROOT
ATOM      1  C   UNL     1      -0.880   1.692   8.668  0.00  0.00    +0.002 C 
ENDROOT
BRANCH   1   2
ATOM      2  C   UNL     1      -0.163   1.198   7.409  0.00  0.00    +0.009 C 
BRANCH   2   3
ATOM      3  C   UNL     1      -0.903   1.705   6.169  0.00  0.00    +0.096 C 
BRANCH   3   5
ATOM      4  N   UNL     1      -0.675   1.545   3.712  0.00  0.00    -0.315 N 
ATOM      5  C   UNL     1      -0.198   1.219   4.929  0.00  0.00    +0.213 C 
ATOM      6  O   UNL     1       0.798   0.535   5.028  0.00  0.00    -0.276 OA
ATOM      7  H   UNL     1      -1.472   2.092   3.633  0.00  0.00    +0.149 HD
BRANCH   4   8
ATOM      8  C   UNL     1       0.011   1.072   2.506  0.00  0.00    +0.105 C 
BRANCH   8   9
ATOM      9  C   UNL     1      -0.729   1.579   1.267  0.00  0.00    +0.037 C 
BRANCH   9  10
ATOM     10  C   UNL     1      -0.013   1.086   0.008  0.00  0.00    +0.106 C 
BRANCH  10  11
ATOM     11  N   UNL     1      -0.721   1.571  -1.179  0.00  0.00    -0.330 N 
BRANCH  11  12
ATOM     12  C   UNL     1      -1.744   0.805  -1.744  0.00  0.00    +0.030 A 
ATOM     13  C   UNL     1      -2.087  -0.419  -1.184  0.00  0.00    +0.023 A 
ATOM     14  C   UNL     1      -3.101  -1.172  -1.742  0.00  0.00    +0.002 A 
ATOM     15  C   UNL     1      -3.769  -0.712  -2.863  0.00  0.00    +0.003 A 
ATOM     16  C   UNL     1      -3.427   0.504  -3.425  0.00  0.00    -0.049 A 
ATOM     17  C   UNL     1      -2.417   1.264  -2.869  0.00  0.00    +0.026 A 
ATOM     18  C   UNL     1      -4.158   1.001  -4.646  0.00  0.00    +0.044 C 
ENDBRANCH  11  12
BRANCH  11  20
ATOM     19  C   UNL     1       0.732   2.646  -2.826  0.00  0.00    +0.024 C 
ATOM     20  C   UNL     1      -0.357   2.860  -1.774  0.00  0.00    +0.102 C 
ENDBRANCH  11  20
ENDBRANCH  10  11
ENDBRANCH   9  10
ENDBRANCH   8   9
ENDBRANCH   4   8
ENDBRANCH   3   5
ENDBRANCH   2   3
ENDBRANCH   1   2
BRANCH   1  21
ATOM     21  C   UNL     1      -0.140   1.185   9.907  0.00  0.00    +0.022 C 
BRANCH  21  22
ATOM     22  C   UNL     1      -0.856   1.678  11.166  0.00  0.00    +0.130 C 
BRANCH  22  23
ATOM     23  N   UNL     1      -0.147   1.193  12.353  0.00  0.00    -0.261 N 
ATOM     24  C   UNL     1       0.840   1.944  12.888  0.00  0.00    +0.264 A 
ATOM     25  O   UNL     1       1.145   3.013  12.398  0.00  0.00    -0.267 OA
ATOM     26  C   UNL     1       1.538   1.432  14.085  0.00  0.00    +0.063 A 
ATOM     27  C   UNL     1       2.566   2.150  14.692  0.00  0.00    +0.016 A 
ATOM     28  C   UNL     1       3.191   1.637  15.806  0.00  0.00    +0.016 A 
ATOM     29  C   UNL     1       2.799   0.400  16.328  0.00  0.00    +0.061 A 
ATOM     30  C   UNL     1       1.771  -0.323  15.726  0.00  0.00    +0.041 A 
ATOM     31  C   UNL     1       1.139   0.189  14.605  0.00  0.00    +0.056 A 
ATOM     32  N   UNL     1       0.111  -0.500  13.975  0.00  0.00    -0.307 N 
ATOM     33  H   UNL     1      -0.175  -1.359  14.323  0.00  0.00    +0.170 HD
ATOM     34  C   UNL     1      -0.495   0.013  12.891  0.00  0.00    +0.330 A 
ATOM     35  O   UNL     1      -1.393  -0.620  12.372  0.00  0.00    -0.246 OA
BRANCH  29  36
ATOM     36  C   UNL     1       3.477  -0.143  17.526  0.00  0.00    +0.339 C 
ATOM     37  O   UNL     1       3.139  -1.216  17.981  0.00  0.00    -0.245 OA
BRANCH  36  38
ATOM     38  O   UNL     1       4.471   0.554  18.111  0.00  0.00    -0.464 OA
ATOM     39  C   UNL     1       5.091  -0.040  19.281  0.00  0.00    +0.280 C 
ENDBRANCH  36  38
ENDBRANCH  29  36
ENDBRANCH  22  23
ENDBRANCH  21  22
ENDBRANCH   1  21
TORSDOF 14
