REMARK  Name = ZINC62244997
REMARK  9 active torsions:
REMARK  status: ('A' for Active; 'I' for Inactive)
REMARK    1  A    between atoms: C_1  and  C_2
REMARK    2  A    between atoms: C_2  and  C_3
REMARK    3  A    between atoms: C_2  and  C_4
REMARK    4  A    between atoms: C_4  and  C_5
REMARK    5  A    between atoms: C_6  and  C_20
REMARK    6  A    between atoms: N_9  and  C_10
REMARK    7  A    between atoms: C_13  and  S_16
REMARK    8  A    between atoms: S_16  and  N_19
REMARK    9  A    between atoms: C_20  and  N_21
REMARK                            x       y       z     vdW  Elec       q    Type
REMARK                         _______ _______ _______ _____ _____    ______ ____
ROOT
ATOM      1  C   UNL     1       0.113  -0.167   2.525  0.00  0.00    +0.066 A 
ATOM      2  C   UNL     1       0.060   1.108   2.976  0.00  0.00    +0.069 A 
ATOM      3  N   UNL     1      -1.049   1.204   3.719  0.00  0.00    -0.136 NA
ATOM      4  N   UNL     1      -1.646   0.065   3.729  0.00  0.00    -0.060 NA
ATOM      5  N   UNL     1      -0.991  -0.788   3.023  0.00  0.00    -0.217 N 
ENDROOT
BRANCH   5   6
ATOM      6  C   UNL     1      -1.350  -2.127   2.806  0.00  0.00    +0.067 A 
ATOM      7  C   UNL     1      -1.273  -2.670   1.530  0.00  0.00    +0.030 A 
ATOM      8  C   UNL     1      -1.628  -3.988   1.320  0.00  0.00    +0.030 A 
ATOM      9  C   UNL     1      -2.060  -4.766   2.378  0.00  0.00    +0.105 A 
ATOM     10  C   UNL     1      -2.138  -4.228   3.649  0.00  0.00    +0.030 A 
ATOM     11  C   UNL     1      -1.778  -2.913   3.867  0.00  0.00    +0.030 A 
BRANCH   9  12
ATOM     12  S   UNL     1      -2.512  -6.447   2.105  0.00  0.00    +0.056 S 
ATOM     13  O   UNL     1      -3.400  -6.805   3.155  0.00  0.00    -0.153 OA
ATOM     14  O   UNL     1      -2.870  -6.554   0.734  0.00  0.00    -0.153 OA
BRANCH  12  15
ATOM     15  N   UNL     1      -1.146  -7.361   2.310  0.00  0.00    -0.204 NA
ATOM     16  H   UNL     1      -1.216  -8.273   2.632  0.00  0.00    +0.144 HD
ATOM     17  H   UNL     1      -0.275  -6.984   2.107  0.00  0.00    +0.144 HD
ENDBRANCH  12  15
ENDBRANCH   9  12
ENDBRANCH   5   6
BRANCH   1  18
ATOM     18  C   UNL     1       1.176  -0.774   1.646  0.00  0.00    +0.060 C 
BRANCH  18  20
ATOM     19  C   UNL     1       1.884  -2.393   3.412  0.00  0.00    +0.007 C 
ATOM     20  C   UNL     1       2.346  -1.246   2.511  0.00  0.00    -0.011 C 
ATOM     21  C   UNL     1       3.483  -1.731   1.610  0.00  0.00    +0.007 C 
ENDBRANCH  18  20
ENDBRANCH   1  18
BRANCH   2  22
ATOM     22  C   UNL     1       1.055   2.205   2.698  0.00  0.00    -0.026 C 
BRANCH  22  23
ATOM     23  N   UNL     1       0.715   2.864   1.430  0.00  0.00    +0.382 N 
ATOM     24  H   UNL     1       1.425   3.545   1.204  0.00  0.00    -0.090 HD
ATOM     25  H   UNL     1       0.665   2.174   0.695  0.00  0.00    -0.090 HD
ATOM     26  H   UNL     1      -0.178   3.325   1.519  0.00  0.00    -0.090 HD
ENDBRANCH  22  23
ENDBRANCH   2  22
TORSDOF 7
