REMARK  Name = ZINC66255087
REMARK  5 active torsions:
REMARK  status: ('A' for Active; 'I' for Inactive)
REMARK    1  A    between atoms: C_1  and  C_2
REMARK    2  A    between atoms: C_2  and  C_3
REMARK    3  A    between atoms: C_3  and  C_4
REMARK    4  A    between atoms: N_13  and  S_14
REMARK    5  A    between atoms: S_14  and  C_17
REMARK                            x       y       z     vdW  Elec       q    Type
REMARK                         _______ _______ _______ _____ _____    ______ ____
ROOT
ATOM      1  C   UNL     1       0.739  -2.027  -1.265  0.00  0.00    -0.006 C 
ATOM      2  C   UNL     1       1.352  -2.526  -2.577  0.00  0.00    +0.010 C 
ATOM      3  C   UNL     1       1.163  -4.038  -2.696  0.00  0.00    +0.054 C 
ATOM      4  C   UNL     1       1.696  -4.707  -1.431  0.00  0.00    +0.028 A 
ATOM      5  C   UNL     1       1.869  -3.993  -0.312  0.00  0.00    +0.013 A 
ATOM      6  S   UNL     1       2.490  -5.171   0.861  0.00  0.00    -0.053 S 
ATOM      7  C   UNL     1       2.492  -6.595  -0.219  0.00  0.00    +0.192 A 
ATOM      8  N   UNL     1       2.016  -6.047  -1.386  0.00  0.00    -0.336 N 
ATOM      9  N   UNL     1       2.851  -7.830   0.034  0.00  0.00    -0.103 NA
ATOM     10  C   UNL     1       1.595  -2.538  -0.097  0.00  0.00    +0.047 C 
ATOM     11  H   UNL     1       1.906  -6.601  -2.174  0.00  0.00    +0.168 HD
ENDROOT
BRANCH   9  12
ATOM     12  S   UNL     1       2.757  -8.979  -1.154  0.00  0.00    +0.104 S 
ATOM     13  O   UNL     1       1.377  -9.150  -1.447  0.00  0.00    -0.146 OA
ATOM     14  O   UNL     1       3.707  -8.616  -2.147  0.00  0.00    -0.146 OA
BRANCH  12  15
ATOM     15  C   UNL     1       3.315 -10.498  -0.456  0.00  0.00    +0.150 A 
ATOM     16  C   UNL     1       4.592 -10.947  -0.442  0.00  0.00    +0.134 A 
ATOM     17  N   UNL     1       4.601 -12.142   0.183  0.00  0.00    -0.283 N 
ATOM     18  H   UNL     1       5.380 -12.699   0.339  0.00  0.00    +0.188 HD
ATOM     19  N   UNL     1       3.287 -12.438   0.567  0.00  0.00    -0.180 NA
ATOM     20  C   UNL     1       2.518 -11.449   0.189  0.00  0.00    +0.163 A 
ENDBRANCH  12  15
ENDBRANCH   9  12
BRANCH   1  21
ATOM     21  C   UNL     1       0.718  -0.497  -1.257  0.00  0.00    +0.003 C 
BRANCH  21  23
ATOM     22  C   UNL     1      -0.019   1.526   0.010  0.00  0.00    +0.004 C 
ATOM     23  C   UNL     1       0.002  -0.004   0.002  0.00  0.00    -0.003 C 
ENDBRANCH  21  23
ENDBRANCH   1  21
TORSDOF 4
