REMARK  Name = ZINC38547682
REMARK  13 active torsions:
REMARK  status: ('A' for Active; 'I' for Inactive)
REMARK    1  A    between atoms: C_1  and  C_2
REMARK    2  A    between atoms: C_6  and  N_8
REMARK    3  A    between atoms: N_8  and  C_9
REMARK    4  A    between atoms: C_9  and  C_11
REMARK    5  A    between atoms: C_9  and  C_21
REMARK    6  A    between atoms: C_14  and  O_19
REMARK    7  A    between atoms: C_16  and  O_17
REMARK    8  A    between atoms: O_17  and  C_18
REMARK    9  A    between atoms: O_19  and  C_20
REMARK   10  A    between atoms: C_22  and  C_35
REMARK   11  A    between atoms: C_23  and  C_34
REMARK   12  A    between atoms: C_25  and  N_26
REMARK   13  A    between atoms: C_27  and  C_29
REMARK                            x       y       z     vdW  Elec       q    Type
REMARK                         _______ _______ _______ _____ _____    ______ ____
ROOT
ATOM      1  C   UNL     1       0.286  -3.935   2.369  0.00  0.00    +0.138 C 
ENDROOT
BRANCH   1   2
ATOM      2  C   UNL     1      -0.922  -4.438   1.623  0.00  0.00    +0.009 A 
ATOM      3  C   UNL     1      -1.549  -5.610   2.007  0.00  0.00    -0.033 A 
ATOM      4  C   UNL     1      -2.633  -6.034   1.314  0.00  0.00    -0.008 A 
ATOM      5  S   UNL     1      -2.804  -4.763   0.073  0.00  0.00    -0.078 S 
ATOM      6  C   UNL     1      -1.421  -3.745   0.561  0.00  0.00    +0.078 A 
ATOM      7  C   UNL     1      -3.477  -7.263   1.535  0.00  0.00    +0.052 C 
ATOM      8  C   UNL     1      -1.032  -6.404   3.179  0.00  0.00    +0.045 C 
BRANCH   6   9
ATOM      9  N   UNL     1      -0.967  -2.550   0.000  0.00  0.00    -0.273 N 
ATOM     10  C   UNL     1      -1.667  -1.961  -0.990  0.00  0.00    +0.284 C 
ATOM     11  O   UNL     1      -2.741  -2.421  -1.333  0.00  0.00    -0.266 OA
ATOM     12  H   UNL     1      -0.148  -2.143   0.323  0.00  0.00    +0.156 HD
BRANCH  10  13
ATOM     13  C   UNL     1      -1.136  -0.767  -1.654  0.00  0.00    +0.189 A 
ATOM     14  C   UNL     1      -1.782  -0.018  -2.595  0.00  0.00    +0.054 A 
ATOM     15  C   UNL     1      -0.910   1.022  -2.952  0.00  0.00    +0.042 A 
ATOM     16  C   UNL     1       0.216   0.865  -2.221  0.00  0.00    +0.196 A 
ATOM     17  O   UNL     1       0.074  -0.211  -1.437  0.00  0.00    -0.458 OA
ENDBRANCH  10  13
ENDBRANCH   6   9
ENDBRANCH   1   2
BRANCH   1  18
ATOM     18  C   UNL     1       1.513  -4.102   1.510  0.00  0.00    +0.019 A 
ATOM     19  C   UNL     1       2.029  -3.019   0.825  0.00  0.00    +0.013 A 
ATOM     20  C   UNL     1       3.154  -3.170   0.037  0.00  0.00    +0.046 A 
ATOM     21  C   UNL     1       3.768  -4.410  -0.069  0.00  0.00    +0.124 A 
ATOM     22  C   UNL     1       3.252  -5.498   0.618  0.00  0.00    +0.091 A 
ATOM     23  C   UNL     1       2.126  -5.343   1.413  0.00  0.00    +0.129 A 
BRANCH  23  24
ATOM     24  O   UNL     1       1.622  -6.407   2.092  0.00  0.00    -0.495 OA
ATOM     25  C   UNL     1       2.304  -7.653   1.945  0.00  0.00    +0.277 C 
ENDBRANCH  23  24
BRANCH  21  26
ATOM     26  O   UNL     1       4.874  -4.557  -0.845  0.00  0.00    -0.495 OA
ATOM     27  C   UNL     1       5.350  -3.394  -1.523  0.00  0.00    +0.277 C 
ENDBRANCH  21  26
ENDBRANCH   1  18
BRANCH   1  28
ATOM     28  N   UNL     1       0.105  -2.517   2.691  0.00  0.00    -0.319 N 
ATOM     29  H   UNL     1      -0.535  -1.984   2.193  0.00  0.00    +0.148 HD
BRANCH  28  35
ATOM     30  C   UNL     1       1.305   1.445   5.096  0.00  0.00    +0.063 C 
ATOM     31  C   UNL     1       1.447  -0.041   4.886  0.00  0.00    +0.014 A 
ATOM     32  C   UNL     1       2.299  -0.765   5.696  0.00  0.00    +0.021 A 
ATOM     33  C   UNL     1       2.426  -2.133   5.498  0.00  0.00    +0.005 A 
ATOM     34  C   UNL     1       1.690  -2.725   4.488  0.00  0.00    +0.041 A 
ATOM     35  C   UNL     1       0.851  -1.935   3.710  0.00  0.00    +0.097 A 
ATOM     36  N   UNL     1       0.753  -0.633   3.933  0.00  0.00    -0.347 N 
ATOM     37  H   UNL     1       0.158  -0.102   3.381  0.00  0.00    +0.167 HD
ENDBRANCH  28  35
ENDBRANCH   1  28
TORSDOF 8
