REMARK  Name = ZINC63731199
REMARK  9 active torsions:
REMARK  status: ('A' for Active; 'I' for Inactive)
REMARK    1  A    between atoms: C_1  and  C_2
REMARK    2  A    between atoms: C_2  and  N_3
REMARK    3  A    between atoms: N_3  and  C_4
REMARK    4  A    between atoms: C_6  and  N_21
REMARK    5  A    between atoms: N_8  and  C_14
REMARK    6  A    between atoms: C_14  and  C_15
REMARK    7  A    between atoms: C_22  and  C_24
REMARK    8  A    between atoms: C_24  and  S_25
REMARK    9  A    between atoms: S_25  and  C_26
REMARK                            x       y       z     vdW  Elec       q    Type
REMARK                         _______ _______ _______ _____ _____    ______ ____
ROOT
ATOM      1  N   UNL     1       0.905   0.111  -1.447  0.00  0.00    -0.286 N 
ATOM      2  C   UNL     1       0.277  -0.163  -2.607  0.00  0.00    +0.226 C 
ATOM      3  O   UNL     1       0.823  -0.851  -3.444  0.00  0.00    -0.275 OA
ENDROOT
BRANCH   1   4
ATOM      4  C   UNL     1       2.287  -0.329  -1.240  0.00  0.00    +0.199 C 
ATOM      5  C   UNL     1       2.330  -1.378  -0.119  0.00  0.00    +0.173 C 
ATOM      6  N   UNL     1       2.084  -0.679   1.153  0.00  0.00    -0.262 N 
ATOM      7  C   UNL     1       2.828   0.431   1.425  0.00  0.00    +0.330 C 
ATOM      8  O   UNL     1       3.045   0.796   2.702  0.00  0.00    -0.250 OA
ATOM      9  N   UNL     1       3.336   1.149   0.441  0.00  0.00    -0.126 NA
ATOM     10  C   UNL     1       3.138   0.848  -0.839  0.00  0.00    +0.264 C 
ATOM     11  O   UNL     1       3.652   1.532  -1.702  0.00  0.00    -0.271 OA
BRANCH   5  12
ATOM     12  N   UNL     1       1.288  -2.389  -0.343  0.00  0.00    -0.311 NA
ATOM     13  H   UNL     1       1.365  -3.141   0.326  0.00  0.00    +0.120 HD
ATOM     14  H   UNL     1       0.369  -1.974  -0.316  0.00  0.00    +0.120 HD
ENDBRANCH   5  12
BRANCH   6  15
ATOM     15  C   UNL     1       1.073  -1.161   2.097  0.00  0.00    +0.146 C 
BRANCH  15  16
ATOM     16  C   UNL     1       1.732  -2.017   3.147  0.00  0.00    -0.030 A 
ATOM     17  C   UNL     1       1.901  -3.372   2.928  0.00  0.00    +0.005 A 
ATOM     18  C   UNL     1       2.506  -4.157   3.891  0.00  0.00    +0.000 A 
ATOM     19  C   UNL     1       2.943  -3.588   5.073  0.00  0.00    +0.000 A 
ATOM     20  C   UNL     1       2.776  -2.234   5.291  0.00  0.00    +0.000 A 
ATOM     21  C   UNL     1       2.175  -1.447   4.326  0.00  0.00    +0.005 A 
ENDBRANCH  15  16
ENDBRANCH   6  15
ENDBRANCH   1   4
BRANCH   1  23
ATOM     22  C   UNL     1       0.442   2.351  -0.579  0.00  0.00    +0.024 C 
ATOM     23  C   UNL     1       0.206   0.851  -0.393  0.00  0.00    +0.105 C 
ENDBRANCH   1  23
BRANCH   2  24
ATOM     24  C   UNL     1      -1.102   0.385  -2.866  0.00  0.00    +0.168 C 
BRANCH  24  25
ATOM     25  S   UNL     1      -1.672  -0.157  -4.501  0.00  0.00    -0.106 S 
BRANCH  25  26
ATOM     26  C   UNL     1      -3.324   0.577  -4.655  0.00  0.00    +0.236 C 
ATOM     27  N   UNL     1      -3.245   2.034  -4.491  0.00  0.00    -0.355 N 
ATOM     28  C   UNL     1      -3.974   2.350  -3.459  0.00  0.00    +0.061 A 
ATOM     29  C   UNL     1      -4.283   3.632  -2.810  0.00  0.00    +0.027 A 
ATOM     30  C   UNL     1      -5.089   3.652  -1.730  0.00  0.00    +0.002 A 
ATOM     31  C   UNL     1      -5.659   2.487  -1.186  0.00  0.00    +0.002 A 
ATOM     32  C   UNL     1      -5.440   1.262  -1.704  0.00  0.00    +0.027 A 
ATOM     33  C   UNL     1      -4.576   1.117  -2.884  0.00  0.00    +0.061 A 
ATOM     34  N   UNL     1      -4.196   0.086  -3.582  0.00  0.00    -0.355 N 
ATOM     35  H   UNL     1      -2.742   2.648  -5.048  0.00  0.00    +0.162 HD
ATOM     36  H   UNL     1      -4.444  -0.838  -3.421  0.00  0.00    +0.162 HD
ENDBRANCH  25  26
ENDBRANCH  24  25
ENDBRANCH   2  24
TORSDOF 8
