REMARK  Name = ZINC00926594
REMARK  10 active torsions:
REMARK  status: ('A' for Active; 'I' for Inactive)
REMARK    1  A    between atoms: C_1  and  C_2
REMARK    2  A    between atoms: C_7  and  C_15
REMARK    3  A    between atoms: C_13  and  C_14
REMARK    4  A    between atoms: C_15  and  N_16
REMARK    5  A    between atoms: N_16  and  C_17
REMARK    6  A    between atoms: N_16  and  C_24
REMARK    7  A    between atoms: C_17  and  C_18
REMARK    8  A    between atoms: C_24  and  C_25
REMARK    9  A    between atoms: N_29  and  C_30
REMARK   10  A    between atoms: C_30  and  C_31
REMARK                            x       y       z     vdW  Elec       q    Type
REMARK                         _______ _______ _______ _____ _____    ______ ____
ROOT
ATOM      1  N   UNL     1       1.536  -6.869   1.275  0.00  0.00    -0.287 NA
ENDROOT
BRANCH   1   2
ATOM      2  C   UNL     1       0.171  -6.433   1.599  0.00  0.00    +0.125 C 
BRANCH   2   9
ATOM      3  C   UNL     1      -0.071   1.490   2.490  0.00  0.00    +0.044 C 
ATOM      4  C   UNL     1      -0.095   0.034   2.103  0.00  0.00    -0.046 A 
ATOM      5  C   UNL     1      -0.465  -0.328   0.814  0.00  0.00    +0.004 A 
ATOM      6  C   UNL     1      -0.493  -1.642   0.442  0.00  0.00    +0.010 A 
ATOM      7  C   UNL     1      -0.146  -2.632   1.368  0.00  0.00    -0.001 A 
ATOM      8  C   UNL     1      -0.166  -4.050   1.003  0.00  0.00    +0.020 A 
ATOM      9  C   UNL     1       0.181  -4.965   1.941  0.00  0.00    +0.031 A 
ATOM     10  C   UNL     1       0.549  -4.548   3.238  0.00  0.00    +0.254 A 
ATOM     11  O   UNL     1       0.857  -5.388   4.067  0.00  0.00    -0.268 OA
ATOM     12  N   UNL     1       0.570  -3.249   3.583  0.00  0.00    -0.322 N 
ATOM     13  H   UNL     1       0.829  -2.997   4.483  0.00  0.00    +0.169 HD
ATOM     14  C   UNL     1       0.229  -2.269   2.675  0.00  0.00    +0.052 A 
ATOM     15  C   UNL     1       0.256  -0.924   3.029  0.00  0.00    -0.024 A 
ATOM     16  C   UNL     1       0.661  -0.517   4.422  0.00  0.00    +0.046 C 
ENDBRANCH   2   9
ENDBRANCH   1   2
BRANCH   1  17
ATOM     17  C   UNL     1       1.888  -6.515  -0.107  0.00  0.00    +0.120 C 
BRANCH  17  18
ATOM     18  C   UNL     1       0.947  -7.208  -1.058  0.00  0.00    -0.033 A 
ATOM     19  C   UNL     1       1.186  -8.515  -1.438  0.00  0.00    +0.005 A 
ATOM     20  C   UNL     1       0.323  -9.150  -2.311  0.00  0.00    +0.000 A 
ATOM     21  C   UNL     1      -0.781  -8.479  -2.803  0.00  0.00    +0.000 A 
ATOM     22  C   UNL     1      -1.021  -7.172  -2.422  0.00  0.00    +0.000 A 
ATOM     23  C   UNL     1      -0.160  -6.538  -1.546  0.00  0.00    +0.005 A 
ENDBRANCH  17  18
ENDBRANCH   1  17
BRANCH   1  24
ATOM     24  C   UNL     1       1.697  -8.310   1.507  0.00  0.00    +0.163 C 
BRANCH  24  25
ATOM     25  C   UNL     1       3.164  -8.647   1.579  0.00  0.00    +0.166 A 
ATOM     26  N   UNL     1       3.967  -8.867   0.566  0.00  0.00    -0.112 NA
ATOM     27  N   UNL     1       5.139  -9.122   1.036  0.00  0.00    -0.023 NA
ATOM     28  N   UNL     1       5.105  -9.070   2.322  0.00  0.00    -0.044 NA
ATOM     29  N   UNL     1       3.905  -8.775   2.695  0.00  0.00    -0.224 N 
BRANCH  29  30
ATOM     30  C   UNL     1       3.438  -8.612   4.074  0.00  0.00    +0.182 C 
BRANCH  30  31
ATOM     31  C   UNL     1       2.958  -9.940   4.601  0.00  0.00    -0.026 A 
ATOM     32  C   UNL     1       1.637 -10.312   4.435  0.00  0.00    +0.005 A 
ATOM     33  C   UNL     1       1.196 -11.530   4.919  0.00  0.00    +0.000 A 
ATOM     34  C   UNL     1       2.077 -12.376   5.567  0.00  0.00    +0.000 A 
ATOM     35  C   UNL     1       3.398 -12.004   5.732  0.00  0.00    +0.000 A 
ATOM     36  C   UNL     1       3.840 -10.788   5.244  0.00  0.00    +0.005 A 
ENDBRANCH  30  31
ENDBRANCH  29  30
ENDBRANCH  24  25
ENDBRANCH   1  24
TORSDOF 8
