REMARK  Name = ZINC65582241
REMARK  9 active torsions:
REMARK  status: ('A' for Active; 'I' for Inactive)
REMARK    1  A    between atoms: C_1  and  C_2
REMARK    2  A    between atoms: C_2  and  C_3
REMARK    3  A    between atoms: C_3  and  C_4
REMARK    4  A    between atoms: C_4  and  C_5
REMARK    5  A    between atoms: C_5  and  C_6
REMARK    6  A    between atoms: C_5  and  N_22
REMARK    7  A    between atoms: N_8  and  C_9
REMARK    8  A    between atoms: C_9  and  C_10
REMARK    9  A    between atoms: C_9  and  C_17
REMARK                            x       y       z     vdW  Elec       q    Type
REMARK                         _______ _______ _______ _____ _____    ______ ____
ROOT
ATOM      1  C   UNL     1      -2.828  -4.096   0.131  0.00  0.00    +0.234 C 
ATOM      2  O   UNL     1      -2.981  -4.782  -0.857  0.00  0.00    -0.274 OA
ATOM      3  N   UNL     1      -2.640  -4.676   1.332  0.00  0.00    -0.302 N 
ATOM      4  H   UNL     1      -2.518  -4.128   2.123  0.00  0.00    +0.150 HD
ENDROOT
BRANCH   1   5
ATOM      5  C   UNL     1      -2.848  -2.593   0.015  0.00  0.00    +0.160 C 
BRANCH   5   6
ATOM      6  N   UNL     1      -3.520  -2.208  -1.228  0.00  0.00    -0.288 N 
ATOM      7  C   UNL     1      -3.030  -2.619  -2.414  0.00  0.00    +0.298 C 
ATOM      8  O   UNL     1      -2.030  -3.310  -2.453  0.00  0.00    -0.253 OA
ATOM      9  N   UNL     1      -3.648  -2.265  -3.558  0.00  0.00    -0.313 N 
ATOM     10  H   UNL     1      -4.318  -1.657  -1.198  0.00  0.00    +0.151 HD
ATOM     11  H   UNL     1      -4.446  -1.713  -3.528  0.00  0.00    +0.146 HD
ATOM     12  H   UNL     1      -3.296  -2.561  -4.412  0.00  0.00    +0.146 HD
ENDBRANCH   5   6
BRANCH   5  13
ATOM     13  C   UNL     1      -1.413  -2.063   0.004  0.00  0.00    +0.032 C 
BRANCH  13  14
ATOM     14  C   UNL     1      -1.433  -0.534   0.013  0.00  0.00    +0.002 C 
BRANCH  14  16
ATOM     15  C   UNL     1      -0.019   1.526   0.010  0.00  0.00    +0.004 C 
ATOM     16  C   UNL     1       0.002  -0.004   0.002  0.00  0.00    -0.003 C 
ENDBRANCH  14  16
ENDBRANCH  13  14
ENDBRANCH   5  13
ENDBRANCH   1   5
BRANCH   3  17
ATOM     17  C   UNL     1      -2.621  -6.137   1.445  0.00  0.00    +0.140 C 
BRANCH  17  18
ATOM     18  C   UNL     1      -3.011  -6.538   2.844  0.00  0.00    -0.022 A 
ATOM     19  C   UNL     1      -2.551  -5.809   3.925  0.00  0.00    +0.008 A 
ATOM     20  C   UNL     1      -2.908  -6.176   5.209  0.00  0.00    +0.038 A 
ATOM     21  C   UNL     1      -3.726  -7.274   5.412  0.00  0.00    +0.123 A 
ATOM     22  C   UNL     1      -4.186  -8.004   4.329  0.00  0.00    +0.038 A 
ATOM     23  C   UNL     1      -3.832  -7.632   3.046  0.00  0.00    +0.008 A 
ATOM     24  F   UNL     1      -4.075  -7.634   6.667  0.00  0.00    -0.205 F 
ENDBRANCH  17  18
BRANCH  17  25
ATOM     25  C   UNL     1      -1.235  -6.646   1.144  0.00  0.00    +0.014 A 
ATOM     26  C   UNL     1      -0.863  -7.740   0.436  0.00  0.00    +0.013 A 
ATOM     27  C   UNL     1       0.484  -8.015   0.286  0.00  0.00    +0.008 A 
ATOM     28  C   UNL     1       1.392  -7.182   0.851  0.00  0.00    +0.045 A 
ATOM     29  S   UNL     1       0.343  -5.959   1.620  0.00  0.00    -0.099 S 
ENDBRANCH  17  25
ENDBRANCH   3  17
TORSDOF 8
