REMARK  Name = ZINC67274366
REMARK  9 active torsions:
REMARK  status: ('A' for Active; 'I' for Inactive)
REMARK    1  A    between atoms: C_1  and  N_2
REMARK    2  A    between atoms: N_2  and  C_3
REMARK    3  A    between atoms: N_2  and  C_4
REMARK    4  A    between atoms: C_11  and  C_13
REMARK    5  A    between atoms: C_13  and  C_14
REMARK    6  A    between atoms: C_14  and  C_15
REMARK    7  A    between atoms: C_15  and  C_16
REMARK    8  A    between atoms: C_16  and  C_17
REMARK    9  A    between atoms: C_17  and  C_18
REMARK                            x       y       z     vdW  Elec       q    Type
REMARK                         _______ _______ _______ _____ _____    ______ ____
ROOT
ATOM      1  C   UNL     1       0.690  -0.478  -1.207  0.00  0.00    -0.052 C 
ATOM      2  C   UNL     1       0.712  -2.008  -1.215  0.00  0.00    -0.012 C 
ATOM      3  C   UNL     1       1.399  -2.503  -2.490  0.00  0.00    +0.017 C 
ATOM      4  C   UNL     1       2.845  -1.998  -2.514  0.00  0.00    +0.107 C 
ATOM      5  N   UNL     1       2.839  -0.537  -2.361  0.00  0.00    -0.303 N 
ATOM      6  C   UNL     1       2.127   0.051  -1.217  0.00  0.00    +0.092 C 
ATOM      7  C   UNL     1       3.473   0.250  -3.252  0.00  0.00    +0.216 C 
ATOM      8  O   UNL     1       3.460   1.455  -3.114  0.00  0.00    -0.276 OA
ENDROOT
BRANCH   1  10
ATOM      9  C   UNL     1      -0.018   1.465   0.010  0.00  0.00    -0.096 C 
ATOM     10  N   UNL     1       0.002  -0.004   0.002  0.00  0.00    +0.379 N 
ATOM     11  C   UNL     1      -1.376  -0.512   0.012  0.00  0.00    -0.096 C 
ATOM     12  H   UNL     1       0.490  -0.338   0.820  0.00  0.00    -0.082 HD
ENDBRANCH   1  10
BRANCH   7  13
ATOM     13  C   UNL     1       4.199  -0.367  -4.420  0.00  0.00    +0.096 C 
BRANCH  13  14
ATOM     14  C   UNL     1       4.827   0.738  -5.272  0.00  0.00    +0.009 C 
BRANCH  14  15
ATOM     15  C   UNL     1       5.564   0.112  -6.457  0.00  0.00    +0.001 C 
BRANCH  15  16
ATOM     16  C   UNL     1       6.192   1.216  -7.309  0.00  0.00    +0.005 C 
BRANCH  16  17
ATOM     17  C   UNL     1       6.929   0.590  -8.495  0.00  0.00    +0.042 C 
BRANCH  17  18
ATOM     18  C   UNL     1       7.548   1.678  -9.333  0.00  0.00    -0.010 A 
ATOM     19  C   UNL     1       8.780   2.234  -9.236  0.00  0.00    +0.011 A 
ATOM     20  C   UNL     1       9.139   3.230 -10.124  0.00  0.00    +0.008 A 
ATOM     21  C   UNL     1       8.247   3.622 -11.067  0.00  0.00    +0.045 A 
ATOM     22  S   UNL     1       6.852   2.564 -10.718  0.00  0.00    -0.102 S 
ENDBRANCH  17  18
ENDBRANCH  16  17
ENDBRANCH  15  16
ENDBRANCH  14  15
ENDBRANCH  13  14
ENDBRANCH   7  13
TORSDOF 7
