REMARK  Name = ZINC39532683
REMARK  12 active torsions:
REMARK  status: ('A' for Active; 'I' for Inactive)
REMARK    1  A    between atoms: C_1  and  C_2
REMARK    2  A    between atoms: C_2  and  C_3
REMARK    3  A    between atoms: C_3  and  C_4
REMARK    4  A    between atoms: C_7  and  C_10
REMARK    5  A    between atoms: C_10  and  C_12
REMARK    6  A    between atoms: C_10  and  N_24
REMARK    7  A    between atoms: C_12  and  N_13
REMARK    8  A    between atoms: N_13  and  S_14
REMARK    9  A    between atoms: S_14  and  O_17
REMARK   10  A    between atoms: O_17  and  C_18
REMARK   11  A    between atoms: C_28  and  C_31
REMARK   12  A    between atoms: C_36  and  O_37
REMARK                            x       y       z     vdW  Elec       q    Type
REMARK                         _______ _______ _______ _____ _____    ______ ____
ROOT
ATOM      1  C   UNL     1      -0.928  -7.008  -0.783  0.00  0.00    -0.060 C 
ENDROOT
BRANCH   1   2
ATOM      2  N   UNL     1      -0.313  -7.804   0.287  0.00  0.00    +0.381 N 
ATOM      3  C   UNL     1       1.098  -7.421   0.432  0.00  0.00    -0.098 C 
ATOM      4  C   UNL     1       1.739  -8.250   1.548  0.00  0.00    -0.101 C 
ATOM      5  N   UNL     1       1.651  -9.677   1.210  0.00  0.00    +0.381 N 
ATOM      6  C   UNL     1       0.239 -10.059   1.065  0.00  0.00    -0.054 C 
ATOM      7  C   UNL     1      -0.401  -9.231  -0.050  0.00  0.00    -0.090 C 
ATOM      8  H   UNL     1       2.136  -9.848   0.343  0.00  0.00    -0.085 HD
ATOM      9  H   UNL     1       2.073 -10.223   1.946  0.00  0.00    -0.085 HD
ATOM     10  H   UNL     1      -0.798  -7.632   1.155  0.00  0.00    -0.081 HD
BRANCH   6  11
ATOM     11  C   UNL     1       0.148 -11.523   0.720  0.00  0.00    -0.022 A 
ATOM     12  C   UNL     1       1.200 -12.149   0.079  0.00  0.00    +0.005 A 
ATOM     13  C   UNL     1       1.117 -13.491  -0.239  0.00  0.00    +0.000 A 
ATOM     14  C   UNL     1      -0.018 -14.212   0.083  0.00  0.00    +0.004 A 
ATOM     15  C   UNL     1      -1.072 -13.591   0.724  0.00  0.00    +0.045 A 
ATOM     16  C   UNL     1      -0.989 -12.245   1.049  0.00  0.00    +0.118 A 
BRANCH  16  17
ATOM     17  O   UNL     1      -2.023 -11.633   1.685  0.00  0.00    -0.507 OA
ATOM     18  H   UNL     1      -2.719 -11.318   1.092  0.00  0.00    +0.292 HD
ENDBRANCH  16  17
ENDBRANCH   6  11
ENDBRANCH   1   2
BRANCH   1  22
ATOM     19  C   UNL     1      -0.601  -2.855   0.159  0.00  0.00    -0.047 A 
ATOM     20  C   UNL     1      -0.409  -3.286  -1.140  0.00  0.00    +0.004 A 
ATOM     21  C   UNL     1      -0.515  -4.630  -1.445  0.00  0.00    +0.002 A 
ATOM     22  C   UNL     1      -0.812  -5.543  -0.451  0.00  0.00    -0.063 A 
ATOM     23  C   UNL     1      -1.003  -5.112   0.849  0.00  0.00    +0.002 A 
ATOM     24  C   UNL     1      -0.893  -3.768   1.154  0.00  0.00    +0.004 A 
BRANCH  19  25
ATOM     25  C   UNL     1      -0.486  -1.389   0.491  0.00  0.00    +0.035 C 
BRANCH  25  27
ATOM     26  C   UNL     1       1.079   0.425   1.199  0.00  0.00    +0.004 C 
ATOM     27  C   UNL     1       0.962  -1.062   0.862  0.00  0.00    +0.001 C 
ENDBRANCH  25  27
ENDBRANCH  19  25
ENDBRANCH   1  22
BRANCH   1  28
ATOM     28  C   UNL     1      -2.405  -7.386  -0.915  0.00  0.00    -0.121 C 
BRANCH  28  29
ATOM     29  N   UNL     1      -3.000  -6.647  -2.031  0.00  0.00    +0.491 NA
BRANCH  29  30
ATOM     30  S   UNL     1      -4.625  -6.765  -2.329  0.00  0.00    +0.066 S 
ATOM     31  O   UNL     1      -4.906  -8.146  -2.506  0.00  0.00    -0.159 OA
ATOM     32  O   UNL     1      -5.277  -5.975  -1.345  0.00  0.00    -0.159 OA
BRANCH  30  33
ATOM     33  O   UNL     1      -4.886  -6.093  -3.670  0.00  0.00    -0.362 OA
BRANCH  33  34
ATOM     34  C   UNL     1      -4.471  -6.817  -4.742  0.00  0.00    +0.154 A 
ATOM     35  C   UNL     1      -3.153  -6.738  -5.166  0.00  0.00    +0.048 A 
ATOM     36  C   UNL     1      -2.733  -7.476  -6.255  0.00  0.00    +0.004 A 
ATOM     37  C   UNL     1      -3.627  -8.293  -6.924  0.00  0.00    +0.000 A 
ATOM     38  C   UNL     1      -4.941  -8.374  -6.504  0.00  0.00    +0.004 A 
ATOM     39  C   UNL     1      -5.364  -7.642  -5.410  0.00  0.00    +0.048 A 
ENDBRANCH  33  34
ENDBRANCH  30  33
ENDBRANCH  29  30
ENDBRANCH  28  29
ENDBRANCH   1  28
TORSDOF 11
