REMARK  Name = ZINC54411768
REMARK  11 active torsions:
REMARK  status: ('A' for Active; 'I' for Inactive)
REMARK    1  A    between atoms: C_1  and  C_2
REMARK    2  A    between atoms: C_4  and  C_26
REMARK    3  A    between atoms: C_7  and  N_8
REMARK    4  A    between atoms: N_11  and  C_12
REMARK    5  A    between atoms: C_12  and  C_13
REMARK    6  A    between atoms: C_13  and  C_14
REMARK    7  A    between atoms: C_13  and  C_15
REMARK    8  A    between atoms: C_13  and  N_16
REMARK    9  A    between atoms: C_18  and  C_25
REMARK   10  A    between atoms: C_21  and  C_24
REMARK   11  A    between atoms: N_28  and  C_29
REMARK                            x       y       z     vdW  Elec       q    Type
REMARK                         _______ _______ _______ _____ _____    ______ ____
ROOT
ATOM      1  N   UNL     1      -2.572  -3.175   5.132  0.00  0.00    -0.269 N 
ATOM      2  C   UNL     1      -1.381  -2.546   5.173  0.00  0.00    +0.304 C 
ATOM      3  O   UNL     1      -0.548  -2.765   4.314  0.00  0.00    -0.253 OA
ATOM      4  N   UNL     1      -1.113  -1.673   6.164  0.00  0.00    -0.300 N 
ATOM      5  H   UNL     1      -3.258  -2.957   5.782  0.00  0.00    +0.156 HD
ATOM      6  H   UNL     1      -1.777  -1.498   6.849  0.00  0.00    +0.150 HD
ENDROOT
BRANCH   1  13
ATOM      7  C   UNL     1      -4.190  -5.402   5.837  0.00  0.00    +0.045 C 
ATOM      8  C   UNL     1      -3.605  -5.247   4.457  0.00  0.00    -0.028 A 
ATOM      9  C   UNL     1      -3.854  -6.198   3.494  0.00  0.00    +0.018 A 
ATOM     10  C   UNL     1      -3.312  -6.054   2.214  0.00  0.00    +0.037 A 
ATOM     11  C   UNL     1      -2.517  -4.943   1.917  0.00  0.00    +0.015 A 
ATOM     12  C   UNL     1      -2.271  -3.996   2.885  0.00  0.00    +0.024 A 
ATOM     13  C   UNL     1      -2.818  -4.140   4.156  0.00  0.00    +0.038 A 
BRANCH  10  14
ATOM     14  C   UNL     1      -3.577  -7.072   1.179  0.00  0.00    +0.244 C 
ATOM     15  O   UNL     1      -4.268  -8.038   1.440  0.00  0.00    -0.270 OA
ATOM     16  N   UNL     1      -3.053  -6.931  -0.054  0.00  0.00    -0.314 N 
ATOM     17  C   UNL     1      -3.316  -7.942  -1.082  0.00  0.00    +0.128 C 
ATOM     18  H   UNL     1      -2.501  -6.161  -0.262  0.00  0.00    +0.149 HD
ENDBRANCH  10  14
ENDBRANCH   1  13
BRANCH   4  19
ATOM     19  C   UNL     1       0.182  -0.989   6.208  0.00  0.00    +0.093 C 
BRANCH  19  20
ATOM     20  C   UNL     1       0.277  -0.158   7.489  0.00  0.00    -0.055 C 
ATOM     21  C   UNL     1       0.168  -1.081   8.705  0.00  0.00    -0.008 C 
ATOM     22  C   UNL     1       1.619   0.575   7.524  0.00  0.00    -0.008 C 
BRANCH  20  23
ATOM     23  N   UNL     1      -0.817   0.822   7.519  0.00  0.00    +0.384 N 
ATOM     24  C   UNL     1      -0.779   1.633   6.296  0.00  0.00    -0.075 C 
ATOM     25  C   UNL     1      -1.964   2.601   6.285  0.00  0.00    -0.031 C 
ATOM     26  C   UNL     1      -1.881   3.517   7.509  0.00  0.00    +0.003 C 
ATOM     27  C   UNL     1      -1.847   2.656   8.776  0.00  0.00    -0.031 C 
ATOM     28  C   UNL     1      -0.666   1.686   8.696  0.00  0.00    -0.075 C 
ATOM     29  C   UNL     1      -1.686   3.558  10.002  0.00  0.00    +0.005 C 
ATOM     30  C   UNL     1      -1.920   3.446   5.010  0.00  0.00    +0.005 C 
ATOM     31  H   UNL     1      -1.701   0.337   7.571  0.00  0.00    -0.081 HD
ENDBRANCH  20  23
ENDBRANCH  19  20
ENDBRANCH   4  19
TORSDOF 5
