REMARK  Name = ZINC05954262
REMARK  11 active torsions:
REMARK  status: ('A' for Active; 'I' for Inactive)
REMARK    1  A    between atoms: C_1  and  C_2
REMARK    2  A    between atoms: C_5  and  C_30
REMARK    3  A    between atoms: N_9  and  N_10
REMARK    4  A    between atoms: C_11  and  C_13
REMARK    5  A    between atoms: C_13  and  C_14
REMARK    6  A    between atoms: C_14  and  C_15
REMARK    7  A    between atoms: N_17  and  N_18
REMARK    8  A    between atoms: C_21  and  C_27
REMARK    9  A    between atoms: C_25  and  C_26
REMARK   10  A    between atoms: C_27  and  C_29
REMARK   11  A    between atoms: C_30  and  C_32
REMARK                            x       y       z     vdW  Elec       q    Type
REMARK                         _______ _______ _______ _____ _____    ______ ____
ROOT
ATOM      1  C   UNL     1       0.002  -0.004   0.002  0.00  0.00    +0.107 C 
ENDROOT
BRANCH   1   3
ATOM      2  N   UNL     1      -1.195   2.161   0.019  0.00  0.00    -0.207 N 
ATOM      3  C   UNL     1      -0.018   1.503   0.010  0.00  0.00    +0.233 C 
ATOM      4  O   UNL     1       1.024   2.124   0.004  0.00  0.00    -0.274 OA
ATOM      5  H   UNL     1      -2.028   1.664   0.021  0.00  0.00    +0.177 HD
BRANCH   2  13
ATOM      6  C   UNL     1      -1.141   6.457  -0.214  0.00  0.00    +0.045 C 
ATOM      7  C   UNL     1      -2.397   5.667   0.044  0.00  0.00    -0.032 C 
ATOM      8  C   UNL     1      -3.536   6.301   0.277  0.00  0.00    -0.021 C 
ATOM      9  C   UNL     1      -4.833   5.594   0.534  0.00  0.00    +0.035 C 
ATOM     10  C   UNL     1      -4.597   4.166   1.023  0.00  0.00    +0.024 C 
ATOM     11  C   UNL     1      -3.665   3.447   0.032  0.00  0.00    +0.065 C 
ATOM     12  C   UNL     1      -2.348   4.196   0.036  0.00  0.00    +0.062 C 
ATOM     13  N   UNL     1      -1.214   3.562   0.027  0.00  0.00    -0.185 NA
BRANCH  10  14
ATOM     14  C   UNL     1      -5.912   3.436   1.101  0.00  0.00    -0.076 C 
ATOM     15  C   UNL     1      -6.327   2.953   2.246  0.00  0.00    +0.007 C 
ATOM     16  C   UNL     1      -6.751   3.260  -0.139  0.00  0.00    +0.039 C 
ENDBRANCH  10  14
ENDBRANCH   2  13
ENDBRANCH   1   3
BRANCH   1  17
ATOM     17  C   UNL     1       1.451  -0.494  -0.015  0.00  0.00    +0.107 C 
BRANCH  17  18
ATOM     18  C   UNL     1       1.472  -2.001  -0.023  0.00  0.00    +0.233 C 
ATOM     19  O   UNL     1       0.429  -2.622  -0.016  0.00  0.00    -0.274 OA
ATOM     20  N   UNL     1       2.648  -2.659  -0.037  0.00  0.00    -0.207 N 
ATOM     21  H   UNL     1       3.481  -2.163  -0.043  0.00  0.00    +0.177 HD
BRANCH  20  22
ATOM     22  N   UNL     1       2.667  -4.060  -0.045  0.00  0.00    -0.185 NA
ATOM     23  C   UNL     1       3.801  -4.694  -0.059  0.00  0.00    +0.062 C 
ATOM     24  C   UNL     1       5.118  -3.945  -0.074  0.00  0.00    +0.065 C 
ATOM     25  C   UNL     1       6.064  -4.675   0.896  0.00  0.00    +0.024 C 
ATOM     26  C   UNL     1       6.293  -6.098   0.388  0.00  0.00    +0.035 C 
ATOM     27  C   UNL     1       4.992  -6.802   0.142  0.00  0.00    -0.021 C 
ATOM     28  C   UNL     1       3.850  -6.165  -0.068  0.00  0.00    -0.032 C 
ATOM     29  C   UNL     1       2.590  -6.953  -0.317  0.00  0.00    +0.045 C 
BRANCH  25  30
ATOM     30  C   UNL     1       7.381  -3.945   0.962  0.00  0.00    -0.076 C 
ATOM     31  C   UNL     1       7.812  -3.475   2.107  0.00  0.00    +0.007 C 
ATOM     32  C   UNL     1       8.201  -3.756  -0.287  0.00  0.00    +0.039 C 
ENDBRANCH  25  30
ENDBRANCH  20  22
ENDBRANCH  17  18
ENDBRANCH   1  17
TORSDOF 7
