REMARK  Name = ZINC43436929
REMARK  10 active torsions:
REMARK  status: ('A' for Active; 'I' for Inactive)
REMARK    1  A    between atoms: C_1  and  C_2
REMARK    2  A    between atoms: C_9  and  C_20
REMARK    3  A    between atoms: N_10  and  C_11
REMARK    4  A    between atoms: C_11  and  C_13
REMARK    5  A    between atoms: C_11  and  C_16
REMARK    6  A    between atoms: C_13  and  C_14
REMARK    7  A    between atoms: C_13  and  C_15
REMARK    8  A    between atoms: C_16  and  O_18
REMARK    9  A    between atoms: O_18  and  C_19
REMARK   10  A    between atoms: C_20  and  C_22
REMARK                            x       y       z     vdW  Elec       q    Type
REMARK                         _______ _______ _______ _____ _____    ______ ____
ROOT
ATOM      1  C   UNL     1      -1.437   0.411   2.904  0.00  0.00    +0.044 C 
ATOM      2  C   UNL     1      -1.099  -0.909   2.261  0.00  0.00    -0.048 A 
ATOM      3  C   UNL     1      -1.048  -1.005   0.877  0.00  0.00    +0.005 A 
ATOM      4  C   UNL     1      -0.741  -2.205   0.272  0.00  0.00    +0.028 A 
ATOM      5  C   UNL     1      -0.481  -3.323   1.053  0.00  0.00    +0.070 A 
ATOM      6  C   UNL     1      -0.532  -3.225   2.453  0.00  0.00    +0.090 A 
ATOM      7  C   UNL     1      -0.841  -1.997   3.045  0.00  0.00    +0.033 A 
ATOM      8  N   UNL     1      -0.239  -4.455   2.947  0.00  0.00    -0.231 NA
ATOM      9  C   UNL     1      -0.017  -5.279   1.965  0.00  0.00    +0.129 A 
ATOM     10  N   UNL     1      -0.152  -4.635   0.775  0.00  0.00    -0.312 N 
ENDROOT
BRANCH   9  11
ATOM     11  C   UNL     1       0.339  -6.735   2.123  0.00  0.00    +0.143 C 
ATOM     12  C   UNL     1       1.824  -6.862   2.468  0.00  0.00    +0.033 C 
ATOM     13 CL   UNL     1      -0.649  -7.455   3.449  0.00  0.00    -0.114 Cl
ENDBRANCH   9  11
BRANCH  10  14
ATOM     14  C   UNL     1       0.018  -5.224  -0.556  0.00  0.00    +0.200 C 
BRANCH  14  15
ATOM     15  C   UNL     1       1.095  -4.453  -1.321  0.00  0.00    +0.017 C 
ATOM     16  C   UNL     1       2.437  -4.601  -0.601  0.00  0.00    +0.010 C 
ATOM     17  C   UNL     1       1.214  -5.013  -2.740  0.00  0.00    +0.010 C 
ENDBRANCH  14  15
BRANCH  14  18
ATOM     18  C   UNL     1      -1.285  -5.148  -1.309  0.00  0.00    +0.330 C 
ATOM     19  O   UNL     1      -2.111  -4.321  -1.006  0.00  0.00    -0.248 OA
BRANCH  18  20
ATOM     20  O   UNL     1      -1.527  -6.000  -2.318  0.00  0.00    -0.466 OA
ATOM     21  C   UNL     1      -2.783  -5.872  -2.988  0.00  0.00    +0.280 C 
ENDBRANCH  18  20
ENDBRANCH  14  18
ENDBRANCH  10  14
TORSDOF 5
