REMARK  Name = ZINC13586036
REMARK  11 active torsions:
REMARK  status: ('A' for Active; 'I' for Inactive)
REMARK    1  A    between atoms: C_1  and  C_2
REMARK    2  A    between atoms: C_4  and  S_17
REMARK    3  A    between atoms: C_5  and  C_16
REMARK    4  A    between atoms: N_6  and  S_7
REMARK    5  A    between atoms: S_7  and  C_10
REMARK    6  A    between atoms: S_17  and  N_20
REMARK    7  A    between atoms: N_20  and  C_21
REMARK    8  A    between atoms: C_21  and  C_23
REMARK    9  A    between atoms: C_21  and  C_24
REMARK   10  A    between atoms: C_24  and  C_25
REMARK   11  A    between atoms: C_25  and  C_26
REMARK                            x       y       z     vdW  Elec       q    Type
REMARK                         _______ _______ _______ _____ _____    ______ ____
ROOT
ATOM      1  C   UNL     1       6.111  -2.064   4.920  0.00  0.00    +0.065 C 
ATOM      2  C   UNL     1       6.385  -2.106   3.439  0.00  0.00    +0.042 A 
ATOM      3  C   UNL     1       6.505  -3.220   2.688  0.00  0.00    +0.053 A 
ATOM      4  C   UNL     1       6.761  -2.811   1.364  0.00  0.00    +0.128 A 
ATOM      5  C   UNL     1       6.777  -1.462   1.355  0.00  0.00    +0.066 A 
ATOM      6  N   UNL     1       6.547  -1.024   2.625  0.00  0.00    -0.218 N 
ATOM      7  C   UNL     1       7.009  -0.590   0.148  0.00  0.00    +0.067 C 
ENDROOT
BRANCH   6   8
ATOM      8  S   UNL     1       6.475   0.561   3.101  0.00  0.00    +0.084 S 
ATOM      9  O   UNL     1       6.779   0.582   4.489  0.00  0.00    -0.148 OA
ATOM     10  O   UNL     1       7.219   1.305   2.146  0.00  0.00    -0.148 OA
BRANCH   8  11
ATOM     11  C   UNL     1       4.797   1.076   2.945  0.00  0.00    +0.111 A 
ATOM     12  C   UNL     1       4.352   1.631   1.760  0.00  0.00    +0.029 A 
ATOM     13  C   UNL     1       3.035   2.031   1.636  0.00  0.00    +0.002 A 
ATOM     14  C   UNL     1       2.165   1.885   2.700  0.00  0.00    +0.000 A 
ATOM     15  C   UNL     1       2.611   1.335   3.887  0.00  0.00    +0.002 A 
ATOM     16  C   UNL     1       3.928   0.930   4.009  0.00  0.00    +0.029 A 
ENDBRANCH   8  11
ENDBRANCH   6   8
BRANCH   4  17
ATOM     17  S   UNL     1       7.006  -3.867  -0.025  0.00  0.00    +0.060 S 
ATOM     18  O   UNL     1       6.220  -3.336  -1.082  0.00  0.00    -0.153 OA
ATOM     19  O   UNL     1       6.852  -5.199   0.446  0.00  0.00    -0.153 OA
BRANCH  17  20
ATOM     20  N   UNL     1       8.589  -3.708  -0.486  0.00  0.00    -0.187 NA
ATOM     21  H   UNL     1       8.806  -3.319  -1.348  0.00  0.00    +0.148 HD
BRANCH  20  22
ATOM     22  C   UNL     1       9.661  -4.156   0.406  0.00  0.00    +0.074 C 
ATOM     23  C   UNL     1      10.104  -5.564   0.006  0.00  0.00    +0.025 C 
BRANCH  22  24
ATOM     24  C   UNL     1      10.848  -3.197   0.297  0.00  0.00    +0.025 C 
BRANCH  24  25
ATOM     25  C   UNL     1      10.439  -1.817   0.816  0.00  0.00    +0.037 C 
BRANCH  25  26
ATOM     26  C   UNL     1      11.609  -0.873   0.709  0.00  0.00    -0.047 A 
ATOM     27  C   UNL     1      11.795  -0.131  -0.443  0.00  0.00    +0.003 A 
ATOM     28  C   UNL     1      12.868   0.735  -0.541  0.00  0.00    +0.000 A 
ATOM     29  C   UNL     1      13.756   0.858   0.511  0.00  0.00    +0.000 A 
ATOM     30  C   UNL     1      13.570   0.115   1.663  0.00  0.00    +0.000 A 
ATOM     31  C   UNL     1      12.497  -0.750   1.761  0.00  0.00    +0.003 A 
ENDBRANCH  25  26
ENDBRANCH  24  25
ENDBRANCH  22  24
ENDBRANCH  20  22
ENDBRANCH  17  20
ENDBRANCH   4  17
TORSDOF 8
