REMARK  Name = ZINC13064642
REMARK  12 active torsions:
REMARK  status: ('A' for Active; 'I' for Inactive)
REMARK    1  A    between atoms: C_1  and  C_2
REMARK    2  A    between atoms: C_2  and  C_3
REMARK    3  A    between atoms: C_3  and  C_5
REMARK    4  A    between atoms: C_3  and  N_66
REMARK    5  A    between atoms: N_9  and  C_10
REMARK    6  A    between atoms: C_10  and  C_11
REMARK    7  A    between atoms: C_17  and  C_18
REMARK    8  A    between atoms: C_17  and  N_66
REMARK    9  A    between atoms: C_23  and  C_24
REMARK   10  A    between atoms: C_23  and  N_66
REMARK   11  A    between atoms: C_28  and  C_37
REMARK   12  A    between atoms: C_29  and  C_36
REMARK                            x       y       z     vdW  Elec       q    Type
REMARK                         _______ _______ _______ _____ _____    ______ ____
ROOT
ATOM      1  N   UNL     1      -1.933   0.898   1.346  0.00  0.00    +0.394 N 
ATOM      2  H   UNL     1      -1.776  -0.116   1.393  0.00  0.00    -0.080 HD
ENDROOT
BRANCH   1   3
ATOM      3  C   UNL     1      -0.630   1.579   1.191  0.00  0.00    +0.003 C 
BRANCH   3   4
ATOM      4  C   UNL     1       0.210   1.314   2.413  0.00  0.00    +0.138 A 
ATOM      5  N   UNL     1       0.357   0.166   3.029  0.00  0.00    -0.115 NA
ATOM      6  N   UNL     1       1.153   0.347   4.025  0.00  0.00    -0.023 NA
ATOM      7  N   UNL     1       1.512   1.583   4.066  0.00  0.00    -0.044 NA
ATOM      8  N   UNL     1       0.952   2.212   3.089  0.00  0.00    -0.226 N 
BRANCH   8   9
ATOM      9  C   UNL     1       1.095   3.635   2.774  0.00  0.00    +0.182 C 
BRANCH   9  10
ATOM     10  C   UNL     1       0.029   4.419   3.496  0.00  0.00    -0.026 A 
ATOM     11  C   UNL     1      -1.191   4.650   2.888  0.00  0.00    +0.005 A 
ATOM     12  C   UNL     1      -2.170   5.365   3.552  0.00  0.00    +0.000 A 
ATOM     13  C   UNL     1      -1.925   5.858   4.820  0.00  0.00    +0.000 A 
ATOM     14  C   UNL     1      -0.704   5.632   5.426  0.00  0.00    +0.000 A 
ATOM     15  C   UNL     1       0.274   4.912   4.764  0.00  0.00    +0.005 A 
ENDBRANCH   9  10
ENDBRANCH   8   9
ENDBRANCH   3   4
BRANCH   3  17
ATOM     16  C   UNL     1       1.399   1.760  -0.255  0.00  0.00    +0.002 C 
ATOM     17  C   UNL     1       0.077   1.020  -0.045  0.00  0.00    -0.011 C 
ENDBRANCH   3  17
ENDBRANCH   1   3
BRANCH   1  18
ATOM     18  C   UNL     1      -2.589   1.340   2.595  0.00  0.00    -0.002 C 
BRANCH  18  19
ATOM     19  C   UNL     1      -3.752   0.426   2.882  0.00  0.00    +0.089 A 
ATOM     20  C   UNL     1      -3.722  -0.659   3.676  0.00  0.00    +0.042 A 
ATOM     21  C   UNL     1      -5.022  -1.214   3.660  0.00  0.00    +0.041 A 
ATOM     22  C   UNL     1      -5.768  -0.436   2.856  0.00  0.00    +0.195 A 
ATOM     23  O   UNL     1      -4.995   0.559   2.392  0.00  0.00    -0.470 OA
ENDBRANCH  18  19
ENDBRANCH   1  18
BRANCH   1  24
ATOM     24  C   UNL     1      -2.800   1.196   0.187  0.00  0.00    -0.036 C 
BRANCH  24  25
ATOM     25  C   UNL     1      -2.898   2.685  -0.030  0.00  0.00    +0.001 A 
ATOM     26  C   UNL     1      -2.058   3.298  -0.899  0.00  0.00    +0.017 A 
ATOM     27  C   UNL     1      -2.182   4.744  -1.090  0.00  0.00    -0.001 A 
ATOM     28  C   UNL     1      -1.346   5.431  -1.977  0.00  0.00    +0.013 A 
ATOM     29  C   UNL     1      -1.485   6.781  -2.130  0.00  0.00    -0.047 A 
ATOM     30  C   UNL     1      -2.447   7.478  -1.411  0.00  0.00    -0.046 A 
ATOM     31  C   UNL     1      -3.281   6.822  -0.532  0.00  0.00    +0.030 A 
ATOM     32  C   UNL     1      -3.159   5.447  -0.361  0.00  0.00    +0.049 A 
ATOM     33  N   UNL     1      -3.980   4.765   0.512  0.00  0.00    -0.322 N 
ATOM     34  H   UNL     1      -4.653   5.251   1.014  0.00  0.00    +0.169 HD
ATOM     35  C   UNL     1      -3.862   3.436   0.677  0.00  0.00    +0.251 A 
ATOM     36  O   UNL     1      -4.604   2.866   1.457  0.00  0.00    -0.268 OA
ATOM     37  C   UNL     1      -2.581   8.968  -1.595  0.00  0.00    +0.044 C 
ATOM     38  C   UNL     1      -0.585   7.521  -3.085  0.00  0.00    +0.044 C 
ENDBRANCH  24  25
ENDBRANCH   1  24
TORSDOF 9
