REMARK  Name = ZINC02911376
REMARK  9 active torsions:
REMARK  status: ('A' for Active; 'I' for Inactive)
REMARK    1  A    between atoms: C_1  and  C_2
REMARK    2  A    between atoms: C_3  and  C_34
REMARK    3  A    between atoms: C_9  and  C_12
REMARK    4  A    between atoms: C_15  and  S_23
REMARK    5  A    between atoms: N_16  and  C_17
REMARK    6  A    between atoms: S_23  and  C_24
REMARK    7  A    between atoms: C_24  and  C_25
REMARK    8  A    between atoms: N_27  and  C_28
REMARK    9  A    between atoms: C_28  and  C_29
REMARK                            x       y       z     vdW  Elec       q    Type
REMARK                         _______ _______ _______ _____ _____    ______ ____
ROOT
ATOM      1  C   UNL     1       1.241  -0.437  -0.012  0.00  0.00    +0.169 A 
ATOM      2  N   UNL     1       0.002  -0.004   0.002  0.00  0.00    -0.128 NA
ATOM      3  N   UNL     1      -0.015   1.281   0.009  0.00  0.00    -0.122 NA
ATOM      4  C   UNL     1       1.212   1.750  -0.000  0.00  0.00    +0.197 A 
ATOM      5  N   UNL     1       2.057   0.673  -0.014  0.00  0.00    -0.270 N 
ENDROOT
BRANCH   1  14
ATOM      6  C   UNL     1      -0.892  -5.672   0.948  0.00  0.00    +0.046 C 
ATOM      7  C   UNL     1       0.547  -5.468   0.550  0.00  0.00    -0.022 A 
ATOM      8  C   UNL     1       1.471  -6.426   0.376  0.00  0.00    +0.017 A 
ATOM      9  N   UNL     1       2.665  -5.863   0.015  0.00  0.00    -0.358 N 
ATOM     10  H   UNL     1       3.480  -6.356  -0.165  0.00  0.00    +0.166 HD
ATOM     11  C   UNL     1       2.536  -4.494  -0.054  0.00  0.00    +0.047 A 
ATOM     12  C   UNL     1       1.203  -4.186   0.278  0.00  0.00    +0.003 A 
ATOM     13  C   UNL     1       0.778  -2.858   0.297  0.00  0.00    +0.022 A 
ATOM     14  C   UNL     1       1.679  -1.849  -0.024  0.00  0.00    +0.020 A 
ATOM     15  C   UNL     1       3.003  -2.168  -0.353  0.00  0.00    +0.013 A 
ATOM     16  C   UNL     1       3.422  -3.467  -0.367  0.00  0.00    +0.027 A 
ATOM     17  C   UNL     1       1.228  -7.903   0.552  0.00  0.00    +0.063 C 
ENDBRANCH   1  14
BRANCH   5  18
ATOM     18  C   UNL     1       3.458   0.696  -0.027  0.00  0.00    +0.051 A 
ATOM     19  C   UNL     1       4.172   0.199   1.055  0.00  0.00    +0.026 A 
ATOM     20  C   UNL     1       5.553   0.218   1.036  0.00  0.00    +0.002 A 
ATOM     21  C   UNL     1       6.225   0.741  -0.053  0.00  0.00    +0.000 A 
ATOM     22  C   UNL     1       5.516   1.242  -1.130  0.00  0.00    +0.002 A 
ATOM     23  C   UNL     1       4.135   1.221  -1.120  0.00  0.00    +0.026 A 
ENDBRANCH   5  18
BRANCH   4  24
ATOM     24  S   UNL     1       1.682   3.448   0.004  0.00  0.00    -0.076 S 
BRANCH  24  25
ATOM     25  C   UNL     1       0.048   4.227   0.023  0.00  0.00    +0.173 C 
BRANCH  25  26
ATOM     26  C   UNL     1       0.205   5.725   0.029  0.00  0.00    +0.224 C 
ATOM     27  O   UNL     1       1.313   6.219   0.021  0.00  0.00    -0.275 OA
ATOM     28  N   UNL     1      -0.885   6.518   0.044  0.00  0.00    -0.308 N 
ATOM     29  H   UNL     1      -1.771   6.123   0.050  0.00  0.00    +0.149 HD
BRANCH  28  30
ATOM     30  C   UNL     1      -0.732   7.974   0.049  0.00  0.00    +0.178 C 
BRANCH  30  31
ATOM     31  C   UNL     1      -2.092   8.623   0.066  0.00  0.00    +0.122 A 
ATOM     32  C   UNL     1      -2.792   8.955   1.165  0.00  0.00    +0.046 A 
ATOM     33  C   UNL     1      -4.003   9.533   0.721  0.00  0.00    +0.041 A 
ATOM     34  C   UNL     1      -3.972   9.518  -0.624  0.00  0.00    +0.195 A 
ATOM     35  O   UNL     1      -2.809   8.971  -1.015  0.00  0.00    -0.466 OA
ENDBRANCH  30  31
ENDBRANCH  28  30
ENDBRANCH  25  26
ENDBRANCH  24  25
ENDBRANCH   4  24
TORSDOF 7
