REMARK  Name = ZINC11286290
REMARK  9 active torsions:
REMARK  status: ('A' for Active; 'I' for Inactive)
REMARK    1  A    between atoms: C_1  and  C_2
REMARK    2  A    between atoms: C_6  and  C_36
REMARK    3  A    between atoms: C_7  and  N_8
REMARK    4  A    between atoms: C_9  and  C_11
REMARK    5  A    between atoms: C_11  and  N_12
REMARK    6  A    between atoms: N_12  and  C_13
REMARK    7  A    between atoms: C_14  and  C_16
REMARK    8  A    between atoms: C_16  and  N_73
REMARK    9  A    between atoms: C_29  and  C_31
REMARK                            x       y       z     vdW  Elec       q    Type
REMARK                         _______ _______ _______ _____ _____    ______ ____
ROOT
ATOM      1  C   UNL     1       1.845   2.131  -0.422  0.00  0.00    -0.066 C 
ATOM      2  C   UNL     1       1.609   2.563   1.023  0.00  0.00    -0.019 C 
ATOM      3  C   UNL     1       1.844   4.079   1.157  0.00  0.00    +0.010 C 
ATOM      4  C   UNL     1       0.428   4.694   1.027  0.00  0.00    +0.001 C 
ATOM      5  C   UNL     1      -0.460   3.673   1.781  0.00  0.00    +0.001 C 
ATOM      6  C   UNL     1       0.148   2.301   1.417  0.00  0.00    +0.010 C 
ATOM      7  C   UNL     1       2.531   1.824   1.955  0.00  0.00    -0.038 A 
ATOM      8  C   UNL     1       2.705   2.310   3.242  0.00  0.00    +0.053 A 
ATOM      9  C   UNL     1       3.537   1.655   4.135  0.00  0.00    +0.162 A 
ATOM     10  C   UNL     1       4.198   0.498   3.737  0.00  0.00    +0.162 A 
ATOM     11  C   UNL     1       4.024   0.019   2.449  0.00  0.00    +0.051 A 
ATOM     12  C   UNL     1       3.193   0.681   1.557  0.00  0.00    -0.054 A 
ATOM     13  C   UNL     1       3.041   0.121   0.167  0.00  0.00    -0.040 C 
ATOM     14  C   UNL     1       2.932  -1.403   0.246  0.00  0.00    -0.008 C 
ATOM     15  O   UNL     1       5.008  -0.166   4.597  0.00  0.00    -0.485 OA
ATOM     16  C   UNL     1       5.418   0.473   5.796  0.00  0.00    +0.270 C 
ATOM     17  C   UNL     1       4.314   1.341   6.378  0.00  0.00    +0.270 C 
ATOM     18  O   UNL     1       3.705   2.152   5.385  0.00  0.00    -0.485 OA
ATOM     19  N   UNL     1       1.821   0.654  -0.462  0.00  0.00    +0.390 N 
ATOM     20  H   UNL     1       1.002   0.318   0.058  0.00  0.00    -0.080 HD
ENDROOT
BRANCH  19  21
ATOM     21  C   UNL     1       1.728   0.186  -1.863  0.00  0.00    +0.020 C 
BRANCH  21  24
ATOM     22  N   UNL     1      -0.004   0.088  -3.627  0.00  0.00    -0.297 N 
ATOM     23  C   UNL     1       1.006  -0.481  -4.521  0.00  0.00    +0.132 C 
ATOM     24  C   UNL     1       0.323   0.411  -2.360  0.00  0.00    +0.199 C 
ATOM     25  O   UNL     1      -0.513   0.883  -1.619  0.00  0.00    -0.278 OA
BRANCH  22  26
ATOM     26  C   UNL     1      -1.370   0.308  -4.109  0.00  0.00    +0.203 C 
BRANCH  26  28
ATOM     27  N   UNL     1      -2.651   2.114  -5.211  0.00  0.00    -0.284 N 
ATOM     28  C   UNL     1      -1.478   1.690  -4.701  0.00  0.00    +0.235 C 
ATOM     29  O   UNL     1      -0.509   2.420  -4.717  0.00  0.00    -0.274 OA
ATOM     30  H   UNL     1      -3.445   1.563  -5.126  0.00  0.00    +0.155 HD
BRANCH  27  37
ATOM     31  C   UNL     1      -1.837   4.437  -3.783  0.00  0.00    +0.045 C 
ATOM     32  C   UNL     1      -2.336   4.509  -5.203  0.00  0.00    -0.029 A 
ATOM     33  C   UNL     1      -2.405   5.727  -5.851  0.00  0.00    +0.005 A 
ATOM     34  C   UNL     1      -2.869   5.794  -7.152  0.00  0.00    +0.001 A 
ATOM     35  C   UNL     1      -3.260   4.642  -7.811  0.00  0.00    +0.005 A 
ATOM     36  C   UNL     1      -3.188   3.421  -7.170  0.00  0.00    -0.029 A 
ATOM     37  C   UNL     1      -2.724   3.350  -5.863  0.00  0.00    +0.039 A 
ATOM     38  C   UNL     1      -3.615   2.166  -7.888  0.00  0.00    +0.045 C 
ENDBRANCH  27  37
ENDBRANCH  26  28
ENDBRANCH  22  26
ENDBRANCH  21  24
ENDBRANCH  19  21
TORSDOF 5
