REMARK  Name = ZINC08777796
REMARK  3 active torsions:
REMARK  status: ('A' for Active; 'I' for Inactive)
REMARK    1  A    between atoms: C_10  and  C_15
REMARK    2  A    between atoms: C_10  and  O_19
REMARK    3  A    between atoms: C_22  and  C_25
REMARK                            x       y       z     vdW  Elec       q    Type
REMARK                         _______ _______ _______ _____ _____    ______ ____
ROOT
ATOM      1  C   UNL     1       1.159   1.878  -0.052  0.00  0.00    +0.001 A 
ATOM      2  C   UNL     1       1.111   3.262  -0.055  0.00  0.00    +0.004 A 
ATOM      3  C   UNL     1      -0.098   3.930  -0.041  0.00  0.00    +0.046 A 
ATOM      4  C   UNL     1      -1.289   3.220  -0.024  0.00  0.00    +0.129 A 
ATOM      5  C   UNL     1      -1.230   1.812  -0.017  0.00  0.00    +0.040 A 
ATOM      6  C   UNL     1      -0.015   1.147  -0.030  0.00  0.00    +0.013 A 
ATOM      7  C   UNL     1      -2.528   1.115   0.025  0.00  0.00    +0.081 C 
ATOM      8  N   UNL     1      -2.865  -0.057   0.391  0.00  0.00    -0.179 NA
ATOM      9  N   UNL     1      -4.246  -0.261   0.443  0.00  0.00    -0.160 N 
ATOM     10  C   UNL     1      -4.925   0.996   0.070  0.00  0.00    +0.262 C 
ATOM     11  C   UNL     1      -3.778   1.884  -0.411  0.00  0.00    +0.138 C 
ATOM     12  C   UNL     1      -3.695   3.226   0.318  0.00  0.00    +0.243 C 
ATOM     13  O   UNL     1      -2.474   3.875  -0.036  0.00  0.00    -0.490 OA
ATOM     14  C   UNL     1      -4.875  -1.445   0.786  0.00  0.00    +0.184 A 
ATOM     15  N   UNL     1      -4.342  -2.606   1.124  0.00  0.00    -0.222 NA
ATOM     16  C   UNL     1      -5.102  -3.648   1.430  0.00  0.00    +0.098 A 
ATOM     17  C   UNL     1      -6.463  -3.521   1.384  0.00  0.00    +0.078 A 
ATOM     18  S   UNL     1      -6.621  -1.812   0.883  0.00  0.00    -0.058 S 
ENDROOT
BRANCH  16  19
ATOM     19  C   UNL     1      -4.484  -4.939   1.813  0.00  0.00    +0.090 A 
ATOM     20  C   UNL     1      -3.094  -5.055   1.850  0.00  0.00    +0.030 A 
ATOM     21  C   UNL     1      -2.531  -6.266   2.214  0.00  0.00    +0.004 A 
ATOM     22  C   UNL     1      -3.376  -7.325   2.518  0.00  0.00    +0.020 A 
ATOM     23  C   UNL     1      -4.744  -7.141   2.455  0.00  0.00    +0.111 A 
ATOM     24  N   UNL     1      -5.256  -5.976   2.111  0.00  0.00    -0.253 NA
ENDBRANCH  16  19
BRANCH  10  25
ATOM     25  C   UNL     1      -5.615   1.618   1.285  0.00  0.00    +0.438 C 
ATOM     26  F   UNL     1      -4.689   1.766   2.323  0.00  0.00    -0.166 F 
ATOM     27  F   UNL     1      -6.131   2.871   0.938  0.00  0.00    -0.166 F 
ATOM     28  F   UNL     1      -6.658   0.785   1.706  0.00  0.00    -0.166 F 
ENDBRANCH  10  25
BRANCH  10  29
ATOM     29  O   UNL     1      -5.866   0.769  -0.981  0.00  0.00    -0.363 OA
ATOM     30  H   UNL     1      -6.575   0.154  -0.748  0.00  0.00    +0.212 HD
ENDBRANCH  10  29
TORSDOF 3
