REMARK  Name = ZINC26540301
REMARK  9 active torsions:
REMARK  status: ('A' for Active; 'I' for Inactive)
REMARK    1  A    between atoms: C_1  and  C_2
REMARK    2  A    between atoms: C_4  and  C_26
REMARK    3  A    between atoms: C_5  and  C_25
REMARK    4  A    between atoms: C_6  and  S_9
REMARK    5  A    between atoms: C_7  and  C_8
REMARK    6  A    between atoms: S_9  and  N_12
REMARK    7  A    between atoms: N_12  and  C_13
REMARK    8  A    between atoms: C_16  and  C_19
REMARK    9  A    between atoms: C_22  and  C_24
REMARK                            x       y       z     vdW  Elec       q    Type
REMARK                         _______ _______ _______ _____ _____    ______ ____
ROOT
ATOM      1  N   UNL     1       1.982   3.736   0.017  0.00  0.00    -0.216 N 
ATOM      2  H   UNL     1       2.700   3.360   0.761  0.00  0.00    +0.174 HD
ENDROOT
BRANCH   1   3
ATOM      3  C   UNL     1       0.702   3.184  -0.060  0.00  0.00    +0.048 A 
ATOM      4  C   UNL     1       0.539   1.804  -0.050  0.00  0.00    +0.025 A 
ATOM      5  C   UNL     1      -0.724   1.256  -0.126  0.00  0.00    +0.012 A 
ATOM      6  C   UNL     1      -1.838   2.089  -0.219  0.00  0.00    +0.004 A 
ATOM      7  C   UNL     1      -1.673   3.473  -0.225  0.00  0.00    +0.012 A 
ATOM      8  C   UNL     1      -0.408   4.016  -0.148  0.00  0.00    +0.025 A 
BRANCH   6   9
ATOM      9  C   UNL     1      -3.199   1.502  -0.307  0.00  0.00    +0.109 A 
ATOM     10  C   UNL     1      -4.364   2.187  -0.396  0.00  0.00    +0.225 A 
ATOM     11  O   UNL     1      -5.353   1.274  -0.457  0.00  0.00    -0.448 OA
ATOM     12  C   UNL     1      -4.796   0.057  -0.397  0.00  0.00    +0.193 A 
ATOM     13  N   UNL     1      -3.504   0.185  -0.306  0.00  0.00    -0.214 NA
ATOM     14  C   UNL     1      -5.545  -1.250  -0.428  0.00  0.00    +0.109 C 
ENDBRANCH   6   9
ENDBRANCH   1   3
BRANCH   1  15
ATOM     15  S   UNL     1       2.421   4.958  -1.012  0.00  0.00    +0.073 S 
ATOM     16  O   UNL     1       3.769   5.285  -0.703  0.00  0.00    -0.150 OA
ATOM     17  O   UNL     1       2.013   4.559  -2.313  0.00  0.00    -0.150 OA
BRANCH  15  23
ATOM     18  C   UNL     1       1.126   8.825   2.257  0.00  0.00    +0.044 C 
ATOM     19  C   UNL     1       0.899   8.120   0.945  0.00  0.00    -0.045 A 
ATOM     20  C   UNL     1      -0.071   8.578   0.072  0.00  0.00    +0.007 A 
ATOM     21  C   UNL     1      -0.279   7.931  -1.131  0.00  0.00    -0.045 A 
ATOM     22  C   UNL     1       0.482   6.826  -1.463  0.00  0.00    -0.021 A 
ATOM     23  C   UNL     1       1.451   6.367  -0.590  0.00  0.00    +0.115 A 
ATOM     24  C   UNL     1       1.656   7.011   0.616  0.00  0.00    -0.021 A 
ATOM     25  C   UNL     1       2.708   6.507   1.570  0.00  0.00    +0.046 C 
ATOM     26  C   UNL     1       0.255   6.120  -2.775  0.00  0.00    +0.046 C 
ATOM     27  C   UNL     1      -1.336   8.431  -2.083  0.00  0.00    +0.044 C 
ENDBRANCH  15  23
ENDBRANCH   1  15
TORSDOF 4
