REMARK  Name = ZINC00497703
REMARK  3 active torsions:
REMARK  status: ('A' for Active; 'I' for Inactive)
REMARK    1  A    between atoms: C_1  and  C_2
REMARK    2  A    between atoms: C_2  and  N_3
REMARK    3  A    between atoms: N_13  and  N_14
REMARK                            x       y       z     vdW  Elec       q    Type
REMARK                         _______ _______ _______ _____ _____    ______ ____
ROOT
ATOM      1  N   UNL     1      -1.372  -0.511   0.012  0.00  0.00    -0.280 N 
ATOM      2  C   UNL     1      -1.983  -0.741   1.190  0.00  0.00    +0.264 A 
ATOM      3  O   UNL     1      -1.401  -0.530   2.241  0.00  0.00    -0.267 OA
ATOM      4  C   UNL     1      -3.325  -1.235   1.190  0.00  0.00    +0.076 A 
ATOM      5  C   UNL     1      -4.174  -1.552   2.350  0.00  0.00    -0.023 A 
ATOM      6  C   UNL     1      -5.410  -2.007   2.091  0.00  0.00    -0.004 A 
ATOM      7  S   UNL     1      -5.527  -2.040   0.317  0.00  0.00    -0.073 S 
ATOM      8  C   UNL     1      -3.903  -1.442  -0.071  0.00  0.00    +0.117 A 
ATOM      9  N   UNL     1      -3.245  -1.197  -1.199  0.00  0.00    -0.207 NA
ATOM     10  C   UNL     1      -2.011  -0.736  -1.171  0.00  0.00    +0.213 A 
ATOM     11  N   UNL     1      -1.357  -0.485  -2.351  0.00  0.00    -0.253 N 
ATOM     12  C   UNL     1      -6.183  -2.302   3.348  0.00  0.00    +0.043 C 
ATOM     13  C   UNL     1      -5.108  -2.377   4.455  0.00  0.00    +0.010 C 
ATOM     14  C   UNL     1      -3.994  -1.488   3.869  0.00  0.00    +0.037 C 
ATOM     15  H   UNL     1      -0.447  -0.150  -2.339  0.00  0.00    +0.169 HD
ENDROOT
BRANCH  11  16
ATOM     16  N   UNL     1      -1.987  -0.707  -3.543  0.00  0.00    -0.254 NA
ATOM     17  H   UNL     1      -2.854  -0.193  -3.594  0.00  0.00    +0.140 HD
ATOM     18  H   UNL     1      -1.385  -0.478  -4.319  0.00  0.00    +0.140 HD
ENDBRANCH  11  16
BRANCH   1  20
ATOM     19  C   UNL     1      -0.019   1.526   0.010  0.00  0.00    +0.027 C 
ATOM     20  C   UNL     1       0.002  -0.004   0.002  0.00  0.00    +0.125 C 
ENDBRANCH   1  20
TORSDOF 2
