REMARK  Name = ZINC07475789
REMARK  6 active torsions:
REMARK  status: ('A' for Active; 'I' for Inactive)
REMARK    1  A    between atoms: C_6  and  C_7
REMARK    2  A    between atoms: N_9  and  N_10
REMARK    3  A    between atoms: C_11  and  C_13
REMARK    4  A    between atoms: C_13  and  C_14
REMARK    5  A    between atoms: C_14  and  N_15
REMARK    6  A    between atoms: C_16  and  C_18
REMARK                            x       y       z     vdW  Elec       q    Type
REMARK                         _______ _______ _______ _____ _____    ______ ____
ROOT
ATOM      1  C   UNL     1      -3.719  -4.951   0.012  0.00  0.00    +0.116 C 
ENDROOT
BRANCH   1   3
ATOM      2  N   UNL     1      -2.447  -2.830   0.011  0.00  0.00    -0.234 N 
ATOM      3  C   UNL     1      -2.426  -4.177   0.004  0.00  0.00    +0.231 C 
ATOM      4  O   UNL     1      -1.366  -4.767  -0.010  0.00  0.00    -0.274 OA
ATOM      5  H   UNL     1      -3.294  -2.358   0.022  0.00  0.00    +0.173 HD
BRANCH   2   8
ATOM      6  C   UNL     1      -1.266  -0.763   0.011  0.00  0.00    +0.260 C 
ATOM      7  O   UNL     1      -2.328  -0.171   0.024  0.00  0.00    -0.269 OA
ATOM      8  N   UNL     1      -1.244  -2.110   0.003  0.00  0.00    -0.230 N 
ATOM      9  H   UNL     1      -0.397  -2.582  -0.008  0.00  0.00    +0.173 HD
BRANCH   6  15
ATOM     10  C   UNL     1      -0.017   1.392   0.010  0.00  0.00    +0.016 A 
ATOM     11  C   UNL     1       1.169   2.095   0.002  0.00  0.00    +0.039 A 
ATOM     12  C   UNL     1       2.379   1.418  -0.013  0.00  0.00    +0.123 A 
ATOM     13  C   UNL     1       2.403   0.032  -0.021  0.00  0.00    +0.039 A 
ATOM     14  C   UNL     1       1.224  -0.681  -0.013  0.00  0.00    +0.016 A 
ATOM     15  C   UNL     1       0.002  -0.004   0.002  0.00  0.00    +0.038 A 
ATOM     16  F   UNL     1       3.538   2.112  -0.022  0.00  0.00    -0.205 F 
ENDBRANCH   6  15
ENDBRANCH   2   8
ENDBRANCH   1   3
BRANCH   1  17
ATOM     17  C   UNL     1      -3.416  -6.451   0.001  0.00  0.00    +0.113 C 
BRANCH  17  18
ATOM     18  N   UNL     1      -4.673  -7.203   0.010  0.00  0.00    -0.314 N 
ATOM     19  C   UNL     1      -4.652  -8.551   0.002  0.00  0.00    +0.219 C 
ATOM     20  O   UNL     1      -3.592  -9.140  -0.011  0.00  0.00    -0.275 OA
ATOM     21  H   UNL     1      -5.520  -6.731   0.021  0.00  0.00    +0.149 HD
BRANCH  19  22
ATOM     22  C   UNL     1      -5.945  -9.324   0.011  0.00  0.00    +0.048 C 
ATOM     23  C   UNL     1      -6.740  -8.974   1.270  0.00  0.00    +0.019 C 
ATOM     24  C   UNL     1      -8.053  -9.760   1.279  0.00  0.00    -0.009 C 
ATOM     25  C   UNL     1      -7.750 -11.259   1.268  0.00  0.00    +0.007 C 
ATOM     26  C   UNL     1      -6.955 -11.610   0.009  0.00  0.00    -0.009 C 
ATOM     27  C   UNL     1      -5.642 -10.824   0.000  0.00  0.00    +0.019 C 
ATOM     28  C   UNL     1      -7.775 -11.246  -1.230  0.00  0.00    +0.007 C 
ATOM     29  C   UNL     1      -8.078  -9.746  -1.219  0.00  0.00    -0.009 C 
ATOM     30  C   UNL     1      -8.873  -9.396   0.040  0.00  0.00    +0.007 C 
ATOM     31  C   UNL     1      -6.765  -8.961  -1.228  0.00  0.00    +0.019 C 
ENDBRANCH  19  22
ENDBRANCH  17  18
ENDBRANCH   1  17
TORSDOF 6
