REMARK  Name = ZINC63269821
REMARK  11 active torsions:
REMARK  status: ('A' for Active; 'I' for Inactive)
REMARK    1  A    between atoms: C_1  and  C_2
REMARK    2  A    between atoms: C_2  and  C_3
REMARK    3  A    between atoms: C_2  and  N_4
REMARK    4  A    between atoms: N_7  and  N_8
REMARK    5  A    between atoms: C_9  and  C_11
REMARK    6  A    between atoms: C_11  and  C_12
REMARK    7  A    between atoms: C_12  and  N_13
REMARK    8  A    between atoms: N_13  and  C_14
REMARK    9  A    between atoms: C_17  and  S_23
REMARK   10  A    between atoms: C_19  and  N_20
REMARK   11  A    between atoms: S_23  and  N_26
REMARK                            x       y       z     vdW  Elec       q    Type
REMARK                         _______ _______ _______ _____ _____    ______ ____
ROOT
ATOM      1  N   UNL     1      -8.869  -0.719   0.637  0.00  0.00    -0.342 N 
ATOM      2  H   UNL     1      -8.695   0.169   0.986  0.00  0.00    +0.146 HD
ENDROOT
BRANCH   1   3
ATOM      3  C   UNL     1     -10.105  -1.329   0.864  0.00  0.00    +0.058 A 
ATOM      4  C   UNL     1     -10.401  -2.546   0.264  0.00  0.00    +0.027 A 
ATOM      5  C   UNL     1     -11.624  -3.147   0.491  0.00  0.00    +0.030 A 
ATOM      6  C   UNL     1     -12.553  -2.537   1.314  0.00  0.00    +0.107 A 
ATOM      7  C   UNL     1     -12.262  -1.324   1.912  0.00  0.00    +0.063 A 
ATOM      8  C   UNL     1     -11.038  -0.721   1.694  0.00  0.00    +0.149 A 
BRANCH   8   9
ATOM      9  N   UNL     1     -10.725   0.573   2.339  0.00  0.00    +0.058 N 
ATOM     10  O   UNL     1      -9.607   0.793   2.742  0.00  0.00    -0.126 OA
ATOM     11  O   UNL     1     -11.587   1.412   2.462  0.00  0.00    -0.126 OA
ENDBRANCH   8   9
BRANCH   6  12
ATOM     12  S   UNL     1     -14.112  -3.306   1.601  0.00  0.00    +0.056 S 
ATOM     13  O   UNL     1     -15.013  -2.272   1.971  0.00  0.00    -0.153 OA
ATOM     14  O   UNL     1     -14.351  -4.165   0.494  0.00  0.00    -0.153 OA
BRANCH  12  15
ATOM     15  N   UNL     1     -13.940  -4.281   2.928  0.00  0.00    -0.204 NA
ATOM     16  H   UNL     1     -13.085  -4.336   3.382  0.00  0.00    +0.144 HD
ATOM     17  H   UNL     1     -14.695  -4.797   3.252  0.00  0.00    +0.144 HD
ENDBRANCH  12  15
ENDBRANCH   6  12
ENDBRANCH   1   3
BRANCH   1  18
ATOM     18  C   UNL     1      -7.835  -1.421  -0.128  0.00  0.00    +0.111 C 
BRANCH  18  19
ATOM     19  C   UNL     1      -6.589  -0.539  -0.230  0.00  0.00    +0.116 C 
BRANCH  19  21
ATOM     20  N   UNL     1      -4.333  -0.673  -1.236  0.00  0.00    -0.233 N 
ATOM     21  C   UNL     1      -5.526  -1.262  -1.017  0.00  0.00    +0.231 C 
ATOM     22  O   UNL     1      -5.743  -2.372  -1.453  0.00  0.00    -0.274 OA
ATOM     23  H   UNL     1      -4.159   0.215  -0.887  0.00  0.00    +0.173 HD
BRANCH  20  27
ATOM     24  N   UNL     1      -1.910   0.477  -1.701  0.00  0.00    -0.296 N 
ATOM     25  C   UNL     1      -2.152  -0.757  -2.186  0.00  0.00    +0.316 C 
ATOM     26  O   UNL     1      -1.294  -1.339  -2.821  0.00  0.00    -0.251 OA
ATOM     27  N   UNL     1      -3.344  -1.345  -1.967  0.00  0.00    -0.218 N 
ATOM     28  H   UNL     1      -2.594   0.942  -1.195  0.00  0.00    +0.151 HD
ATOM     29  H   UNL     1      -3.518  -2.233  -2.316  0.00  0.00    +0.174 HD
BRANCH  24  31
ATOM     30  C   UNL     1      -0.774   2.637  -1.872  0.00  0.00    +0.027 C 
ATOM     31  C   UNL     1      -0.614   1.117  -1.939  0.00  0.00    +0.068 C 
ATOM     32  C   UNL     1       0.383   0.662  -0.872  0.00  0.00    +0.027 C 
ENDBRANCH  24  31
ENDBRANCH  20  27
ENDBRANCH  19  21
ENDBRANCH  18  19
ENDBRANCH   1  18
TORSDOF 9
