REMARK  Name = ZINC13750240
REMARK  9 active torsions:
REMARK  status: ('A' for Active; 'I' for Inactive)
REMARK    1  A    between atoms: C_1  and  C_2
REMARK    2  A    between atoms: C_2  and  O_3
REMARK    3  A    between atoms: O_3  and  C_4
REMARK    4  A    between atoms: C_7  and  C_12
REMARK    5  A    between atoms: C_9  and  O_10
REMARK    6  A    between atoms: O_10  and  C_11
REMARK    7  A    between atoms: N_18  and  C_19
REMARK    8  A    between atoms: C_22  and  C_26
REMARK    9  A    between atoms: C_24  and  C_25
REMARK                            x       y       z     vdW  Elec       q    Type
REMARK                         _______ _______ _______ _____ _____    ______ ____
ROOT
ATOM      1  C   UNL     1      -1.893  -5.974  -1.204  0.00  0.00    +0.028 C 
ATOM      2  C   UNL     1      -0.838  -6.803  -1.001  0.00  0.00    +0.078 C 
ATOM      3  C   UNL     1      -0.811  -8.273  -0.884  0.00  0.00    +0.256 C 
ATOM      4  O   UNL     1      -1.828  -8.936  -0.967  0.00  0.00    -0.269 OA
ATOM      5  N   UNL     1       0.368  -8.838  -0.686  0.00  0.00    -0.260 N 
ATOM      6  C   UNL     1       1.508  -8.069  -0.595  0.00  0.00    +0.166 C 
ATOM      7  N   UNL     1       2.747  -8.465  -0.402  0.00  0.00    -0.225 NA
ATOM      8  S   UNL     1       0.895  -6.407  -0.812  0.00  0.00    -0.049 S 
ATOM      9  H   UNL     1       0.431  -9.802  -0.604  0.00  0.00    +0.157 HD
ENDROOT
BRANCH   7  10
ATOM     10  C   UNL     1       3.744  -7.540  -0.251  0.00  0.00    +0.069 A 
ATOM     11  C   UNL     1       3.586  -6.476   0.641  0.00  0.00    +0.028 A 
ATOM     12  C   UNL     1       4.596  -5.549   0.788  0.00  0.00    +0.005 A 
ATOM     13  C   UNL     1       5.764  -5.670   0.056  0.00  0.00    -0.050 A 
ATOM     14  C   UNL     1       5.927  -6.720  -0.829  0.00  0.00    +0.008 A 
ATOM     15  C   UNL     1       4.928  -7.659  -0.983  0.00  0.00    -0.025 A 
ATOM     16  C   UNL     1       5.110  -8.806  -1.943  0.00  0.00    +0.046 C 
ATOM     17  C   UNL     1       6.862  -4.652   0.223  0.00  0.00    +0.044 C 
ENDBRANCH   7  10
BRANCH   1  21
ATOM     18  C   UNL     1      -1.234  -1.848  -1.945  0.00  0.00    +0.162 A 
ATOM     19  C   UNL     1      -0.191  -2.753  -2.089  0.00  0.00    +0.050 A 
ATOM     20  C   UNL     1      -0.400  -4.094  -1.849  0.00  0.00    +0.012 A 
ATOM     21  C   UNL     1      -1.667  -4.545  -1.459  0.00  0.00    -0.020 A 
ATOM     22  C   UNL     1      -2.717  -3.631  -1.314  0.00  0.00    +0.057 A 
ATOM     23  C   UNL     1      -2.497  -2.288  -1.552  0.00  0.00    +0.162 A 
BRANCH  23  24
ATOM     24  O   UNL     1      -3.513  -1.396  -1.406  0.00  0.00    -0.491 OA
ATOM     25  C   UNL     1      -4.780  -1.917  -1.001  0.00  0.00    +0.277 C 
ENDBRANCH  23  24
BRANCH  18  26
ATOM     26  O   UNL     1      -1.021  -0.527  -2.183  0.00  0.00    -0.489 OA
BRANCH  26  28
ATOM     27  C   UNL     1       0.342   1.369  -2.804  0.00  0.00    +0.048 C 
ATOM     28  C   UNL     1       0.296  -0.144  -2.583  0.00  0.00    +0.226 C 
ENDBRANCH  26  28
ENDBRANCH  18  26
ENDBRANCH   1  21
TORSDOF 5
