REMARK  Name = ZINC39466930
REMARK  8 active torsions:
REMARK  status: ('A' for Active; 'I' for Inactive)
REMARK    1  A    between atoms: C_1  and  C_2
REMARK    2  A    between atoms: C_2  and  O_3
REMARK    3  A    between atoms: O_3  and  C_4
REMARK    4  A    between atoms: P_13  and  C_32
REMARK    5  A    between atoms: C_21  and  S_22
REMARK    6  A    between atoms: S_22  and  O_25
REMARK    7  A    between atoms: O_25  and  C_26
REMARK    8  A    between atoms: C_32  and  C_33
REMARK                            x       y       z     vdW  Elec       q    Type
REMARK                         _______ _______ _______ _____ _____    ______ ____
ROOT
ATOM      1  C   UNL     1      -1.572  -1.358  -0.433  0.00  0.00    +0.145 C 
ATOM      2  C   UNL     1      -0.409  -1.986  -0.619  0.00  0.00    +0.024 C 
ATOM      3  C   UNL     1      -0.371  -3.496  -0.632  0.00  0.00    +0.019 C 
ATOM      4  C   UNL     1      -0.794  -3.986  -2.018  0.00  0.00    -0.002 C 
ATOM      5  C   UNL     1      -0.897  -5.515  -2.039  0.00  0.00    -0.020 C 
ATOM      6  C   UNL     1      -1.325  -5.918  -3.456  0.00  0.00    +0.156 C 
ATOM      7  O   UNL     1      -1.387  -7.353  -3.550  0.00  0.00    -0.319 OA
ATOM      8  P   UNL     1      -2.227  -8.149  -2.406  0.00  0.00    +0.262 P 
ATOM      9  O   UNL     1      -1.767  -9.553  -2.315  0.00  0.00    -0.274 OA
ATOM     10  N   UNL     1      -1.904  -7.349  -0.999  0.00  0.00    -0.291 NA
ATOM     11  N   UNL     1      -1.866  -5.971  -1.040  0.00  0.00    +0.397 N 
ATOM     12  C   UNL     1      -1.456  -5.540   0.305  0.00  0.00    -0.046 C 
ATOM     13  C   UNL     1      -1.360  -4.022   0.411  0.00  0.00    +0.006 C 
ATOM     14  C   UNL     1      -2.715  -3.411   0.175  0.00  0.00    +0.009 C 
ATOM     15  C   UNL     1      -2.807  -2.146  -0.248  0.00  0.00    +0.165 C 
ATOM     16  H   UNL     1      -1.750  -7.832  -0.172  0.00  0.00    +0.111 HD
ATOM     17  H   UNL     1      -2.781  -5.608  -1.264  0.00  0.00    -0.055 HD
ENDROOT
BRANCH  15  18
ATOM     18  S   UNL     1      -4.381  -1.415  -0.555  0.00  0.00    +0.154 S 
ATOM     19  O   UNL     1      -4.159  -0.332  -1.448  0.00  0.00    -0.131 OA
ATOM     20  O   UNL     1      -5.271  -2.481  -0.855  0.00  0.00    -0.131 OA
BRANCH  18  21
ATOM     21  O   UNL     1      -4.857  -0.806   0.756  0.00  0.00    -0.342 OA
BRANCH  21  22
ATOM     22  C   UNL     1      -4.223   0.348   1.093  0.00  0.00    +0.157 A 
ATOM     23  C   UNL     1      -3.144   0.319   1.963  0.00  0.00    +0.048 A 
ATOM     24  C   UNL     1      -2.501   1.493   2.303  0.00  0.00    +0.004 A 
ATOM     25  C   UNL     1      -2.933   2.697   1.778  0.00  0.00    +0.000 A 
ATOM     26  C   UNL     1      -4.009   2.728   0.910  0.00  0.00    +0.004 A 
ATOM     27  C   UNL     1      -4.652   1.556   0.562  0.00  0.00    +0.048 A 
ENDBRANCH  21  22
ENDBRANCH  18  21
ENDBRANCH  15  18
BRANCH   1  28
ATOM     28  O   UNL     1      -1.619   0.000  -0.409  0.00  0.00    -0.491 OA
BRANCH  28  30
ATOM     29  C   UNL     1      -0.684   2.200  -0.767  0.00  0.00    +0.048 C 
ATOM     30  C   UNL     1      -0.407   0.696  -0.706  0.00  0.00    +0.226 C 
ENDBRANCH  28  30
ENDBRANCH   1  28
BRANCH   8  31
ATOM     31  C   UNL     1      -4.011  -8.092  -2.776  0.00  0.00    +0.147 C 
BRANCH  31  32
ATOM     32  C   UNL     1      -4.268  -8.738  -4.113  0.00  0.00    -0.037 A 
ATOM     33  C   UNL     1      -4.234  -7.976  -5.266  0.00  0.00    +0.004 A 
ATOM     34  C   UNL     1      -4.470  -8.568  -6.492  0.00  0.00    +0.000 A 
ATOM     35  C   UNL     1      -4.739  -9.922  -6.566  0.00  0.00    +0.000 A 
ATOM     36  C   UNL     1      -4.771 -10.684  -5.413  0.00  0.00    +0.000 A 
ATOM     37  C   UNL     1      -4.531 -10.092  -4.186  0.00  0.00    +0.004 A 
ENDBRANCH  31  32
ENDBRANCH   8  31
TORSDOF 7
