REMARK  Name = ZINC13530339
REMARK  11 active torsions:
REMARK  status: ('A' for Active; 'I' for Inactive)
REMARK    1  A    between atoms: C_4  and  C_7
REMARK    2  A    between atoms: C_7  and  C_8
REMARK    3  A    between atoms: C_7  and  C_26
REMARK    4  A    between atoms: C_8  and  C_9
REMARK    5  A    between atoms: C_9  and  C_10
REMARK    6  A    between atoms: C_14  and  C_16
REMARK    7  A    between atoms: C_16  and  C_17
REMARK    8  A    between atoms: C_17  and  N_60
REMARK    9  A    between atoms: C_18  and  C_19
REMARK   10  A    between atoms: C_18  and  N_60
REMARK   11  A    between atoms: C_19  and  C_20
REMARK                            x       y       z     vdW  Elec       q    Type
REMARK                         _______ _______ _______ _____ _____    ______ ____
ROOT
ATOM      1  C   UNL     1      -1.942   1.187  -1.409  0.00  0.00    +0.107 A 
ATOM      2  N   UNL     1      -1.066   0.244  -1.815  0.00  0.00    -0.348 N 
ATOM      3  H   UNL     1      -1.186  -0.747  -1.747  0.00  0.00    +0.166 HD
ATOM      4  C   UNL     1       0.018   0.897  -2.338  0.00  0.00    +0.107 A 
ATOM      5  C   UNL     1      -0.231   2.216  -2.227  0.00  0.00    +0.057 A 
ATOM      6  N   UNL     1      -1.434   2.364  -1.653  0.00  0.00    -0.238 NA
ENDROOT
BRANCH   1   7
ATOM      7  C   UNL     1      -3.284   0.924  -0.774  0.00  0.00    +0.075 C 
BRANCH   7   8
ATOM      8  C   UNL     1      -3.367   1.657   0.566  0.00  0.00    +0.020 C 
BRANCH   8   9
ATOM      9  C   UNL     1      -4.729   1.390   1.210  0.00  0.00    +0.049 C 
BRANCH   9  13
ATOM     10  C   UNL     1      -5.062  -2.759   2.169  0.00  0.00    +0.000 A 
ATOM     11  C   UNL     1      -3.965  -2.037   2.599  0.00  0.00    +0.000 A 
ATOM     12  C   UNL     1      -3.857  -0.694   2.288  0.00  0.00    +0.004 A 
ATOM     13  C   UNL     1      -4.847  -0.074   1.548  0.00  0.00    -0.040 A 
ATOM     14  C   UNL     1      -5.946  -0.795   1.123  0.00  0.00    +0.004 A 
ATOM     15  C   UNL     1      -6.051  -2.139   1.428  0.00  0.00    +0.000 A 
ENDBRANCH   9  13
BRANCH   9  16
ATOM     16  C   UNL     1      -4.859   2.208   2.469  0.00  0.00    -0.040 A 
ATOM     17  C   UNL     1      -3.872   2.151   3.435  0.00  0.00    +0.004 A 
ATOM     18  C   UNL     1      -3.989   2.905   4.588  0.00  0.00    +0.000 A 
ATOM     19  C   UNL     1      -5.097   3.709   4.778  0.00  0.00    +0.000 A 
ATOM     20  C   UNL     1      -6.086   3.763   3.814  0.00  0.00    +0.000 A 
ATOM     21  C   UNL     1      -5.967   3.013   2.659  0.00  0.00    +0.004 A 
ENDBRANCH   9  16
ENDBRANCH   8   9
ENDBRANCH   7   8
ENDBRANCH   1   7
BRANCH   5  22
ATOM     22  C   UNL     1       0.682   3.330  -2.671  0.00  0.00    +0.038 C 
BRANCH  22  23
ATOM     23  C   UNL     1      -0.072   4.257  -3.626  0.00  0.00    -0.076 C 
BRANCH  23  24
ATOM     24  N   UNL     1       0.828   5.344  -4.055  0.00  0.00    +0.380 N 
ATOM     25  H   UNL     1       1.643   4.941  -4.532  0.00  0.00    -0.086 HD
ATOM     26  H   UNL     1       1.139   5.871  -3.231  0.00  0.00    -0.086 HD
BRANCH  24  27
ATOM     27  C   UNL     1       0.126   6.255  -4.979  0.00  0.00    -0.078 C 
BRANCH  27  28
ATOM     28  C   UNL     1       1.082   7.370  -5.406  0.00  0.00    +0.016 C 
BRANCH  28  29
ATOM     29  C   UNL     1       0.373   8.306  -6.350  0.00  0.00    -0.046 A 
ATOM     30  C   UNL     1       0.401   8.090  -7.719  0.00  0.00    +0.023 A 
ATOM     31  C   UNL     1      -0.265   8.967  -8.554  0.00  0.00    +0.111 A 
ATOM     32  N   UNL     1      -0.913  10.005  -8.062  0.00  0.00    -0.263 NA
ATOM     33  C   UNL     1      -0.957  10.245  -6.766  0.00  0.00    +0.111 A 
ATOM     34  C   UNL     1      -0.319   9.408  -5.871  0.00  0.00    +0.023 A 
ENDBRANCH  28  29
ENDBRANCH  27  28
ENDBRANCH  24  27
ENDBRANCH  23  24
ENDBRANCH  22  23
ENDBRANCH   5  22
TORSDOF 11
