REMARK  Name = ZINC04005780
REMARK  1 active torsions:
REMARK  status: ('A' for Active; 'I' for Inactive)
REMARK    1  A    between atoms: C_12  and  N_18
REMARK                            x       y       z     vdW  Elec       q    Type
REMARK                         _______ _______ _______ _____ _____    ______ ____
ROOT
ATOM      1  C   UNL     1      -0.013   1.076   0.008  0.00  0.00    +0.001 A 
ATOM      2  C   UNL     1       1.178   1.779   0.000  0.00  0.00    +0.001 A 
ATOM      3  C   UNL     1       1.175   3.163   0.007  0.00  0.00    +0.012 A 
ATOM      4  C   UNL     1      -0.034   3.853   0.023  0.00  0.00    +0.033 A 
ATOM      5  C   UNL     1      -1.244   3.139   0.031  0.00  0.00    +0.033 A 
ATOM      6  C   UNL     1      -1.223   1.747   0.017  0.00  0.00    +0.012 A 
ATOM      7  C   UNL     1      -2.533   3.864   0.047  0.00  0.00    +0.195 C 
ATOM      8  O   UNL     1      -3.579   3.245   0.054  0.00  0.00    -0.287 OA
ATOM      9  C   UNL     1      -2.547   5.338   0.055  0.00  0.00    +0.036 A 
ATOM     10  C   UNL     1      -3.760   6.026   0.070  0.00  0.00    +0.034 A 
ATOM     11  C   UNL     1      -3.771   7.408   0.078  0.00  0.00    +0.064 A 
ATOM     12  C   UNL     1      -2.576   8.121   0.070  0.00  0.00    +0.062 A 
ATOM     13  C   UNL     1      -1.355   7.446   0.054  0.00  0.00    +0.074 A 
ATOM     14  C   UNL     1      -1.335   6.055   0.046  0.00  0.00    +0.053 A 
ATOM     15  C   UNL     1      -0.047   5.331   0.030  0.00  0.00    +0.196 C 
ATOM     16  O   UNL     1       0.999   5.950   0.022  0.00  0.00    -0.287 OA
ATOM     17 CL   UNL     1       0.133   8.339   0.045  0.00  0.00    -0.081 Cl
ATOM     18 CL   UNL     1      -5.284   8.259   0.098  0.00  0.00    -0.082 Cl
ENDROOT
BRANCH  12  19
ATOM     19  N   UNL     1      -2.599   9.512   0.078  0.00  0.00    -0.356 N 
ATOM     20  H   UNL     1      -1.767  10.011   0.073  0.00  0.00    +0.142 HD
ATOM     21  H   UNL     1      -3.446   9.983   0.089  0.00  0.00    +0.142 HD
ENDBRANCH  12  19
TORSDOF 1
