REMARK  Name = ZINC20193132
REMARK  13 active torsions:
REMARK  status: ('A' for Active; 'I' for Inactive)
REMARK    1  A    between atoms: C_1  and  C_2
REMARK    2  A    between atoms: C_2  and  C_3
REMARK    3  A    between atoms: C_2  and  C_4
REMARK    4  A    between atoms: C_2  and  C_5
REMARK    5  A    between atoms: C_8  and  C_11
REMARK    6  A    between atoms: C_13  and  C_25
REMARK    7  A    between atoms: N_17  and  C_18
REMARK    8  A    between atoms: C_18  and  C_19
REMARK    9  A    between atoms: C_19  and  C_20
REMARK   10  A    between atoms: C_20  and  N_21
REMARK   11  A    between atoms: N_21  and  C_22
REMARK   12  A    between atoms: N_21  and  C_23
REMARK   13  A    between atoms: C_25  and  C_27
REMARK                            x       y       z     vdW  Elec       q    Type
REMARK                         _______ _______ _______ _____ _____    ______ ____
ROOT
ATOM      1  C   UNL     1       0.130  -3.025  -0.055  0.00  0.00    +0.145 C 
ATOM      2  C   UNL     1      -1.144  -2.214  -0.050  0.00  0.00    +0.076 C 
ATOM      3  C   UNL     1      -2.168  -3.095  -0.122  0.00  0.00    +0.249 C 
ATOM      4  C   UNL     1      -1.625  -4.468  -0.182  0.00  0.00    +0.288 C 
ATOM      5  O   UNL     1      -2.293  -5.480  -0.255  0.00  0.00    -0.266 OA
ATOM      6  N   UNL     1      -0.280  -4.431  -0.140  0.00  0.00    -0.284 N 
ATOM      7  O   UNL     1      -3.482  -2.771  -0.137  0.00  0.00    -0.282 OA
ENDROOT
BRANCH   1  11
ATOM      8  C   UNL     1       2.523  -1.985  -3.437  0.00  0.00    -0.042 A 
ATOM      9  C   UNL     1       2.886  -1.555  -2.175  0.00  0.00    +0.004 A 
ATOM     10  C   UNL     1       2.112  -1.891  -1.080  0.00  0.00    +0.006 A 
ATOM     11  C   UNL     1       0.974  -2.658  -1.248  0.00  0.00    -0.022 A 
ATOM     12  C   UNL     1       0.614  -3.093  -2.510  0.00  0.00    +0.006 A 
ATOM     13  C   UNL     1       1.385  -2.752  -3.605  0.00  0.00    +0.004 A 
BRANCH   8  15
ATOM     14  C   UNL     1       4.781  -2.169  -4.445  0.00  0.00    +0.015 C 
ATOM     15  C   UNL     1       3.366  -1.617  -4.631  0.00  0.00    -0.013 C 
ATOM     16  C   UNL     1       2.748  -2.215  -5.896  0.00  0.00    +0.015 C 
ATOM     17  C   UNL     1       3.426  -0.094  -4.763  0.00  0.00    +0.015 C 
ENDBRANCH   8  15
ENDBRANCH   1  11
BRANCH   2  18
ATOM     18  C   UNL     1      -1.251  -0.753   0.023  0.00  0.00    +0.195 C 
ATOM     19  O   UNL     1      -1.700  -0.128  -0.919  0.00  0.00    -0.287 OA
BRANCH  18  20
ATOM     20  C   UNL     1      -0.814  -0.042   1.240  0.00  0.00    +0.026 A 
ATOM     21  C   UNL     1      -0.369  -0.763   2.352  0.00  0.00    +0.015 A 
ATOM     22  C   UNL     1       0.038  -0.097   3.487  0.00  0.00    +0.050 A 
ATOM     23  C   UNL     1       0.008   1.291   3.532  0.00  0.00    +0.166 A 
ATOM     24  C   UNL     1      -0.434   2.017   2.425  0.00  0.00    +0.167 A 
ATOM     25  C   UNL     1      -0.843   1.355   1.284  0.00  0.00    +0.061 A 
ATOM     26  O   UNL     1      -0.366   3.348   2.722  0.00  0.00    -0.453 OA
ATOM     27  C   UNL     1       0.505   3.442   3.865  0.00  0.00    +0.466 C 
ATOM     28  O   UNL     1       0.351   2.168   4.518  0.00  0.00    -0.453 OA
ENDBRANCH  18  20
ENDBRANCH   2  18
BRANCH   6  29
ATOM     29  C   UNL     1       0.615  -5.590  -0.174  0.00  0.00    +0.107 C 
BRANCH  29  30
ATOM     30  C   UNL     1       0.884  -6.069   1.254  0.00  0.00    +0.000 C 
BRANCH  30  31
ATOM     31  C   UNL     1       1.819  -7.280   1.219  0.00  0.00    -0.078 C 
BRANCH  31  32
ATOM     32  N   UNL     1       2.077  -7.739   2.590  0.00  0.00    +0.376 N 
ATOM     33  C   UNL     1       0.851  -8.262   3.209  0.00  0.00    -0.097 C 
ATOM     34  C   UNL     1       3.149  -8.743   2.616  0.00  0.00    -0.097 C 
ATOM     35  H   UNL     1       2.410  -6.873   3.180  0.00  0.00    -0.083 HD
ENDBRANCH  31  32
ENDBRANCH  30  31
ENDBRANCH  29  30
ENDBRANCH   6  29
TORSDOF 8
