REMARK  Name = ZINC39711367
REMARK  13 active torsions:
REMARK  status: ('A' for Active; 'I' for Inactive)
REMARK    1  A    between atoms: C_1  and  O_2
REMARK    2  A    between atoms: O_2  and  C_3
REMARK    3  A    between atoms: C_3  and  C_4
REMARK    4  A    between atoms: C_4  and  N_5
REMARK    5  A    between atoms: C_6  and  C_10
REMARK    6  A    between atoms: C_10  and  C_12
REMARK    7  A    between atoms: C_10  and  N_26
REMARK    8  A    between atoms: C_17  and  O_24
REMARK    9  A    between atoms: O_24  and  C_25
REMARK   10  A    between atoms: N_26  and  C_27
REMARK   11  A    between atoms: N_26  and  C_34
REMARK   12  A    between atoms: C_27  and  C_28
REMARK   13  A    between atoms: C_34  and  C_35
REMARK                            x       y       z     vdW  Elec       q    Type
REMARK                         _______ _______ _______ _____ _____    ______ ____
ROOT
ATOM      1  C   UNL     1      -2.865  -2.659   2.901  0.00  0.00    +0.019 C 
ENDROOT
BRANCH   1   2
ATOM      2  C   UNL     1      -3.663  -1.472   3.445  0.00  0.00    +0.092 C 
ATOM      3  C   UNL     1      -3.416  -0.287   2.532  0.00  0.00    -0.006 C 
ATOM      4  C   UNL     1      -2.895   0.839   3.097  0.00  0.00    -0.004 A 
ATOM      5  C   UNL     1      -2.625   2.027   2.287  0.00  0.00    +0.055 A 
ATOM      6  C   UNL     1      -2.104   3.130   2.893  0.00  0.00    +0.121 A 
ATOM      7  C   UNL     1      -1.827   3.142   4.266  0.00  0.00    +0.047 A 
ATOM      8  C   UNL     1      -2.056   2.071   5.067  0.00  0.00    +0.027 A 
ATOM      9  C   UNL     1      -2.592   0.882   4.538  0.00  0.00    +0.041 A 
ATOM     10  N   UNL     1      -2.812  -0.162   5.337  0.00  0.00    -0.285 N 
ATOM     11  C   UNL     1      -3.312  -1.308   4.907  0.00  0.00    +0.223 C 
ATOM     12  O   UNL     1      -3.490  -2.226   5.685  0.00  0.00    -0.275 OA
ATOM     13  H   UNL     1      -2.594  -0.077   6.279  0.00  0.00    +0.155 HD
BRANCH   6  14
ATOM     14  O   UNL     1      -1.849   4.240   2.152  0.00  0.00    -0.495 OA
ATOM     15  C   UNL     1      -1.303   5.368   2.839  0.00  0.00    +0.277 C 
ENDBRANCH   6  14
ENDBRANCH   1   2
BRANCH   1  17
ATOM     16  N   UNL     1      -2.139  -2.459   0.465  0.00  0.00    -0.229 N 
ATOM     17  C   UNL     1      -3.053  -2.749   1.409  0.00  0.00    +0.139 A 
ATOM     18  N   UNL     1      -4.139  -3.125   0.778  0.00  0.00    -0.115 NA
ATOM     19  N   UNL     1      -3.904  -3.069  -0.487  0.00  0.00    -0.023 NA
ATOM     20  N   UNL     1      -2.698  -2.662  -0.680  0.00  0.00    -0.044 NA
BRANCH  16  21
ATOM     21  C   UNL     1      -0.768  -1.995   0.694  0.00  0.00    +0.175 C 
BRANCH  21  22
ATOM     22  C   UNL     1      -0.717  -0.472   0.560  0.00  0.00    +0.183 C 
BRANCH  22  24
ATOM     23  C   UNL     1       0.768   1.402   0.728  0.00  0.00    +0.194 C 
ATOM     24  O   UNL     1       0.611  -0.015   0.827  0.00  0.00    -0.381 OA
ENDBRANCH  22  24
ENDBRANCH  21  22
ENDBRANCH  16  21
ENDBRANCH   1  17
BRANCH   1  25
ATOM     25  N   UNL     1      -3.341  -3.898   3.531  0.00  0.00    +0.393 N 
ATOM     26  H   UNL     1      -3.312  -3.798   4.534  0.00  0.00    -0.080 HD
BRANCH  25  27
ATOM     27  C   UNL     1      -4.721  -4.166   3.104  0.00  0.00    -0.041 C 
BRANCH  27  28
ATOM     28  C   UNL     1      -5.260  -5.351   3.863  0.00  0.00    -0.064 A 
ATOM     29  C   UNL     1      -5.096  -6.627   3.358  0.00  0.00    +0.002 A 
ATOM     30  C   UNL     1      -5.591  -7.715   4.053  0.00  0.00    +0.000 A 
ATOM     31  C   UNL     1      -6.249  -7.526   5.254  0.00  0.00    +0.000 A 
ATOM     32  C   UNL     1      -6.412  -6.250   5.760  0.00  0.00    +0.000 A 
ATOM     33  C   UNL     1      -5.913  -5.162   5.066  0.00  0.00    +0.002 A 
ENDBRANCH  27  28
ENDBRANCH  25  27
BRANCH  25  34
ATOM     34  C   UNL     1      -2.478  -5.016   3.125  0.00  0.00    -0.034 C 
BRANCH  34  35
ATOM     35  C   UNL     1      -1.107  -4.836   3.727  0.00  0.00    -0.027 A 
ATOM     36  C   UNL     1      -0.659  -5.203   4.952  0.00  0.00    +0.009 A 
ATOM     37  C   UNL     1       0.654  -4.934   5.293  0.00  0.00    +0.008 A 
ATOM     38  C   UNL     1       1.453  -4.313   4.392  0.00  0.00    +0.045 A 
ATOM     39  S   UNL     1       0.348  -4.093   3.007  0.00  0.00    -0.103 S 
ENDBRANCH  34  35
ENDBRANCH  25  34
ENDBRANCH   1  25
TORSDOF 11
