REMARK  Name = ZINC63872395
REMARK  8 active torsions:
REMARK  status: ('A' for Active; 'I' for Inactive)
REMARK    1  A    between atoms: C_1  and  C_2
REMARK    2  A    between atoms: C_2  and  C_3
REMARK    3  A    between atoms: C_2  and  C_4
REMARK    4  A    between atoms: C_7  and  S_12
REMARK    5  A    between atoms: N_8  and  C_9
REMARK    6  A    between atoms: S_12  and  C_15
REMARK    7  A    between atoms: C_15  and  C_16
REMARK    8  A    between atoms: C_19  and  C_21
REMARK                            x       y       z     vdW  Elec       q    Type
REMARK                         _______ _______ _______ _____ _____    ______ ____
ROOT
ATOM      1  S   UNL     1      -4.557  -2.254  -1.471  0.00  0.00    +0.037 S 
ATOM      2  O   UNL     1      -3.868  -3.137  -2.346  0.00  0.00    -0.166 OA
ATOM      3  O   UNL     1      -5.443  -2.760  -0.482  0.00  0.00    -0.166 OA
ENDROOT
BRANCH   1   7
ATOM      4  C   UNL     1      -1.386  -0.606   0.054  0.00  0.00    +0.138 A 
ATOM      5  N   UNL     1      -2.286  -0.373   0.970  0.00  0.00    -0.132 NA
ATOM      6  N   UNL     1      -3.415  -0.868   0.604  0.00  0.00    -0.110 NA
ATOM      7  C   UNL     1      -3.287  -1.439  -0.562  0.00  0.00    +0.272 A 
ATOM      8  N   UNL     1      -1.997  -1.284  -0.947  0.00  0.00    -0.293 N 
BRANCH   4  10
ATOM      9  C   UNL     1       0.153   1.333   0.204  0.00  0.00    +0.015 C 
ATOM     10  C   UNL     1       0.062  -0.190   0.098  0.00  0.00    +0.051 C 
ATOM     11  C   UNL     1       0.739  -0.828   1.313  0.00  0.00    +0.015 C 
ENDBRANCH   4  10
BRANCH   8  12
ATOM     12  C   UNL     1      -1.386  -1.758  -2.192  0.00  0.00    +0.092 C 
ATOM     13  C   UNL     1      -0.516  -0.770  -2.972  0.00  0.00    +0.027 C 
ATOM     14  C   UNL     1      -1.897  -1.158  -3.503  0.00  0.00    +0.027 C 
ENDBRANCH   8  12
ENDBRANCH   1   7
BRANCH   1  15
ATOM     15  C   UNL     1      -5.368  -0.939  -2.422  0.00  0.00    +0.231 C 
BRANCH  15  16
ATOM     16  C   UNL     1      -6.483  -1.529  -3.245  0.00  0.00    +0.071 A 
ATOM     17  C   UNL     1      -6.236  -1.980  -4.504  0.00  0.00    +0.072 A 
ATOM     18  S   UNL     1      -7.865  -2.547  -4.977  0.00  0.00    -0.075 S 
ATOM     19  C   UNL     1      -8.695  -2.123  -3.451  0.00  0.00    +0.109 A 
ATOM     20  N   UNL     1      -7.694  -1.614  -2.747  0.00  0.00    -0.242 NA
BRANCH  19  21
ATOM     21  C   UNL     1     -10.114  -2.298  -3.075  0.00  0.00    +0.007 A 
ATOM     22  C   UNL     1     -10.562  -1.888  -1.819  0.00  0.00    +0.010 A 
ATOM     23  C   UNL     1     -11.887  -2.054  -1.474  0.00  0.00    +0.001 A 
ATOM     24  C   UNL     1     -12.772  -2.627  -2.370  0.00  0.00    +0.000 A 
ATOM     25  C   UNL     1     -12.334  -3.037  -3.618  0.00  0.00    +0.001 A 
ATOM     26  C   UNL     1     -11.013  -2.870  -3.977  0.00  0.00    +0.010 A 
ENDBRANCH  19  21
ENDBRANCH  15  16
ENDBRANCH   1  15
TORSDOF 6
