REMARK  Name = ZINC24471911
REMARK  8 active torsions:
REMARK  status: ('A' for Active; 'I' for Inactive)
REMARK    1  A    between atoms: C_1  and  C_2
REMARK    2  A    between atoms: C_2  and  N_9
REMARK    3  A    between atoms: C_10  and  C_12
REMARK    4  A    between atoms: C_12  and  S_13
REMARK    5  A    between atoms: S_13  and  C_14
REMARK    6  A    between atoms: C_17  and  C_22
REMARK    7  A    between atoms: N_18  and  C_19
REMARK    8  A    between atoms: C_19  and  C_20
REMARK                            x       y       z     vdW  Elec       q    Type
REMARK                         _______ _______ _______ _____ _____    ______ ____
ROOT
ATOM      1  C   UNL     1       0.262   0.960   2.838  0.00  0.00    +0.193 A 
ATOM      2  N   UNL     1       0.987  -0.125   2.679  0.00  0.00    -0.122 NA
ATOM      3  N   UNL     1       1.538  -0.455   3.792  0.00  0.00    -0.128 NA
ATOM      4  C   UNL     1       1.198   0.398   4.730  0.00  0.00    +0.165 A 
ATOM      5  N   UNL     1       0.375   1.333   4.147  0.00  0.00    -0.298 N 
ENDROOT
BRANCH   4   6
ATOM      6  C   UNL     1       1.624   0.363   6.145  0.00  0.00    +0.019 A 
ATOM      7  C   UNL     1       0.756   0.794   7.149  0.00  0.00    +0.013 A 
ATOM      8  C   UNL     1       1.157   0.754   8.468  0.00  0.00    +0.021 A 
ATOM      9  C   UNL     1       2.423   0.298   8.796  0.00  0.00    +0.041 A 
ATOM     10  C   UNL     1       3.291  -0.125   7.804  0.00  0.00    +0.021 A 
ATOM     11  C   UNL     1       2.899  -0.095   6.482  0.00  0.00    +0.013 A 
ATOM     12 CL   UNL     1       2.923   0.257  10.458  0.00  0.00    -0.084 Cl
ENDBRANCH   4   6
BRANCH   1  13
ATOM     13  S   UNL     1      -0.675   1.782   1.593  0.00  0.00    -0.077 S 
BRANCH  13  14
ATOM     14  C   UNL     1      -0.320   0.715   0.175  0.00  0.00    +0.173 C 
BRANCH  14  16
ATOM     15  N   UNL     1      -0.918   0.602  -2.222  0.00  0.00    -0.308 N 
ATOM     16  C   UNL     1      -1.037   1.241  -1.042  0.00  0.00    +0.224 C 
ATOM     17  O   UNL     1      -1.722   2.238  -0.958  0.00  0.00    -0.275 OA
ATOM     18  H   UNL     1      -0.297  -0.303  -2.298  0.00  0.00    +0.149 HD
BRANCH  15  20
ATOM     19  C   UNL     1      -1.090   2.515  -3.715  0.00  0.00    +0.033 C 
ATOM     20  C   UNL     1      -1.616   1.112  -3.405  0.00  0.00    +0.052 C 
ATOM     21  C   UNL     1      -3.108   1.211  -3.089  0.00  0.00    +0.049 C 
ATOM     22  C   UNL     1      -3.946   1.047  -4.387  0.00  0.00    +0.168 C 
ATOM     23  S   UNL     1      -2.970  -0.282  -5.218  0.00  0.00    -0.029 S 
ATOM     24  O   UNL     1      -3.019  -0.088  -6.625  0.00  0.00    -0.174 OA
ATOM     25  O   UNL     1      -3.332  -1.542  -4.669  0.00  0.00    -0.174 OA
ATOM     26  C   UNL     1      -1.301   0.192  -4.600  0.00  0.00    +0.191 C 
ENDBRANCH  15  20
ENDBRANCH  14  16
ENDBRANCH  13  14
ENDBRANCH   1  13
BRANCH   5  27
ATOM     27  C   UNL     1      -0.253   2.487   4.795  0.00  0.00    +0.152 C 
BRANCH  27  28
ATOM     28  C   UNL     1      -1.659   2.131   5.203  0.00  0.00    -0.013 C 
ATOM     29  C   UNL     1      -2.050   2.319   6.439  0.00  0.00    +0.005 C 
ENDBRANCH  27  28
ENDBRANCH   5  27
TORSDOF 7
