REMARK  Name = ZINC58894735
REMARK  13 active torsions:
REMARK  status: ('A' for Active; 'I' for Inactive)
REMARK    1  A    between atoms: C_1  and  C_2
REMARK    2  A    between atoms: C_2  and  O_3
REMARK    3  A    between atoms: O_3  and  C_4
REMARK    4  A    between atoms: C_7  and  C_10
REMARK    5  A    between atoms: C_10  and  C_12
REMARK    6  A    between atoms: C_10  and  O_37
REMARK    7  A    between atoms: C_12  and  C_13
REMARK    8  A    between atoms: C_13  and  C_14
REMARK    9  A    between atoms: N_16  and  N_17
REMARK   10  A    between atoms: C_18  and  C_19
REMARK   11  A    between atoms: C_20  and  C_36
REMARK   12  A    between atoms: N_21  and  C_28
REMARK   13  A    between atoms: C_28  and  C_29
REMARK                            x       y       z     vdW  Elec       q    Type
REMARK                         _______ _______ _______ _____ _____    ______ ____
ROOT
ATOM      1  N   UNL     1      -2.687 -10.344  -4.505  0.00  0.00    -0.188 NA
ATOM      2  C   UNL     1      -2.570 -11.610  -4.773  0.00  0.00    +0.140 C 
ENDROOT
BRANCH   2   3
ATOM      3  C   UNL     1      -2.506 -12.591  -3.678  0.00  0.00    +0.023 A 
ATOM      4  C   UNL     1      -1.523 -13.507  -3.463  0.00  0.00    +0.026 A 
ATOM      5  N   UNL     1      -1.812 -14.239  -2.351  0.00  0.00    -0.339 N 
ATOM      6  C   UNL     1      -3.005 -13.820  -1.800  0.00  0.00    +0.050 A 
ATOM      7  C   UNL     1      -3.490 -12.769  -2.596  0.00  0.00    +0.009 A 
ATOM      8  C   UNL     1      -4.691 -12.142  -2.268  0.00  0.00    +0.010 A 
ATOM      9  C   UNL     1      -5.395 -12.556  -1.159  0.00  0.00    +0.001 A 
ATOM     10  C   UNL     1      -4.915 -13.591  -0.370  0.00  0.00    +0.002 A 
ATOM     11  C   UNL     1      -3.734 -14.226  -0.687  0.00  0.00    +0.026 A 
ATOM     12  C   UNL     1      -0.300 -13.685  -4.325  0.00  0.00    +0.064 C 
BRANCH   5  13
ATOM     13  C   UNL     1      -0.977 -15.318  -1.818  0.00  0.00    +0.158 C 
BRANCH  13  14
ATOM     14  C   UNL     1       0.117 -14.730  -0.964  0.00  0.00    -0.009 A 
ATOM     15  C   UNL     1       1.317 -14.357  -1.538  0.00  0.00    +0.007 A 
ATOM     16  C   UNL     1       2.321 -13.818  -0.755  0.00  0.00    +0.000 A 
ATOM     17  C   UNL     1       2.124 -13.652   0.604  0.00  0.00    +0.001 A 
ATOM     18  C   UNL     1       0.924 -14.025   1.179  0.00  0.00    +0.020 A 
ATOM     19  C   UNL     1      -0.082 -14.560   0.395  0.00  0.00    +0.046 A 
ATOM     20 CL   UNL     1      -1.592 -15.022   1.116  0.00  0.00    -0.083 Cl
ENDBRANCH  13  14
ENDBRANCH   5  13
ENDBRANCH   2   3
BRANCH   1  23
ATOM     21  C   UNL     1      -2.659  -8.582  -2.904  0.00  0.00    +0.232 C 
ATOM     22  O   UNL     1      -2.721  -7.777  -3.809  0.00  0.00    -0.274 OA
ATOM     23  N   UNL     1      -2.638  -9.902  -3.176  0.00  0.00    -0.207 N 
ATOM     24  H   UNL     1      -2.588 -10.546  -2.452  0.00  0.00    +0.177 HD
BRANCH  21  25
ATOM     25  C   UNL     1      -2.607  -8.107  -1.475  0.00  0.00    +0.100 C 
BRANCH  25  26
ATOM     26  C   UNL     1      -2.645  -6.577  -1.444  0.00  0.00    +0.045 C 
BRANCH  26  27
ATOM     27  C   UNL     1      -2.591  -6.095   0.006  0.00  0.00    +0.145 C 
BRANCH  27  31
ATOM     28  C   UNL     1      -2.347  -1.829   0.080  0.00  0.00    +0.121 A 
ATOM     29  C   UNL     1      -1.190  -2.592   0.151  0.00  0.00    +0.046 A 
ATOM     30  C   UNL     1      -1.272  -3.971   0.128  0.00  0.00    +0.010 A 
ATOM     31  C   UNL     1      -2.505  -4.590   0.033  0.00  0.00    -0.019 A 
ATOM     32  C   UNL     1      -3.659  -3.832  -0.039  0.00  0.00    +0.010 A 
ATOM     33  C   UNL     1      -3.583  -2.453  -0.010  0.00  0.00    +0.046 A 
BRANCH  28  34
ATOM     34  O   UNL     1      -2.269  -0.472   0.103  0.00  0.00    -0.492 OA
BRANCH  34  36
ATOM     35  C   UNL     1      -1.076   1.627   0.210  0.00  0.00    +0.048 C 
ATOM     36  C   UNL     1      -0.963   0.101   0.197  0.00  0.00    +0.225 C 
ENDBRANCH  34  36
ENDBRANCH  28  34
ENDBRANCH  27  31
BRANCH  27  37
ATOM     37  O   UNL     1      -3.772  -6.516   0.693  0.00  0.00    -0.387 OA
ATOM     38  H   UNL     1      -4.592  -6.176   0.309  0.00  0.00    +0.210 HD
ENDBRANCH  27  37
ENDBRANCH  26  27
ENDBRANCH  25  26
ENDBRANCH  21  25
ENDBRANCH   1  23
TORSDOF 11
