REMARK  Name = ZINC20028438
REMARK  8 active torsions:
REMARK  status: ('A' for Active; 'I' for Inactive)
REMARK    1  A    between atoms: C_1  and  N_2
REMARK    2  A    between atoms: N_2  and  C_3
REMARK    3  A    between atoms: N_2  and  C_4
REMARK    4  A    between atoms: C_15  and  N_32
REMARK    5  A    between atoms: C_16  and  C_24
REMARK    6  A    between atoms: N_17  and  C_18
REMARK    7  A    between atoms: C_24  and  C_26
REMARK    8  A    between atoms: C_33  and  N_35
REMARK                            x       y       z     vdW  Elec       q    Type
REMARK                         _______ _______ _______ _____ _____    ______ ____
ROOT
ATOM      1  C   UNL     1       0.133  -0.535  -1.377  0.00  0.00    +0.042 A 
ATOM      2  C   UNL     1       1.300  -0.903  -2.030  0.00  0.00    +0.043 A 
ATOM      3  C   UNL     1       1.243  -1.696  -3.161  0.00  0.00    +0.114 A 
ATOM      4  N   UNL     1       0.080  -2.110  -3.631  0.00  0.00    -0.248 NA
ATOM      5  C   UNL     1      -1.055  -1.787  -3.045  0.00  0.00    +0.113 A 
ATOM      6  C   UNL     1      -1.111  -0.992  -1.890  0.00  0.00    +0.053 A 
ATOM      7  C   UNL     1      -2.458  -0.723  -1.348  0.00  0.00    +0.068 A 
ATOM      8  C   UNL     1      -3.520  -1.298  -2.051  0.00  0.00    +0.063 A 
ATOM      9  S   UNL     1      -2.755  -2.161  -3.399  0.00  0.00    -0.065 S 
ATOM     10  C   UNL     1      -4.840  -1.126  -1.653  0.00  0.00    +0.075 A 
ATOM     11  C   UNL     1      -5.080  -0.343  -0.504  0.00  0.00    +0.060 A 
ATOM     12  C   UNL     1      -6.524  -0.319  -0.304  0.00  0.00    +0.065 A 
ATOM     13  C   UNL     1      -7.079  -1.077  -1.326  0.00  0.00    +0.116 A 
ATOM     14  N   UNL     1      -6.053  -1.558  -2.132  0.00  0.00    -0.303 N 
ATOM     15  C   UNL     1      -3.979   0.215   0.170  0.00  0.00    +0.105 A 
ATOM     16  N   UNL     1      -2.752   0.018  -0.252  0.00  0.00    -0.342 N 
ATOM     17  H   UNL     1      -2.022   0.422   0.243  0.00  0.00    +0.167 HD
ENDROOT
BRANCH  14  18
ATOM     18  C   UNL     1      -6.229  -2.362  -3.264  0.00  0.00    +0.047 A 
ATOM     19  C   UNL     1      -5.880  -1.882  -4.520  0.00  0.00    +0.026 A 
ATOM     20  C   UNL     1      -6.056  -2.678  -5.635  0.00  0.00    +0.002 A 
ATOM     21  C   UNL     1      -6.579  -3.951  -5.502  0.00  0.00    +0.000 A 
ATOM     22  C   UNL     1      -6.928  -4.432  -4.253  0.00  0.00    +0.002 A 
ATOM     23  C   UNL     1      -6.749  -3.643  -3.133  0.00  0.00    +0.026 A 
ENDBRANCH  14  18
BRANCH   1  25
ATOM     24  C   UNL     1       0.121   1.719  -0.364  0.00  0.00    +0.129 C 
ATOM     25  N   UNL     1       0.180   0.261  -0.240  0.00  0.00    -0.335 N 
ATOM     26  C   UNL     1       0.288  -0.358   1.083  0.00  0.00    +0.129 C 
ENDBRANCH   1  25
BRANCH  12  27
ATOM     27  N   UNL     1      -7.209   0.332   0.708  0.00  0.00    -0.356 N 
ATOM     28  H   UNL     1      -6.719   0.753   1.432  0.00  0.00    +0.142 HD
ATOM     29  H   UNL     1      -8.178   0.368   0.694  0.00  0.00    +0.142 HD
ENDBRANCH  12  27
BRANCH  15  30
ATOM     30  N   UNL     1      -4.193   0.987   1.301  0.00  0.00    -0.344 N 
ATOM     31  H   UNL     1      -5.097   1.220   1.565  0.00  0.00    +0.144 HD
ATOM     32  H   UNL     1      -3.440   1.294   1.829  0.00  0.00    +0.144 HD
ENDBRANCH  15  30
BRANCH  13  33
ATOM     33  C   UNL     1      -8.456  -1.320  -1.516  0.00  0.00    +0.212 C 
ATOM     34  O   UNL     1      -8.986  -2.277  -0.979  0.00  0.00    -0.285 OA
BRANCH  33  35
ATOM     35  C   UNL     1      -9.257  -0.412  -2.367  0.00  0.00    +0.024 A 
ATOM     36  C   UNL     1      -8.636   0.625  -3.064  0.00  0.00    +0.012 A 
ATOM     37  C   UNL     1      -9.389   1.468  -3.856  0.00  0.00    +0.001 A 
ATOM     38  C   UNL     1     -10.756   1.286  -3.960  0.00  0.00    +0.000 A 
ATOM     39  C   UNL     1     -11.378   0.260  -3.271  0.00  0.00    +0.001 A 
ATOM     40  C   UNL     1     -10.637  -0.593  -2.480  0.00  0.00    +0.012 A 
ENDBRANCH  33  35
ENDBRANCH  13  33
TORSDOF 6
