REMARK  Name = ZINC13129725
REMARK  14 active torsions:
REMARK  status: ('A' for Active; 'I' for Inactive)
REMARK    1  A    between atoms: C_1  and  C_2
REMARK    2  A    between atoms: C_2  and  O_3
REMARK    3  A    between atoms: O_3  and  C_4
REMARK    4  A    between atoms: C_4  and  C_6
REMARK    5  A    between atoms: C_7  and  C_32
REMARK    6  A    between atoms: C_12  and  C_31
REMARK    7  A    between atoms: C_14  and  S_15
REMARK    8  A    between atoms: S_15  and  C_16
REMARK    9  A    between atoms: C_16  and  C_17
REMARK   10  A    between atoms: C_18  and  C_26
REMARK   11  A    between atoms: C_19  and  C_25
REMARK   12  A    between atoms: C_26  and  O_28
REMARK   13  A    between atoms: O_28  and  C_29
REMARK   14  A    between atoms: C_29  and  C_30
REMARK                            x       y       z     vdW  Elec       q    Type
REMARK                         _______ _______ _______ _____ _____    ______ ____
ROOT
ATOM      1  S   UNL     1       0.013  -2.252   2.673  0.00  0.00    -0.099 S 
ENDROOT
BRANCH   1  10
ATOM      2  C   UNL     1       0.246  -3.249  -1.809  0.00  0.00    +0.102 A 
ATOM      3  C   UNL     1       0.184  -2.980  -0.475  0.00  0.00    -0.018 A 
ATOM      4  C   UNL     1      -0.196  -1.706  -0.038  0.00  0.00    +0.043 A 
ATOM      5  C   UNL     1      -0.497  -0.771  -1.060  0.00  0.00    +0.114 A 
ATOM      6  S   UNL     1      -0.238  -1.699  -2.550  0.00  0.00    -0.062 S 
ATOM      7  N   UNL     1      -0.873   0.459  -0.780  0.00  0.00    -0.225 NA
ATOM      8  C   UNL     1      -0.969   0.860   0.474  0.00  0.00    +0.128 A 
ATOM      9  N   UNL     1      -0.706   0.046   1.480  0.00  0.00    -0.225 NA
ATOM     10  C   UNL     1      -0.327  -1.209   1.294  0.00  0.00    +0.109 A 
ATOM     11  C   UNL     1      -1.396   2.275   0.765  0.00  0.00    +0.088 C 
ATOM     12  C   UNL     1       0.527  -4.051   0.528  0.00  0.00    +0.046 C 
BRANCH   2  13
ATOM     13  C   UNL     1       0.616  -4.503  -2.473  0.00  0.00    +0.346 C 
ATOM     14  O   UNL     1       0.922  -5.475  -1.809  0.00  0.00    -0.244 OA
BRANCH  13  15
ATOM     15  O   UNL     1       0.618  -4.579  -3.819  0.00  0.00    -0.461 OA
BRANCH  15  17
ATOM     16  C   UNL     1       0.939  -5.745  -5.933  0.00  0.00    +0.048 C 
ATOM     17  C   UNL     1       0.995  -5.851  -4.408  0.00  0.00    +0.229 C 
ENDBRANCH  15  17
ENDBRANCH  13  15
ENDBRANCH   2  13
ENDBRANCH   1  10
BRANCH   1  18
ATOM     18  C   UNL     1      -0.316  -1.099   4.028  0.00  0.00    +0.127 C 
BRANCH  18  19
ATOM     19  C   UNL     1      -0.084  -1.793   5.346  0.00  0.00    +0.034 C 
ATOM     20  C   UNL     1       1.137  -1.736   5.920  0.00  0.00    +0.074 C 
ATOM     21  C   UNL     1       1.327  -2.447   7.245  0.00  0.00    +0.110 C 
ATOM     22  N   UNL     1       0.156  -3.146   7.800  0.00  0.00    -0.292 N 
ATOM     23  C   UNL     1      -0.999  -3.113   7.107  0.00  0.00    +0.304 C 
ATOM     24  O   UNL     1      -1.971  -3.688   7.558  0.00  0.00    -0.253 OA
ATOM     25  N   UNL     1      -1.113  -2.464   5.942  0.00  0.00    -0.272 N 
ATOM     26  C   UNL     1       2.450  -3.471   7.073  0.00  0.00    +0.033 C 
ATOM     27  H   UNL     1       0.215  -3.620   8.645  0.00  0.00    +0.151 HD
ATOM     28  H   UNL     1      -1.973  -2.475   5.494  0.00  0.00    +0.156 HD
BRANCH  20  29
ATOM     29  C   UNL     1       2.202  -1.036   5.307  0.00  0.00    +0.338 C 
ATOM     30  O   UNL     1       2.066  -0.582   4.186  0.00  0.00    -0.245 OA
BRANCH  29  31
ATOM     31  O   UNL     1       3.368  -0.871   5.964  0.00  0.00    -0.462 OA
BRANCH  31  32
ATOM     32  C   UNL     1       4.401  -0.153   5.285  0.00  0.00    +0.229 C 
ATOM     33  C   UNL     1       5.638  -0.068   6.181  0.00  0.00    +0.048 C 
ENDBRANCH  31  32
ENDBRANCH  29  31
ENDBRANCH  20  29
ENDBRANCH  18  19
ENDBRANCH   1  18
TORSDOF 9
