REMARK  Name = ZINC02865823
REMARK  7 active torsions:
REMARK  status: ('A' for Active; 'I' for Inactive)
REMARK    1  A    between atoms: C_4  and  C_7
REMARK    2  A    between atoms: C_8  and  C_9
REMARK    3  A    between atoms: C_9  and  S_10
REMARK    4  A    between atoms: S_10  and  C_11
REMARK    5  A    between atoms: C_14  and  C_22
REMARK    6  A    between atoms: N_15  and  C_16
REMARK    7  A    between atoms: C_22  and  C_23
REMARK                            x       y       z     vdW  Elec       q    Type
REMARK                         _______ _______ _______ _____ _____    ______ ____
ROOT
ATOM      1  C   UNL     1       0.002  -0.004   0.002  0.00  0.00    +0.196 A 
ATOM      2  N   UNL     1       1.068  -0.771  -0.018  0.00  0.00    -0.122 NA
ATOM      3  N   UNL     1       0.718  -2.007  -0.016  0.00  0.00    -0.133 NA
ATOM      4  C   UNL     1      -0.581  -2.106  -0.004  0.00  0.00    +0.143 A 
ATOM      5  N   UNL     1      -1.086  -0.833   0.008  0.00  0.00    -0.274 N 
ENDROOT
BRANCH   5   6
ATOM      6  C   UNL     1      -2.438  -0.457   0.022  0.00  0.00    +0.050 A 
ATOM      7  C   UNL     1      -3.235  -0.771   1.114  0.00  0.00    +0.026 A 
ATOM      8  C   UNL     1      -4.564  -0.395   1.127  0.00  0.00    +0.002 A 
ATOM      9  C   UNL     1      -5.103   0.283   0.050  0.00  0.00    +0.000 A 
ATOM     10  C   UNL     1      -4.312   0.593  -1.042  0.00  0.00    +0.002 A 
ATOM     11  C   UNL     1      -2.981   0.224  -1.058  0.00  0.00    +0.026 A 
ENDBRANCH   5   6
BRANCH   1  12
ATOM     12  S   UNL     1      -0.022   1.758   0.012  0.00  0.00    -0.082 S 
BRANCH  12  13
ATOM     13  C   UNL     1       1.756   2.096  -0.004  0.00  0.00    +0.104 C 
BRANCH  13  15
ATOM     14  C   UNL     1       2.574   4.162   1.040  0.00  0.00    +0.004 C 
ATOM     15  C   UNL     1       1.984   3.586   0.002  0.00  0.00    -0.015 C 
BRANCH  14  19
ATOM     16  C   UNL     1       3.216   8.361   1.057  0.00  0.00    +0.000 A 
ATOM     17  C   UNL     1       3.623   7.597   2.136  0.00  0.00    +0.001 A 
ATOM     18  C   UNL     1       3.417   6.233   2.137  0.00  0.00    +0.008 A 
ATOM     19  C   UNL     1       2.797   5.623   1.046  0.00  0.00    -0.025 A 
ATOM     20  C   UNL     1       2.394   6.398  -0.042  0.00  0.00    +0.008 A 
ATOM     21  C   UNL     1       2.600   7.762  -0.028  0.00  0.00    +0.001 A 
ENDBRANCH  14  19
ENDBRANCH  13  15
ENDBRANCH  12  13
ENDBRANCH   1  12
BRANCH   4  22
ATOM     22  C   UNL     1      -1.380  -3.384  -0.003  0.00  0.00    +0.119 C 
BRANCH  22  23
ATOM     23  C   UNL     1      -1.659  -3.802  -1.424  0.00  0.00    -0.003 A 
ATOM     24  C   UNL     1      -0.925  -4.597  -2.240  0.00  0.00    +0.011 A 
ATOM     25  C   UNL     1      -1.381  -4.848  -3.520  0.00  0.00    +0.008 A 
ATOM     26  C   UNL     1      -2.550  -4.291  -3.922  0.00  0.00    +0.045 A 
ATOM     27  S   UNL     1      -3.048  -3.385  -2.466  0.00  0.00    -0.101 S 
ENDBRANCH  22  23
ENDBRANCH   4  22
TORSDOF 7
