REMARK  Name = ZINC02406950
REMARK  6 active torsions:
REMARK  status: ('A' for Active; 'I' for Inactive)
REMARK    1  A    between atoms: C_1  and  C_2
REMARK    2  A    between atoms: N_5  and  C_7
REMARK    3  A    between atoms: C_14  and  N_39
REMARK    4  A    between atoms: C_15  and  C_37
REMARK    5  A    between atoms: N_23  and  C_26
REMARK    6  A    between atoms: C_26  and  C_27
REMARK                            x       y       z     vdW  Elec       q    Type
REMARK                         _______ _______ _______ _____ _____    ______ ____
ROOT
ATOM      1  C   UNL     1      -5.210  -1.516   1.283  0.00  0.00    +0.068 C 
ATOM      2  C   UNL     1      -4.668  -2.239   2.489  0.00  0.00    +0.069 A 
ATOM      3  C   UNL     1      -3.623  -1.806   3.295  0.00  0.00    +0.062 A 
ATOM      4  C   UNL     1      -3.435  -2.738   4.281  0.00  0.00    +0.230 A 
ATOM      5  N   UNL     1      -4.340  -3.721   4.087  0.00  0.00    -0.200 N 
ATOM      6  N   UNL     1      -5.102  -3.385   2.957  0.00  0.00    -0.168 NA
ATOM      7  O   UNL     1      -2.484  -2.608   5.238  0.00  0.00    -0.423 OA
ATOM      8  C   UNL     1      -1.536  -1.665   5.062  0.00  0.00    +0.201 C 
ATOM      9  C   UNL     1      -1.613  -0.686   4.131  0.00  0.00    +0.110 C 
ATOM     10  C   UNL     1      -2.785  -0.564   3.196  0.00  0.00    +0.145 C 
ATOM     11  C   UNL     1      -3.588   0.662   3.489  0.00  0.00    -0.001 A 
ATOM     12  C   UNL     1      -4.278   1.059   4.614  0.00  0.00    +0.007 A 
ATOM     13  C   UNL     1      -4.933   2.284   4.555  0.00  0.00    +0.000 A 
ATOM     14  C   UNL     1      -4.894   3.066   3.419  0.00  0.00    +0.002 A 
ATOM     15  C   UNL     1      -4.202   2.675   2.283  0.00  0.00    +0.024 A 
ATOM     16  C   UNL     1      -3.541   1.447   2.329  0.00  0.00    +0.041 A 
ATOM     17  N   UNL     1      -2.786   0.819   1.354  0.00  0.00    -0.265 N 
ATOM     18  C   UNL     1      -2.306  -0.371   1.773  0.00  0.00    +0.241 C 
ATOM     19  O   UNL     1      -1.620  -1.139   1.133  0.00  0.00    -0.274 OA
ENDROOT
BRANCH   5  20
ATOM     20  C   UNL     1      -4.491  -4.871   4.874  0.00  0.00    +0.069 A 
ATOM     21  C   UNL     1      -3.378  -5.481   5.436  0.00  0.00    +0.028 A 
ATOM     22  C   UNL     1      -3.531  -6.612   6.215  0.00  0.00    +0.002 A 
ATOM     23  C   UNL     1      -4.791  -7.142   6.427  0.00  0.00    +0.000 A 
ATOM     24  C   UNL     1      -5.901  -6.540   5.864  0.00  0.00    +0.002 A 
ATOM     25  C   UNL     1      -5.755  -5.406   5.088  0.00  0.00    +0.028 A 
ENDBRANCH   5  20
BRANCH   8  26
ATOM     26  N   UNL     1      -0.430  -1.699   5.875  0.00  0.00    -0.328 N 
ATOM     27  H   UNL     1       0.268  -1.034   5.772  0.00  0.00    +0.145 HD
ATOM     28  H   UNL     1      -0.347  -2.389   6.552  0.00  0.00    +0.145 HD
ENDBRANCH   8  26
BRANCH   9  29
ATOM     29  C   UNL     1      -0.545   0.263   4.032  0.00  0.00    +0.102 C 
ATOM     30  N   UNL     1       0.301   1.016   3.954  0.00  0.00    -0.191 NA
ENDBRANCH   9  29
BRANCH  17  31
ATOM     31  C   UNL     1      -2.541   1.377   0.022  0.00  0.00    +0.149 C 
BRANCH  31  32
ATOM     32  C   UNL     1      -1.335   2.279   0.068  0.00  0.00    -0.022 A 
ATOM     33  C   UNL     1      -0.733   2.555   1.258  0.00  0.00    +0.006 A 
ATOM     34  C   UNL     1       0.379   3.392   1.321  0.00  0.00    +0.001 A 
ATOM     35  C   UNL     1       0.899   3.954   0.196  0.00  0.00    +0.008 A 
ATOM     36  C   UNL     1       0.308   3.687  -1.051  0.00  0.00    -0.018 A 
ATOM     37  C   UNL     1      -0.824   2.836  -1.116  0.00  0.00    -0.013 A 
ATOM     38  C   UNL     1      -1.415   2.570  -2.362  0.00  0.00    +0.009 A 
ATOM     39  C   UNL     1      -0.895   3.132  -3.488  0.00  0.00    +0.001 A 
ATOM     40  C   UNL     1       0.217   3.969  -3.424  0.00  0.00    +0.001 A 
ATOM     41  C   UNL     1       0.816   4.249  -2.235  0.00  0.00    +0.008 A 
ENDBRANCH  31  32
ENDBRANCH  17  31
TORSDOF 5
