REMARK  Name = ZINC40273914
REMARK  2 active torsions:
REMARK  status: ('A' for Active; 'I' for Inactive)
REMARK    1  A    between atoms: C_2  and  C_13
REMARK    2  A    between atoms: C_13  and  C_15
REMARK                            x       y       z     vdW  Elec       q    Type
REMARK                         _______ _______ _______ _____ _____    ______ ____
ROOT
ATOM      1  C   UNL     1      -0.017   1.380   0.010  0.00  0.00    +0.056 A 
ATOM      2  C   UNL     1       1.175   2.083   0.002  0.00  0.00    -0.005 A 
ATOM      3  C   UNL     1       2.382   1.406  -0.013  0.00  0.00    +0.049 A 
ATOM      4  C   UNL     1       2.404   0.021  -0.021  0.00  0.00    +0.069 A 
ATOM      5  C   UNL     1       1.212  -0.683  -0.013  0.00  0.00    +0.163 A 
ATOM      6  C   UNL     1       0.002  -0.004   0.002  0.00  0.00    +0.162 A 
ATOM      7  O   UNL     1      -1.167  -0.709   0.010  0.00  0.00    -0.488 OA
ATOM      8  C   UNL     1      -1.468  -1.433  -1.185  0.00  0.00    +0.232 C 
ATOM      9  C   UNL     1      -0.780  -2.789  -1.182  0.00  0.00    +0.082 C 
ATOM     10  C   UNL     1       0.736  -2.669  -1.212  0.00  0.00    +0.232 C 
ATOM     11  O   UNL     1       1.220  -2.048  -0.019  0.00  0.00    -0.488 OA
ATOM     12 CL   UNL     1       3.873   2.295  -0.023  0.00  0.00    -0.083 Cl
ENDROOT
BRANCH   2  13
ATOM     13  C   UNL     1       1.159   3.589   0.011  0.00  0.00    +0.141 C 
ATOM     14 CL   UNL     1       2.536   4.211  -0.974  0.00  0.00    -0.114 Cl
BRANCH  13  15
ATOM     15  C   UNL     1       1.294   4.093   1.449  0.00  0.00    +0.140 C 
ATOM     16  C   UNL     1       1.119   5.631   1.499  0.00  0.00    +0.035 C 
ATOM     17  C   UNL     1       0.647   5.827   2.966  0.00  0.00    +0.031 C 
ATOM     18  C   UNL     1      -0.187   4.552   3.215  0.00  0.00    +0.160 C 
ATOM     19  O   UNL     1       0.233   3.566   2.263  0.00  0.00    -0.375 OA
ENDBRANCH  13  15
ENDBRANCH   2  13
TORSDOF 2
