REMARK  Name = ZINC32920492
REMARK  11 active torsions:
REMARK  status: ('A' for Active; 'I' for Inactive)
REMARK    1  A    between atoms: C_1  and  C_2
REMARK    2  A    between atoms: C_10  and  C_13
REMARK    3  A    between atoms: N_15  and  C_16
REMARK    4  A    between atoms: C_16  and  C_17
REMARK    5  A    between atoms: C_17  and  C_18
REMARK    6  A    between atoms: C_18  and  N_19
REMARK    7  A    between atoms: N_19  and  C_20
REMARK    8  A    between atoms: N_19  and  C_27
REMARK    9  A    between atoms: C_20  and  C_21
REMARK   10  A    between atoms: C_27  and  C_28
REMARK   11  A    between atoms: C_27  and  C_29
REMARK                            x       y       z     vdW  Elec       q    Type
REMARK                         _______ _______ _______ _____ _____    ______ ____
ROOT
ATOM      1  C   UNL     1      -0.587  -6.588  -3.636  0.00  0.00    +0.266 C 
ATOM      2  O   UNL     1      -1.755  -6.253  -3.642  0.00  0.00    -0.268 OA
ATOM      3  N   UNL     1      -0.216  -7.731  -3.026  0.00  0.00    -0.310 N 
ATOM      4  H   UNL     1       0.841  -8.034  -3.021  0.00  0.00    +0.149 HD
ENDROOT
BRANCH   1  14
ATOM      5  C   UNL     1       4.062  -0.981  -8.293  0.00  0.00    +0.044 C 
ATOM      6  C   UNL     1       2.812  -1.362  -7.542  0.00  0.00    -0.050 A 
ATOM      7  C   UNL     1       1.712  -0.521  -7.559  0.00  0.00    +0.007 A 
ATOM      8  C   UNL     1       0.560  -0.851  -6.871  0.00  0.00    +0.046 A 
ATOM      9  C   UNL     1       0.492  -2.034  -6.153  0.00  0.00    +0.132 A 
ATOM     10  C   UNL     1       1.610  -2.892  -6.151  0.00  0.00    +0.062 A 
ATOM     11  C   UNL     1       2.764  -2.550  -6.838  0.00  0.00    +0.018 A 
ATOM     12  C   UNL     1       1.469  -4.148  -5.397  0.00  0.00    +0.178 A 
ATOM     13  C   UNL     1       0.212  -4.532  -4.971  0.00  0.00    +0.069 A 
ATOM     14  C   UNL     1       0.431  -5.737  -4.300  0.00  0.00    +0.175 A 
ATOM     15  N   UNL     1       1.728  -5.965  -4.376  0.00  0.00    -0.073 NA
ATOM     16  O   UNL     1       2.309  -5.085  -4.986  0.00  0.00    -0.353 OA
ATOM     17  C   UNL     1      -1.006  -3.711  -5.262  0.00  0.00    +0.270 C 
ATOM     18  O   UNL     1      -0.619  -2.345  -5.442  0.00  0.00    -0.486 OA
ENDBRANCH   1  14
BRANCH   3  19
ATOM     19  C   UNL     1      -1.222  -8.571  -2.371  0.00  0.00    +0.103 C 
BRANCH  19  20
ATOM     20  C   UNL     1      -0.542  -9.799  -1.762  0.00  0.00    +0.000 C 
BRANCH  20  21
ATOM     21  C   UNL     1      -1.593 -10.676  -1.078  0.00  0.00    -0.076 C 
BRANCH  21  22
ATOM     22  N   UNL     1      -0.969 -11.929  -0.631  0.00  0.00    +0.384 N 
ATOM     23  H   UNL     1      -0.284 -12.267  -1.423  0.00  0.00    -0.081 HD
BRANCH  22  24
ATOM     24  C   UNL     1      -0.179 -11.718   0.589  0.00  0.00    -0.074 C 
ATOM     25  C   UNL     1       1.229 -11.252   0.212  0.00  0.00    -0.014 C 
ATOM     26  C   UNL     1      -0.854 -10.652   1.455  0.00  0.00    -0.014 C 
ENDBRANCH  22  24
BRANCH  22  27
ATOM     27  C   UNL     1      -1.978 -12.977  -0.430  0.00  0.00    -0.043 C 
BRANCH  27  28
ATOM     28  C   UNL     1      -1.301 -14.323  -0.380  0.00  0.00    -0.064 A 
ATOM     29  C   UNL     1      -1.003 -14.991  -1.552  0.00  0.00    +0.002 A 
ATOM     30  C   UNL     1      -0.377 -16.223  -1.506  0.00  0.00    +0.000 A 
ATOM     31  C   UNL     1      -0.060 -16.792  -0.287  0.00  0.00    +0.000 A 
ATOM     32  C   UNL     1      -0.363 -16.126   0.886  0.00  0.00    +0.000 A 
ATOM     33  C   UNL     1      -0.984 -14.892   0.840  0.00  0.00    +0.002 A 
ENDBRANCH  27  28
ENDBRANCH  22  27
ENDBRANCH  21  22
ENDBRANCH  20  21
ENDBRANCH  19  20
ENDBRANCH   3  19
TORSDOF 8
