REMARK  Name = ZINC12498268
REMARK  8 active torsions:
REMARK  status: ('A' for Active; 'I' for Inactive)
REMARK    1  A    between atoms: C_1  and  C_2
REMARK    2  A    between atoms: C_2  and  C_4
REMARK    3  A    between atoms: C_8  and  N_10
REMARK    4  A    between atoms: C_15  and  C_32
REMARK    5  A    between atoms: C_17  and  C_22
REMARK    6  A    between atoms: C_17  and  C_28
REMARK    7  A    between atoms: C_28  and  O_30
REMARK    8  A    between atoms: O_30  and  C_31
REMARK                            x       y       z     vdW  Elec       q    Type
REMARK                         _______ _______ _______ _____ _____    ______ ____
ROOT
ATOM      1  N   UNL     1       0.255  -3.590   1.719  0.00  0.00    -0.210 N 
ATOM      2  C   UNL     1      -0.524  -3.001   2.684  0.00  0.00    +0.229 C 
ATOM      3  O   UNL     1      -0.812  -3.446   3.774  0.00  0.00    -0.275 OA
ATOM      4  C   UNL     1      -0.928  -1.721   2.109  0.00  0.00    +0.078 C 
ATOM      5  C   UNL     1      -2.112  -0.843   2.287  0.00  0.00    -0.023 C 
ATOM      6  C   UNL     1      -1.293  -0.775   0.011  0.00  0.00    +0.070 C 
ATOM      7  C   UNL     1      -1.093  -2.152   0.598  0.00  0.00    +0.090 C 
ATOM      8  C   UNL     1       0.130  -2.980   0.498  0.00  0.00    +0.229 C 
ATOM      9  O   UNL     1       0.864  -3.095  -0.460  0.00  0.00    -0.275 OA
ATOM     10  N   UNL     1      -2.267  -0.168   0.967  0.00  0.00    +0.398 N 
ATOM     11  H   UNL     1      -2.075   0.836   1.066  0.00  0.00    -0.083 HD
ATOM     12  H   UNL     1      -3.224  -0.300   0.619  0.00  0.00    -0.083 HD
ENDROOT
BRANCH   5  13
ATOM     13  C   UNL     1      -3.333  -1.666   2.610  0.00  0.00    -0.025 A 
ATOM     14  C   UNL     1      -4.195  -2.050   1.600  0.00  0.00    +0.005 A 
ATOM     15  C   UNL     1      -5.314  -2.805   1.896  0.00  0.00    +0.000 A 
ATOM     16  C   UNL     1      -5.573  -3.178   3.202  0.00  0.00    +0.003 A 
ATOM     17  C   UNL     1      -4.713  -2.794   4.213  0.00  0.00    +0.038 A 
ATOM     18  C   UNL     1      -3.588  -2.042   3.918  0.00  0.00    +0.125 A 
ATOM     19  F   UNL     1      -2.744  -1.672   4.905  0.00  0.00    -0.205 F 
ENDBRANCH   5  13
BRANCH   1  24
ATOM     20  C   UNL     1       1.986  -6.348   3.455  0.00  0.00    +0.019 A 
ATOM     21  C   UNL     1       2.743  -6.879   2.405  0.00  0.00    +0.011 A 
ATOM     22  C   UNL     1       2.666  -6.317   1.148  0.00  0.00    +0.003 A 
ATOM     23  C   UNL     1       1.843  -5.229   0.921  0.00  0.00    +0.024 A 
ATOM     24  C   UNL     1       1.087  -4.693   1.956  0.00  0.00    +0.045 A 
ATOM     25  C   UNL     1       1.159  -5.246   3.225  0.00  0.00    +0.035 A 
BRANCH  20  27
ATOM     26  C   UNL     1       2.962  -8.131   5.044  0.00  0.00    +0.091 C 
ATOM     27  C   UNL     1       2.065  -6.945   4.798  0.00  0.00    +0.160 C 
ATOM     28  O   UNL     1       1.408  -6.483   5.706  0.00  0.00    -0.292 OA
ENDBRANCH  20  27
ENDBRANCH   1  24
BRANCH   6  29
ATOM     29  C   UNL     1       0.002  -0.004   0.002  0.00  0.00    -0.047 A 
ATOM     30  C   UNL     1       0.936  -0.232  -0.991  0.00  0.00    +0.003 A 
ATOM     31  C   UNL     1       2.123   0.475  -1.000  0.00  0.00    +0.000 A 
ATOM     32  C   UNL     1       2.377   1.410  -0.014  0.00  0.00    +0.000 A 
ATOM     33  C   UNL     1       1.443   1.639   0.979  0.00  0.00    +0.000 A 
ATOM     34  C   UNL     1       0.256   0.932   0.987  0.00  0.00    +0.003 A 
ENDBRANCH   6  29
BRANCH   6  35
ATOM     35  C   UNL     1      -1.870  -0.864  -1.378  0.00  0.00    +0.301 C 
ATOM     36  O   UNL     1      -1.656  -1.838  -2.060  0.00  0.00    -0.252 OA
BRANCH  35  37
ATOM     37  O   UNL     1      -2.622   0.140  -1.858  0.00  0.00    -0.469 OA
ATOM     38  C   UNL     1      -3.145  -0.014  -3.204  0.00  0.00    +0.280 C 
ENDBRANCH  35  37
ENDBRANCH   6  35
TORSDOF 6
