REMARK  Name = ZINC36575364
REMARK  9 active torsions:
REMARK  status: ('A' for Active; 'I' for Inactive)
REMARK    1  A    between atoms: C_1  and  C_2
REMARK    2  A    between atoms: C_2  and  C_3
REMARK    3  A    between atoms: C_2  and  C_4
REMARK    4  A    between atoms: C_4  and  C_5
REMARK    5  A    between atoms: C_5  and  C_7
REMARK    6  A    between atoms: C_5  and  N_11
REMARK    7  A    between atoms: C_7  and  O_9
REMARK    8  A    between atoms: O_9  and  C_10
REMARK    9  A    between atoms: C_23  and  C_25
REMARK                            x       y       z     vdW  Elec       q    Type
REMARK                         _______ _______ _______ _____ _____    ______ ____
ROOT
ATOM      1  N   UNL     1       0.115  -4.859  -0.465  0.00  0.00    -0.286 N 
ATOM      2  C   UNL     1       0.119  -4.226   0.725  0.00  0.00    +0.304 C 
ATOM      3  O   UNL     1      -0.388  -3.126   0.831  0.00  0.00    -0.253 OA
ATOM      4  N   UNL     1       0.685  -4.812   1.798  0.00  0.00    -0.273 N 
ATOM      5  C   UNL     1       0.598  -4.192   3.129  0.00  0.00    +0.116 C 
ATOM      6  C   UNL     1       2.008  -3.809   3.597  0.00  0.00    +0.074 C 
ATOM      7  C   UNL     1       2.941  -4.958   3.317  0.00  0.00    +0.040 A 
ATOM      8  C   UNL     1       2.684  -5.970   2.461  0.00  0.00    +0.062 A 
ATOM      9  N   UNL     1       3.733  -6.796   2.468  0.00  0.00    -0.348 N 
ATOM     10  C   UNL     1       4.633  -6.338   3.298  0.00  0.00    +0.171 A 
ATOM     11  N   UNL     1       4.173  -5.191   3.849  0.00  0.00    -0.349 N 
ATOM     12  H   UNL     1       4.634  -4.638   4.500  0.00  0.00    +0.166 HD
ATOM     13  C   UNL     1       1.401  -6.095   1.668  0.00  0.00    +0.157 C 
ATOM     14  H   UNL     1       0.579  -5.704  -0.566  0.00  0.00    +0.151 HD
ATOM     15  H   UNL     1       3.814  -7.606   1.940  0.00  0.00    +0.167 HD
ENDROOT
BRANCH  13  16
ATOM     16  C   UNL     1       0.556  -7.212   2.224  0.00  0.00    -0.003 A 
ATOM     17  C   UNL     1       0.182  -7.200   3.555  0.00  0.00    +0.009 A 
ATOM     18  C   UNL     1      -0.592  -8.225   4.065  0.00  0.00    +0.020 A 
ATOM     19  C   UNL     1      -0.994  -9.263   3.244  0.00  0.00    +0.042 A 
ATOM     20  C   UNL     1      -0.621  -9.275   1.912  0.00  0.00    +0.040 A 
ATOM     21  C   UNL     1       0.150  -8.247   1.401  0.00  0.00    +0.048 A 
ATOM     22 CL   UNL     1       0.614  -8.259  -0.272  0.00  0.00    -0.083 Cl
ATOM     23 CL   UNL     1      -1.967 -10.550   3.885  0.00  0.00    -0.083 Cl
ENDBRANCH  13  16
BRANCH   1  24
ATOM     24  C   UNL     1      -0.591  -4.269  -1.605  0.00  0.00    +0.183 C 
BRANCH  24  25
ATOM     25  C   UNL     1       0.311  -3.280  -2.297  0.00  0.00    +0.327 C 
ATOM     26  O   UNL     1       1.428  -3.087  -1.881  0.00  0.00    -0.249 OA
BRANCH  25  27
ATOM     27  O   UNL     1      -0.128  -2.614  -3.377  0.00  0.00    -0.467 OA
ATOM     28  C   UNL     1       0.780  -1.692  -3.983  0.00  0.00    +0.280 C 
ENDBRANCH  25  27
ENDBRANCH  24  25
BRANCH  24  29
ATOM     29  C   UNL     1      -0.986  -5.375  -2.587  0.00  0.00    +0.036 C 
BRANCH  29  31
ATOM     30  C   UNL     1      -3.286  -5.572  -1.634  0.00  0.00    +0.007 C 
ATOM     31  C   UNL     1      -1.983  -6.321  -1.916  0.00  0.00    -0.015 C 
ATOM     32  C   UNL     1      -2.265  -7.505  -2.844  0.00  0.00    +0.007 C 
ENDBRANCH  29  31
ENDBRANCH  24  29
ENDBRANCH   1  24
TORSDOF 6
