REMARK  Name = ZINC02662712
REMARK  8 active torsions:
REMARK  status: ('A' for Active; 'I' for Inactive)
REMARK    1  A    between atoms: C_1  and  O_2
REMARK    2  A    between atoms: O_2  and  C_3
REMARK    3  A    between atoms: C_7  and  C_11
REMARK    4  A    between atoms: C_8  and  O_9
REMARK    5  A    between atoms: O_9  and  C_10
REMARK    6  A    between atoms: C_14  and  C_26
REMARK    7  A    between atoms: C_29  and  S_32
REMARK    8  A    between atoms: S_32  and  C_33
REMARK                            x       y       z     vdW  Elec       q    Type
REMARK                         _______ _______ _______ _____ _____    ______ ____
ROOT
ATOM      1  C   UNL     1       5.398   1.564   0.546  0.00  0.00    +0.038 C 
ATOM      2  C   UNL     1       4.785   1.168  -0.804  0.00  0.00    -0.068 C 
ATOM      3  C   UNL     1       2.490   1.044  -0.017  0.00  0.00    +0.007 C 
ATOM      4  C   UNL     1       3.079   1.025   1.374  0.00  0.00    +0.011 A 
ATOM      5  C   UNL     1       4.387   1.260   1.623  0.00  0.00    -0.015 A 
ATOM      6  C   UNL     1       4.574   1.160   3.054  0.00  0.00    +0.004 A 
ATOM      7  C   UNL     1       5.694   1.305   3.879  0.00  0.00    +0.010 A 
ATOM      8  C   UNL     1       5.497   1.136   5.228  0.00  0.00    +0.001 A 
ATOM      9  C   UNL     1       4.254   0.836   5.759  0.00  0.00    +0.002 A 
ATOM     10  C   UNL     1       3.129   0.687   4.966  0.00  0.00    +0.026 A 
ATOM     11  C   UNL     1       3.298   0.853   3.593  0.00  0.00    +0.047 A 
ATOM     12  N   UNL     1       2.421   0.778   2.548  0.00  0.00    -0.359 N 
ATOM     13  H   UNL     1       1.475   0.581   2.627  0.00  0.00    +0.166 HD
ATOM     14  N   UNL     1       3.429   1.743  -0.921  0.00  0.00    +0.388 N 
ATOM     15  H   UNL     1       3.103   1.644  -1.889  0.00  0.00    -0.084 HD
ATOM     16  H   UNL     1       3.462   2.738  -0.671  0.00  0.00    -0.084 HD
ENDROOT
BRANCH   1  21
ATOM     17  C   UNL     1       9.025   0.685   1.178  0.00  0.00    +0.162 A 
ATOM     18  C   UNL     1       8.963  -0.699   1.232  0.00  0.00    +0.049 A 
ATOM     19  C   UNL     1       7.752  -1.343   1.065  0.00  0.00    +0.004 A 
ATOM     20  C   UNL     1       6.599  -0.611   0.849  0.00  0.00    +0.008 A 
ATOM     21  C   UNL     1       6.655   0.769   0.788  0.00  0.00    +0.004 A 
ATOM     22  C   UNL     1       7.866   1.422   0.955  0.00  0.00    +0.165 A 
BRANCH  17  24
ATOM     23  C   UNL     1      11.364   0.500   1.567  0.00  0.00    +0.277 C 
ATOM     24  O   UNL     1      10.216   1.321   1.342  0.00  0.00    -0.491 OA
ENDBRANCH  17  24
BRANCH  22  25
ATOM     25  O   UNL     1       7.921   2.780   0.902  0.00  0.00    -0.491 OA
ATOM     26  C   UNL     1       7.743   3.485   2.131  0.00  0.00    +0.277 C 
ENDBRANCH  22  25
ENDBRANCH   1  21
BRANCH   3  27
ATOM     27  C   UNL     1       1.176   1.783   0.000  0.00  0.00    -0.056 A 
ATOM     28  C   UNL     1      -0.013   1.076   0.008  0.00  0.00    +0.003 A 
ATOM     29  C   UNL     1      -1.218   1.749   0.017  0.00  0.00    +0.015 A 
ATOM     30  C   UNL     1      -1.236   3.139   0.031  0.00  0.00    +0.008 A 
ATOM     31  C   UNL     1      -0.040   3.846   0.023  0.00  0.00    +0.015 A 
ATOM     32  C   UNL     1       1.162   3.166   0.008  0.00  0.00    +0.003 A 
BRANCH  30  33
ATOM     33  S   UNL     1      -2.772   4.002   0.049  0.00  0.00    -0.129 S 
ATOM     34  C   UNL     1      -4.017   2.683   0.054  0.00  0.00    +0.090 C 
ENDBRANCH  30  33
ENDBRANCH   3  27
TORSDOF 5
