REMARK  Name = ZINC09469245
REMARK  12 active torsions:
REMARK  status: ('A' for Active; 'I' for Inactive)
REMARK    1  A    between atoms: C_1  and  C_2
REMARK    2  A    between atoms: C_5  and  N_8
REMARK    3  A    between atoms: C_9  and  C_11
REMARK    4  A    between atoms: C_11  and  C_13
REMARK    5  A    between atoms: C_11  and  S_19
REMARK    6  A    between atoms: S_19  and  C_20
REMARK    7  A    between atoms: C_23  and  C_32
REMARK    8  A    between atoms: N_24  and  C_25
REMARK    9  A    between atoms: C_32  and  C_34
REMARK   10  A    between atoms: C_32  and  N_63
REMARK   11  A    between atoms: C_35  and  N_63
REMARK   12  A    between atoms: C_36  and  N_63
REMARK                            x       y       z     vdW  Elec       q    Type
REMARK                         _______ _______ _______ _____ _____    ______ ____
ROOT
ATOM      1  S   UNL     1       2.623   0.904   0.568  0.00  0.00    -0.068 S 
ENDROOT
BRANCH   1   2
ATOM      2  C   UNL     1       3.947   2.067   0.617  0.00  0.00    +0.197 A 
ATOM      3  N   UNL     1       3.879   3.341   0.306  0.00  0.00    -0.122 NA
ATOM      4  N   UNL     1       5.031   3.890   0.458  0.00  0.00    -0.135 NA
ATOM      5  C   UNL     1       5.899   3.007   0.863  0.00  0.00    +0.125 A 
ATOM      6  N   UNL     1       5.241   1.812   0.980  0.00  0.00    -0.275 N 
BRANCH   6   7
ATOM      7  C   UNL     1       5.781   0.582   1.386  0.00  0.00    +0.050 A 
ATOM      8  C   UNL     1       6.264   0.429   2.678  0.00  0.00    +0.029 A 
ATOM      9  C   UNL     1       6.791  -0.784   3.078  0.00  0.00    +0.040 A 
ATOM     10  C   UNL     1       6.846  -1.843   2.188  0.00  0.00    +0.124 A 
ATOM     11  C   UNL     1       6.369  -1.690   0.897  0.00  0.00    +0.040 A 
ATOM     12  C   UNL     1       5.837  -0.480   0.495  0.00  0.00    +0.029 A 
ATOM     13  F   UNL     1       7.366  -3.027   2.579  0.00  0.00    -0.205 F 
ENDBRANCH   6   7
BRANCH   5  14
ATOM     14  C   UNL     1       7.357   3.255   1.151  0.00  0.00    -0.003 C 
ATOM     15  C   UNL     1       8.120   3.397  -0.168  0.00  0.00    -0.005 C 
BRANCH  14  18
ATOM     16  C   UNL     1       6.702   4.426   3.166  0.00  0.00    -0.096 C 
ATOM     17  C   UNL     1       8.911   4.764   2.234  0.00  0.00    -0.096 C 
ATOM     18  N   UNL     1       7.489   4.511   1.918  0.00  0.00    +0.382 N 
ATOM     19  H   UNL     1       7.130   5.288   1.350  0.00  0.00    -0.082 HD
ENDBRANCH  14  18
ENDBRANCH   5  14
ENDBRANCH   1   2
BRANCH   1  20
ATOM     20  C   UNL     1       1.280   1.980   0.007  0.00  0.00    +0.170 C 
BRANCH  20  21
ATOM     21  C   UNL     1       1.576   2.466  -1.388  0.00  0.00    -0.025 A 
ATOM     22  C   UNL     1       1.734   1.558  -2.418  0.00  0.00    +0.005 A 
ATOM     23  C   UNL     1       2.001   2.004  -3.699  0.00  0.00    +0.000 A 
ATOM     24  C   UNL     1       2.118   3.359  -3.948  0.00  0.00    +0.000 A 
ATOM     25  C   UNL     1       1.965   4.267  -2.918  0.00  0.00    +0.000 A 
ATOM     26  C   UNL     1       1.694   3.821  -1.637  0.00  0.00    +0.005 A 
ENDBRANCH  20  21
BRANCH  20  28
ATOM     27  N   UNL     1      -1.191   1.867   0.018  0.00  0.00    -0.284 N 
ATOM     28  C   UNL     1      -0.014   1.209   0.007  0.00  0.00    +0.235 C 
ATOM     29  O   UNL     1       0.002  -0.004  -0.008  0.00  0.00    -0.274 OA
ATOM     30  H   UNL     1      -1.205   2.833   0.098  0.00  0.00    +0.155 HD
BRANCH  27  35
ATOM     31  C   UNL     1      -6.058  -1.018  -0.403  0.00  0.00    +0.044 C 
ATOM     32  C   UNL     1      -4.765  -0.252  -0.291  0.00  0.00    -0.050 A 
ATOM     33  C   UNL     1      -3.696  -0.798   0.395  0.00  0.00    +0.005 A 
ATOM     34  C   UNL     1      -2.510  -0.099   0.499  0.00  0.00    +0.023 A 
ATOM     35  C   UNL     1      -2.391   1.155  -0.086  0.00  0.00    +0.033 A 
ATOM     36  C   UNL     1      -3.468   1.704  -0.769  0.00  0.00    +0.023 A 
ATOM     37  C   UNL     1      -4.650   0.997  -0.875  0.00  0.00    +0.005 A 
ENDBRANCH  27  35
ENDBRANCH  20  28
ENDBRANCH   1  20
TORSDOF 8
