REMARK  Name = ZINC12579238
REMARK  15 active torsions:
REMARK  status: ('A' for Active; 'I' for Inactive)
REMARK    1  A    between atoms: C_1  and  C_2
REMARK    2  A    between atoms: C_2  and  N_77
REMARK    3  A    between atoms: N_5  and  P_8
REMARK    4  A    between atoms: P_8  and  C_21
REMARK    5  A    between atoms: P_8  and  C_34
REMARK    6  A    between atoms: N_9  and  C_10
REMARK    7  A    between atoms: C_12  and  N_18
REMARK    8  A    between atoms: C_15  and  O_16
REMARK    9  A    between atoms: O_16  and  C_17
REMARK   10  A    between atoms: C_22  and  C_33
REMARK   11  A    between atoms: N_24  and  C_27
REMARK   12  A    between atoms: C_25  and  C_26
REMARK   13  A    between atoms: C_34  and  C_35
REMARK   14  A    between atoms: C_34  and  C_36
REMARK   15  A    between atoms: C_34  and  C_37
REMARK                            x       y       z     vdW  Elec       q    Type
REMARK                         _______ _______ _______ _____ _____    ______ ____
ROOT
ATOM      1  P   UNL     1      -2.332   2.609   4.624  0.00  0.00    +0.077 P 
ATOM      2  N   UNL     1      -2.250   2.599   3.073  0.00  0.00    -0.242 NA
ENDROOT
BRANCH   1   5
ATOM      3  C   UNL     1      -2.497  -1.315   5.186  0.00  0.00    -0.063 C 
ATOM      4  C   UNL     1      -2.801   0.051   4.567  0.00  0.00    +0.072 C 
ATOM      5  N   UNL     1      -1.969   1.075   5.215  0.00  0.00    -0.268 NA
ATOM      6  C   UNL     1      -0.541   0.771   5.049  0.00  0.00    +0.072 C 
ATOM      7  C   UNL     1      -0.237  -0.595   5.668  0.00  0.00    -0.063 C 
ATOM      8  N   UNL     1      -1.064  -1.618   4.993  0.00  0.00    +0.381 N 
ATOM      9  H   UNL     1      -0.853  -1.608   3.989  0.00  0.00    -0.082 HD
BRANCH   8  11
ATOM     10  C   UNL     1       0.672  -3.338   5.126  0.00  0.00    -0.017 C 
ATOM     11  C   UNL     1      -0.752  -2.958   5.536  0.00  0.00    -0.082 C 
ENDBRANCH   8  11
ENDBRANCH   1   5
BRANCH   1  12
ATOM     12  C   UNL     1      -1.142   3.808   5.285  0.00  0.00    +0.050 A 
ATOM     13  C   UNL     1      -0.789   5.028   4.697  0.00  0.00    +0.071 A 
ATOM     14  N   UNL     1       0.093   5.613   5.465  0.00  0.00    -0.171 NA
ATOM     15  N   UNL     1       0.332   4.784   6.569  0.00  0.00    -0.236 N 
ATOM     16  C   UNL     1      -0.443   3.684   6.437  0.00  0.00    +0.052 A 
ATOM     17  C   UNL     1      -0.513   2.526   7.399  0.00  0.00    +0.066 C 
ATOM     18  C   UNL     1      -1.333   5.573   3.401  0.00  0.00    +0.068 C 
BRANCH  15  19
ATOM     19  C   UNL     1       1.213   5.051   7.626  0.00  0.00    +0.066 A 
ATOM     20  C   UNL     1       0.853   4.733   8.929  0.00  0.00    +0.028 A 
ATOM     21  C   UNL     1       1.726   4.993   9.967  0.00  0.00    +0.002 A 
ATOM     22  C   UNL     1       2.952   5.579   9.712  0.00  0.00    +0.000 A 
ATOM     23  C   UNL     1       3.311   5.901   8.416  0.00  0.00    +0.002 A 
ATOM     24  C   UNL     1       2.445   5.639   7.373  0.00  0.00    +0.028 A 
ENDBRANCH  15  19
ENDBRANCH   1  12
BRANCH   2  25
ATOM     25  C   UNL     1      -1.102   2.783   2.479  0.00  0.00    +0.108 A 
ATOM     26  C   UNL     1       0.159   2.792   3.247  0.00  0.00    +0.064 A 
ATOM     27  C   UNL     1       1.327   2.987   2.591  0.00  0.00    +0.128 A 
ATOM     28  C   UNL     1       1.362   3.178   1.206  0.00  0.00    +0.036 A 
ATOM     29  C   UNL     1       0.221   3.175   0.434  0.00  0.00    +0.050 A 
ATOM     30  C   UNL     1      -1.026   2.989   1.012  0.00  0.00    +0.145 A 
BRANCH  27  31
ATOM     31  N   UNL     1       2.594   2.997   3.356  0.00  0.00    +0.056 N 
ATOM     32  O   UNL     1       2.576   2.817   4.660  0.00  0.00    -0.126 OA
ATOM     33  O   UNL     1       3.738   3.184   2.732  0.00  0.00    -0.126 OA
ENDBRANCH  27  31
BRANCH  30  34
ATOM     34  O   UNL     1      -2.143   2.990   0.257  0.00  0.00    -0.493 OA
ATOM     35  C   UNL     1      -1.973   3.200  -1.170  0.00  0.00    +0.277 C 
ENDBRANCH  30  34
ENDBRANCH   2  25
BRANCH   1  36
ATOM     36  C   UNL     1      -4.016   3.076   5.141  0.00  0.00    +0.014 C 
ATOM     37  C   UNL     1      -4.138   2.948   6.660  0.00  0.00    +0.018 C 
ATOM     38  C   UNL     1      -4.294   4.522   4.727  0.00  0.00    +0.018 C 
ATOM     39  C   UNL     1      -5.031   2.149   4.468  0.00  0.00    +0.018 C 
ENDBRANCH   1  36
TORSDOF 8
