REMARK  Name = ZINC35636724
REMARK  10 active torsions:
REMARK  status: ('A' for Active; 'I' for Inactive)
REMARK    1  A    between atoms: C_1  and  C_2
REMARK    2  A    between atoms: C_2  and  C_4
REMARK    3  A    between atoms: C_2  and  N_13
REMARK    4  A    between atoms: N_6  and  C_7
REMARK    5  A    between atoms: C_7  and  C_8
REMARK    6  A    between atoms: C_19  and  C_28
REMARK    7  A    between atoms: N_24  and  C_25
REMARK    8  A    between atoms: C_25  and  C_26
REMARK    9  A    between atoms: C_32  and  O_34
REMARK   10  A    between atoms: O_34  and  C_35
REMARK                            x       y       z     vdW  Elec       q    Type
REMARK                         _______ _______ _______ _____ _____    ______ ____
ROOT
ATOM      1  N   UNL     1      -3.361  -0.628   0.607  0.00  0.00    -0.281 N 
ATOM      2  C   UNL     1      -4.219  -1.536   1.384  0.00  0.00    +0.160 C 
ATOM      3  C   UNL     1      -5.420  -1.786   0.501  0.00  0.00    +0.043 C 
ATOM      4  C   UNL     1      -5.215  -1.080  -0.629  0.00  0.00    +0.058 C 
ATOM      5  C   UNL     1      -3.989  -0.387  -0.558  0.00  0.00    +0.247 C 
ATOM      6  O   UNL     1      -3.553   0.332  -1.438  0.00  0.00    -0.270 OA
ATOM      7  C   UNL     1      -6.278  -1.149  -1.706  0.00  0.00    +0.142 C 
ATOM      8  N   UNL     1      -7.456  -1.988  -1.428  0.00  0.00    -0.288 N 
ATOM      9  C   UNL     1      -7.518  -2.636  -0.248  0.00  0.00    +0.307 C 
ATOM     10  O   UNL     1      -8.486  -3.331  -0.009  0.00  0.00    -0.252 OA
ATOM     11  N   UNL     1      -6.548  -2.539   0.670  0.00  0.00    -0.253 N 
ATOM     12  H   UNL     1      -8.171  -2.072  -2.078  0.00  0.00    +0.151 HD
ENDROOT
BRANCH   7  13
ATOM     13  C   UNL     1      -5.631  -1.662  -2.966  0.00  0.00    -0.019 A 
ATOM     14  C   UNL     1      -5.410  -3.018  -3.127  0.00  0.00    +0.006 A 
ATOM     15  C   UNL     1      -4.816  -3.492  -4.282  0.00  0.00    +0.004 A 
ATOM     16  C   UNL     1      -4.441  -2.612  -5.279  0.00  0.00    +0.046 A 
ATOM     17  C   UNL     1      -4.662  -1.252  -5.121  0.00  0.00    +0.129 A 
ATOM     18  C   UNL     1      -5.263  -0.779  -3.963  0.00  0.00    +0.052 A 
BRANCH  17  19
ATOM     19  O   UNL     1      -4.295  -0.385  -6.100  0.00  0.00    -0.456 OA
BRANCH  19  20
ATOM     20  C   UNL     1      -4.524   0.940  -5.898  0.00  0.00    +0.128 A 
ATOM     21  C   UNL     1      -3.558   1.728  -5.290  0.00  0.00    +0.046 A 
ATOM     22  C   UNL     1      -3.793   3.074  -5.087  0.00  0.00    +0.004 A 
ATOM     23  C   UNL     1      -4.992   3.635  -5.488  0.00  0.00    +0.000 A 
ATOM     24  C   UNL     1      -5.957   2.852  -6.093  0.00  0.00    +0.004 A 
ATOM     25  C   UNL     1      -5.723   1.507  -6.305  0.00  0.00    +0.046 A 
ENDBRANCH  19  20
ENDBRANCH  17  19
ENDBRANCH   7  13
BRANCH   1  27
ATOM     26  C   UNL     1      -2.147   1.445   1.063  0.00  0.00    +0.038 C 
ATOM     27  C   UNL     1      -2.068  -0.082   1.027  0.00  0.00    +0.159 C 
BRANCH  27  28
ATOM     28  C   UNL     1      -1.003  -0.508   0.050  0.00  0.00    +0.234 C 
ATOM     29  O   UNL     1      -1.295  -1.199  -0.903  0.00  0.00    -0.274 OA
ATOM     30  N   UNL     1       0.275  -0.120   0.235  0.00  0.00    -0.307 N 
ATOM     31  H   UNL     1       0.508   0.432   0.997  0.00  0.00    +0.149 HD
BRANCH  30  32
ATOM     32  C   UNL     1       1.311  -0.534  -0.715  0.00  0.00    +0.178 C 
BRANCH  32  33
ATOM     33  C   UNL     1       2.641   0.027  -0.283  0.00  0.00    +0.122 A 
ATOM     34  C   UNL     1       3.524  -0.579   0.531  0.00  0.00    +0.046 A 
ATOM     35  C   UNL     1       4.625   0.297   0.666  0.00  0.00    +0.041 A 
ATOM     36  C   UNL     1       4.349   1.387  -0.073  0.00  0.00    +0.195 A 
ATOM     37  O   UNL     1       3.149   1.215  -0.651  0.00  0.00    -0.466 OA
ENDBRANCH  32  33
ENDBRANCH  30  32
ENDBRANCH  27  28
ENDBRANCH   1  27
BRANCH  11  38
ATOM     38  C   UNL     1      -6.703  -3.280   1.924  0.00  0.00    +0.141 C 
BRANCH  38  39
ATOM     39  C   UNL     1      -7.416  -2.417   2.933  0.00  0.00    -0.015 C 
ATOM     40  C   UNL     1      -8.507  -2.852   3.513  0.00  0.00    +0.005 C 
ENDBRANCH  38  39
ENDBRANCH  11  38
TORSDOF 9
