REMARK  Name = ZINC29069152
REMARK  8 active torsions:
REMARK  status: ('A' for Active; 'I' for Inactive)
REMARK    1  A    between atoms: C_3  and  C_6
REMARK    2  A    between atoms: C_6  and  N_7
REMARK    3  A    between atoms: N_7  and  C_8
REMARK    4  A    between atoms: N_7  and  C_14
REMARK    5  A    between atoms: C_8  and  C_9
REMARK    6  A    between atoms: C_14  and  C_15
REMARK    7  A    between atoms: N_17  and  C_18
REMARK    8  A    between atoms: C_23  and  N_24
REMARK                            x       y       z     vdW  Elec       q    Type
REMARK                         _______ _______ _______ _____ _____    ______ ____
ROOT
ATOM      1  C   UNL     1       4.614  -0.184  -3.139  0.00  0.00    +0.201 C 
ATOM      2  O   UNL     1       3.650   0.285  -3.706  0.00  0.00    -0.278 OA
ATOM      3  N   UNL     1       5.614  -0.738  -3.853  0.00  0.00    -0.285 N 
ATOM      4  H   UNL     1       6.443  -1.245  -3.338  0.00  0.00    +0.155 HD
ENDROOT
BRANCH   3   5
ATOM      5  C   UNL     1       5.596  -0.668  -5.253  0.00  0.00    +0.066 A 
ATOM      6  C   UNL     1       5.081   0.456  -5.885  0.00  0.00    +0.052 A 
ATOM      7  C   UNL     1       5.066   0.520  -7.268  0.00  0.00    +0.078 A 
ATOM      8  C   UNL     1       5.566  -0.541  -8.021  0.00  0.00    +0.145 A 
ATOM      9  C   UNL     1       6.078  -1.659  -7.387  0.00  0.00    +0.082 A 
ATOM     10  C   UNL     1       6.098  -1.721  -6.006  0.00  0.00    +0.151 A 
ATOM     11  O   UNL     1       5.543  -0.465  -9.380  0.00  0.00    -0.481 OA
ATOM     12  C   UNL     1       4.452   0.252  -9.965  0.00  0.00    +0.325 C 
ATOM     13  C   UNL     1       4.259   1.560  -9.241  0.00  0.00    +0.255 C 
ATOM     14  O   UNL     1       3.841   2.530  -9.838  0.00  0.00    -0.272 OA
ATOM     15  N   UNL     1       4.552   1.647  -7.926  0.00  0.00    -0.280 N 
ATOM     16  H   UNL     1       4.393   2.583  -7.371  0.00  0.00    +0.155 HD
BRANCH  10  17
ATOM     17  N   UNL     1       6.653  -2.914  -5.329  0.00  0.00    +0.058 N 
ATOM     18  O   UNL     1       7.185  -3.794  -5.982  0.00  0.00    -0.126 OA
ATOM     19  O   UNL     1       6.577  -3.018  -4.117  0.00  0.00    -0.126 OA
ENDBRANCH  10  17
ENDBRANCH   3   5
BRANCH   1  20
ATOM     20  C   UNL     1       4.695  -0.146  -1.634  0.00  0.00    +0.020 C 
BRANCH  20  21
ATOM     21  N   UNL     1       3.550   0.604  -1.101  0.00  0.00    +0.393 N 
ATOM     22  H   UNL     1       3.405   1.493  -1.732  0.00  0.00    -0.080 HD
BRANCH  21  23
ATOM     23  C   UNL     1       3.813   1.062   0.270  0.00  0.00    -0.002 C 
BRANCH  23  26
ATOM     24  C   UNL     1       6.276   3.803   0.232  0.00  0.00    +0.041 A 
ATOM     25  C   UNL     1       4.942   3.336   0.204  0.00  0.00    +0.042 A 
ATOM     26  C   UNL     1       4.997   1.994   0.270  0.00  0.00    +0.089 A 
ATOM     27  O   UNL     1       6.287   1.625   0.343  0.00  0.00    -0.470 OA
ATOM     28  C   UNL     1       7.067   2.718   0.314  0.00  0.00    +0.195 A 
ENDBRANCH  23  26
ENDBRANCH  21  23
BRANCH  21  29
ATOM     29  C   UNL     1       2.321  -0.198  -1.162  0.00  0.00    -0.034 C 
BRANCH  29  30
ATOM     30  C   UNL     1       1.135   0.675  -0.841  0.00  0.00    -0.027 A 
ATOM     31  C   UNL     1       0.361   1.405  -1.681  0.00  0.00    +0.009 A 
ATOM     32  C   UNL     1      -0.683   2.144  -1.158  0.00  0.00    +0.008 A 
ATOM     33  C   UNL     1      -0.909   2.109   0.178  0.00  0.00    +0.045 A 
ATOM     34  S   UNL     1       0.386   1.017   0.742  0.00  0.00    -0.103 S 
ENDBRANCH  29  30
ENDBRANCH  21  29
ENDBRANCH  20  21
ENDBRANCH   1  20
TORSDOF 8
