REMARK  Name = ZINC20418875
REMARK  10 active torsions:
REMARK  status: ('A' for Active; 'I' for Inactive)
REMARK    1  A    between atoms: C_1  and  C_2
REMARK    2  A    between atoms: C_3  and  C_33
REMARK    3  A    between atoms: C_4  and  C_24
REMARK    4  A    between atoms: C_10  and  C_15
REMARK    5  A    between atoms: C_18  and  N_21
REMARK    6  A    between atoms: N_21  and  C_22
REMARK    7  A    between atoms: N_21  and  C_23
REMARK    8  A    between atoms: C_33  and  O_35
REMARK    9  A    between atoms: O_35  and  C_36
REMARK   10  A    between atoms: C_36  and  C_37
REMARK                            x       y       z     vdW  Elec       q    Type
REMARK                         _______ _______ _______ _____ _____    ______ ____
ROOT
ATOM      1  C   UNL     1      -3.612   0.875   2.562  0.00  0.00    +0.061 C 
ATOM      2  C   UNL     1      -2.994   0.478   1.246  0.00  0.00    +0.016 C 
ATOM      3  C   UNL     1      -1.931  -0.344   1.229  0.00  0.00    +0.065 C 
ATOM      4  C   UNL     1      -1.285  -0.755  -0.061  0.00  0.00    +0.092 C 
ATOM      5  C   UNL     1      -2.205  -0.505  -1.230  0.00  0.00    +0.024 C 
ATOM      6  C   UNL     1      -3.257   0.332  -1.112  0.00  0.00    +0.016 C 
ATOM      7  N   UNL     1      -3.518   0.957   0.078  0.00  0.00    -0.321 N 
ATOM      8  C   UNL     1      -4.170   0.603  -2.283  0.00  0.00    +0.059 C 
ATOM      9  C   UNL     1      -4.234  -0.635  -3.180  0.00  0.00    +0.032 C 
ATOM     10  C   UNL     1      -2.814  -0.972  -3.647  0.00  0.00    +0.088 C 
ATOM     11  C   UNL     1      -1.935  -1.165  -2.441  0.00  0.00    +0.162 C 
ATOM     12  O   UNL     1      -0.975  -1.907  -2.516  0.00  0.00    -0.292 OA
ATOM     13  H   UNL     1      -4.156   1.853   0.088  0.00  0.00    +0.152 HD
ENDROOT
BRANCH   4  14
ATOM     14  C   UNL     1      -0.016   0.034  -0.253  0.00  0.00    -0.032 A 
ATOM     15  C   UNL     1      -0.065   1.414  -0.322  0.00  0.00    +0.008 A 
ATOM     16  C   UNL     1       1.097   2.142  -0.498  0.00  0.00    +0.050 A 
ATOM     17  C   UNL     1       2.314   1.490  -0.606  0.00  0.00    +0.166 A 
ATOM     18  C   UNL     1       2.364   0.100  -0.536  0.00  0.00    +0.167 A 
ATOM     19  C   UNL     1       1.196  -0.624  -0.359  0.00  0.00    +0.054 A 
ATOM     20  O   UNL     1       3.663  -0.298  -0.667  0.00  0.00    -0.453 OA
ATOM     21  C   UNL     1       4.357   0.834  -1.226  0.00  0.00    +0.466 C 
ATOM     22  O   UNL     1       3.583   1.963  -0.781  0.00  0.00    -0.453 OA
ENDBRANCH   4  14
BRANCH   9  23
ATOM     23  C   UNL     1      -5.109  -0.350  -4.374  0.00  0.00    -0.043 A 
ATOM     24  C   UNL     1      -4.782   0.678  -5.239  0.00  0.00    +0.006 A 
ATOM     25  C   UNL     1      -5.579   0.939  -6.337  0.00  0.00    +0.023 A 
ATOM     26  C   UNL     1      -6.716   0.174  -6.565  0.00  0.00    +0.029 A 
ATOM     27  C   UNL     1      -7.045  -0.854  -5.690  0.00  0.00    +0.023 A 
ATOM     28  C   UNL     1      -6.241  -1.113  -4.598  0.00  0.00    +0.006 A 
BRANCH  26  29
ATOM     29  N   UNL     1      -7.527   0.439  -7.671  0.00  0.00    -0.336 N 
ATOM     30  C   UNL     1      -8.726  -0.368  -7.909  0.00  0.00    +0.129 C 
ATOM     31  C   UNL     1      -7.178   1.523  -8.592  0.00  0.00    +0.129 C 
ENDBRANCH  26  29
ENDBRANCH   9  23
BRANCH   3  32
ATOM     32  C   UNL     1      -1.411  -0.832   2.451  0.00  0.00    +0.338 C 
ATOM     33  O   UNL     1      -1.608  -1.987   2.779  0.00  0.00    -0.245 OA
BRANCH  32  34
ATOM     34  O   UNL     1      -0.696  -0.015   3.253  0.00  0.00    -0.459 OA
BRANCH  34  35
ATOM     35  C   UNL     1      -0.202  -0.574   4.472  0.00  0.00    +0.264 C 
BRANCH  35  36
ATOM     36  C   UNL     1       0.578   0.494   5.243  0.00  0.00    +0.156 C 
ATOM     37  C   UNL     1       1.009  -0.060   6.615  0.00  0.00    +0.037 C 
ATOM     38  C   UNL     1       2.552   0.060   6.605  0.00  0.00    +0.031 C 
ATOM     39  C   UNL     1       2.787   1.134   5.512  0.00  0.00    +0.160 C 
ATOM     40  O   UNL     1       1.775   0.838   4.526  0.00  0.00    -0.373 OA
ENDBRANCH  35  36
ENDBRANCH  34  35
ENDBRANCH  32  34
ENDBRANCH   3  32
TORSDOF 7
