REMARK  Name = ZINC03766540
REMARK  11 active torsions:
REMARK  status: ('A' for Active; 'I' for Inactive)
REMARK    1  A    between atoms: C_1  and  N_2
REMARK    2  A    between atoms: N_2  and  C_3
REMARK    3  A    between atoms: N_2  and  C_4
REMARK    4  A    between atoms: C_7  and  N_10
REMARK    5  A    between atoms: C_11  and  C_13
REMARK    6  A    between atoms: C_13  and  C_15
REMARK    7  A    between atoms: C_13  and  N_21
REMARK    8  A    between atoms: N_21  and  C_22
REMARK    9  A    between atoms: C_22  and  C_23
REMARK   10  A    between atoms: C_29  and  C_31
REMARK   11  A    between atoms: C_31  and  N_32
REMARK                            x       y       z     vdW  Elec       q    Type
REMARK                         _______ _______ _______ _____ _____    ______ ____
ROOT
ATOM      1  N   UNL     1      -3.432   1.367   1.432  0.00  0.00    -0.280 N 
ATOM      2  C   UNL     1      -2.866   1.829   0.300  0.00  0.00    +0.235 C 
ATOM      3  O   UNL     1      -2.447   2.966   0.251  0.00  0.00    -0.274 OA
ENDROOT
BRANCH   1   4
ATOM      4  C   UNL     1      -3.825   2.303   2.489  0.00  0.00    +0.193 C 
BRANCH   4   5
ATOM      5  C   UNL     1      -4.919   3.205   1.980  0.00  0.00    -0.018 A 
ATOM      6  C   UNL     1      -5.991   2.671   1.290  0.00  0.00    +0.006 A 
ATOM      7  C   UNL     1      -6.997   3.498   0.827  0.00  0.00    +0.000 A 
ATOM      8  C   UNL     1      -6.926   4.861   1.046  0.00  0.00    +0.000 A 
ATOM      9  C   UNL     1      -5.851   5.397   1.731  0.00  0.00    +0.000 A 
ATOM     10  C   UNL     1      -4.848   4.569   2.198  0.00  0.00    +0.006 A 
ENDBRANCH   4   5
BRANCH   4  12
ATOM     11  N   UNL     1      -5.023   2.161   4.649  0.00  0.00    -0.284 N 
ATOM     12  C   UNL     1      -4.325   1.531   3.683  0.00  0.00    +0.242 C 
ATOM     13  O   UNL     1      -4.100   0.343   3.775  0.00  0.00    -0.273 OA
ATOM     14  H   UNL     1      -5.187   3.115   4.584  0.00  0.00    +0.155 HD
BRANCH  11  18
ATOM     15  C   UNL     1      -6.475   0.010   7.913  0.00  0.00    +0.029 A 
ATOM     16  C   UNL     1      -5.736   1.168   8.118  0.00  0.00    +0.025 A 
ATOM     17  C   UNL     1      -5.255   1.880   7.037  0.00  0.00    +0.025 A 
ATOM     18  C   UNL     1      -5.511   1.438   5.746  0.00  0.00    +0.034 A 
ATOM     19  C   UNL     1      -6.254   0.284   5.541  0.00  0.00    +0.025 A 
ATOM     20  C   UNL     1      -6.730  -0.432   6.622  0.00  0.00    +0.025 A 
BRANCH  15  22
ATOM     21  C   UNL     1      -6.691  -0.247  10.371  0.00  0.00    +0.129 C 
ATOM     22  N   UNL     1      -6.961  -0.712   9.009  0.00  0.00    -0.336 N 
ATOM     23  C   UNL     1      -7.740  -1.934   8.793  0.00  0.00    +0.129 C 
ENDBRANCH  15  22
ENDBRANCH  11  18
ENDBRANCH   4  12
ENDBRANCH   1   4
BRANCH   1  24
ATOM     24  C   UNL     1      -3.655  -0.070   1.607  0.00  0.00    +0.144 C 
BRANCH  24  25
ATOM     25  C   UNL     1      -2.443  -0.692   2.251  0.00  0.00    -0.030 A 
ATOM     26  C   UNL     1      -1.178  -0.374   1.794  0.00  0.00    +0.005 A 
ATOM     27  C   UNL     1      -0.065  -0.940   2.388  0.00  0.00    +0.000 A 
ATOM     28  C   UNL     1      -0.219  -1.833   3.432  0.00  0.00    +0.000 A 
ATOM     29  C   UNL     1      -1.484  -2.156   3.885  0.00  0.00    +0.000 A 
ATOM     30  C   UNL     1      -2.596  -1.585   3.295  0.00  0.00    +0.005 A 
ENDBRANCH  24  25
ENDBRANCH   1  24
BRANCH   2  31
ATOM     31  C   UNL     1      -2.754   0.932  -0.906  0.00  0.00    +0.210 C 
BRANCH  31  32
ATOM     32  N   UNL     1      -2.254   1.706  -2.046  0.00  0.00    -0.255 N 
ATOM     33  C   UNL     1      -0.905   1.857  -2.360  0.00  0.00    +0.048 A 
ATOM     34  C   UNL     1       0.240   1.368  -1.746  0.00  0.00    +0.024 A 
ATOM     35  C   UNL     1       1.487   1.662  -2.267  0.00  0.00    +0.002 A 
ATOM     36  C   UNL     1       1.613   2.444  -3.402  0.00  0.00    +0.001 A 
ATOM     37  C   UNL     1       0.487   2.941  -4.028  0.00  0.00    +0.014 A 
ATOM     38  C   UNL     1      -0.775   2.651  -3.511  0.00  0.00    +0.048 A 
ATOM     39  C   UNL     1      -2.142   3.015  -3.928  0.00  0.00    +0.250 C 
ATOM     40  O   UNL     1      -2.470   3.694  -4.879  0.00  0.00    -0.282 OA
ATOM     41  C   UNL     1      -3.038   2.362  -2.918  0.00  0.00    +0.292 C 
ATOM     42  O   UNL     1      -4.250   2.413  -2.896  0.00  0.00    -0.266 OA
ENDBRANCH  31  32
ENDBRANCH   2  31
TORSDOF 9
