REMARK  Name = ZINC07644043
REMARK  10 active torsions:
REMARK  status: ('A' for Active; 'I' for Inactive)
REMARK    1  A    between atoms: C_1  and  C_2
REMARK    2  A    between atoms: C_5  and  C_9
REMARK    3  A    between atoms: C_6  and  C_8
REMARK    4  A    between atoms: C_11  and  C_14
REMARK    5  A    between atoms: C_17  and  C_20
REMARK    6  A    between atoms: C_20  and  C_21
REMARK    7  A    between atoms: C_21  and  C_22
REMARK    8  A    between atoms: C_22  and  C_24
REMARK    9  A    between atoms: C_22  and  N_25
REMARK   10  A    between atoms: C_26  and  C_28
REMARK                            x       y       z     vdW  Elec       q    Type
REMARK                         _______ _______ _______ _____ _____    ______ ____
ROOT
ATOM      1  C   UNL     1      -4.969  -0.789  -3.649  0.00  0.00    +0.001 A 
ATOM      2  C   UNL     1      -5.142   0.361  -2.882  0.00  0.00    +0.010 A 
ATOM      3  C   UNL     1      -4.063   0.922  -2.230  0.00  0.00    +0.004 A 
ATOM      4  C   UNL     1      -2.811   0.344  -2.336  0.00  0.00    -0.047 A 
ATOM      5  C   UNL     1      -2.632  -0.795  -3.101  0.00  0.00    +0.004 A 
ATOM      6  C   UNL     1      -3.705  -1.367  -3.753  0.00  0.00    +0.010 A 
ENDROOT
BRANCH   1   9
ATOM      7  C   UNL     1      -8.368  -1.375  -4.879  0.00  0.00    +0.109 A 
ATOM      8  N   UNL     1      -7.323  -0.851  -4.259  0.00  0.00    -0.239 NA
ATOM      9  C   UNL     1      -6.125  -1.396  -4.354  0.00  0.00    +0.079 A 
ATOM     10  C   UNL     1      -5.957  -2.525  -5.113  0.00  0.00    +0.075 A 
ATOM     11  S   UNL     1      -7.629  -2.785  -5.692  0.00  0.00    -0.075 S 
BRANCH   7  16
ATOM     12  C   UNL     1     -13.839   0.410  -4.939  0.00  0.00    +0.044 C 
ATOM     13  C   UNL     1     -12.406  -0.058  -4.923  0.00  0.00    -0.050 A 
ATOM     14  C   UNL     1     -11.784  -0.410  -6.107  0.00  0.00    +0.004 A 
ATOM     15  C   UNL     1     -10.471  -0.834  -6.101  0.00  0.00    +0.011 A 
ATOM     16  C   UNL     1      -9.774  -0.916  -4.894  0.00  0.00    +0.010 A 
ATOM     17  C   UNL     1     -10.407  -0.559  -3.703  0.00  0.00    -0.041 A 
ATOM     18  C   UNL     1     -11.719  -0.132  -3.725  0.00  0.00    +0.007 A 
ATOM     19  C   UNL     1      -9.660  -0.639  -2.397  0.00  0.00    +0.044 C 
ENDBRANCH   7  16
ENDBRANCH   1   9
BRANCH   4  20
ATOM     20  C   UNL     1      -1.636   0.961  -1.622  0.00  0.00    +0.037 C 
BRANCH  20  21
ATOM     21  C   UNL     1      -1.515   0.356  -0.222  0.00  0.00    +0.026 C 
BRANCH  21  22
ATOM     22  C   UNL     1      -0.322   0.983   0.503  0.00  0.00    +0.070 C 
ATOM     23  C   UNL     1      -0.125   0.291   1.853  0.00  0.00    +0.028 C 
BRANCH  22  24
ATOM     24  N   UNL     1      -0.576   2.409   0.718  0.00  0.00    -0.313 N 
ATOM     25  C   UNL     1       0.457   3.264   0.859  0.00  0.00    +0.210 C 
ATOM     26  O   UNL     1       1.596   2.851   0.808  0.00  0.00    -0.276 OA
ATOM     27  C   UNL     1       0.196   4.731   1.080  0.00  0.00    +0.109 C 
ATOM     28  H   UNL     1      -1.487   2.740   0.754  0.00  0.00    +0.149 HD
ENDBRANCH  22  24
ENDBRANCH  21  22
ENDBRANCH  20  21
ENDBRANCH   4  20
TORSDOF 6
