REMARK  Name = ZINC44747552
REMARK  5 active torsions:
REMARK  status: ('A' for Active; 'I' for Inactive)
REMARK    1  A    between atoms: C_1  and  C_2
REMARK    2  A    between atoms: C_2  and  C_4
REMARK    3  A    between atoms: C_2  and  N_11
REMARK    4  A    between atoms: N_11  and  C_12
REMARK    5  A    between atoms: C_21  and  O_23
REMARK                            x       y       z     vdW  Elec       q    Type
REMARK                         _______ _______ _______ _____ _____    ______ ____
ROOT
ATOM      1  N   UNL     1       0.733  -0.481   1.073  0.00  0.00    +0.388 N 
ATOM      2  H   UNL     1       1.682  -0.139   1.059  0.00  0.00    -0.084 HD
ATOM      3  H   UNL     1       0.240  -0.138   0.263  0.00  0.00    -0.084 HD
ENDROOT
BRANCH   1   4
ATOM      4  C   UNL     1       0.061  -0.009   2.291  0.00  0.00    -0.040 C 
ATOM      5  C   UNL     1       0.871  -0.440   3.513  0.00  0.00    -0.011 C 
ATOM      6  C   UNL     1       0.278   0.242   4.751  0.00  0.00    +0.003 C 
ATOM      7  C   UNL     1       0.587   1.736   4.673  0.00  0.00    +0.035 C 
ATOM      8  C   UNL     1       0.175   2.293   3.335  0.00  0.00    -0.042 A 
ATOM      9  C   UNL     1      -0.062   1.492   2.241  0.00  0.00    -0.058 A 
ATOM     10  C   UNL     1      -0.433   2.068   1.032  0.00  0.00    +0.006 A 
ATOM     11  C   UNL     1      -0.569   3.436   0.919  0.00  0.00    +0.045 A 
ATOM     12  C   UNL     1      -0.334   4.244   2.022  0.00  0.00    +0.117 A 
ATOM     13  C   UNL     1       0.036   3.669   3.225  0.00  0.00    +0.049 A 
BRANCH  12  14
ATOM     14  O   UNL     1      -0.467   5.592   1.921  0.00  0.00    -0.507 OA
ATOM     15  H   UNL     1      -1.356   5.916   2.123  0.00  0.00    +0.292 HD
ENDBRANCH  12  14
ENDBRANCH   1   4
BRANCH   1  17
ATOM     16  C   UNL     1      -0.693  -2.467   0.925  0.00  0.00    -0.009 C 
ATOM     17  C   UNL     1       0.741  -1.950   1.057  0.00  0.00    -0.043 C 
BRANCH  17  18
ATOM     18  C   UNL     1       1.559  -2.435  -0.112  0.00  0.00    -0.062 A 
ATOM     19  C   UNL     1       1.479  -1.783  -1.329  0.00  0.00    +0.003 A 
ATOM     20  C   UNL     1       2.229  -2.227  -2.402  0.00  0.00    +0.015 A 
ATOM     21  C   UNL     1       3.061  -3.323  -2.257  0.00  0.00    +0.018 A 
ATOM     22  C   UNL     1       3.141  -3.974  -1.040  0.00  0.00    +0.015 A 
ATOM     23  C   UNL     1       2.394  -3.527   0.034  0.00  0.00    +0.003 A 
ATOM     24 BR   UNL     1       4.088  -3.931  -3.724  0.00  0.00    -0.050 Br
ENDBRANCH  17  18
ENDBRANCH   1  17
TORSDOF 4
