REMARK  Name = ZINC06077582
REMARK  12 active torsions:
REMARK  status: ('A' for Active; 'I' for Inactive)
REMARK    1  A    between atoms: C_1  and  C_2
REMARK    2  A    between atoms: C_2  and  C_3
REMARK    3  A    between atoms: C_3  and  C_4
REMARK    4  A    between atoms: C_3  and  C_5
REMARK    5  A    between atoms: C_3  and  N_6
REMARK    6  A    between atoms: C_7  and  C_11
REMARK    7  A    between atoms: C_11  and  C_13
REMARK    8  A    between atoms: C_11  and  N_72
REMARK    9  A    between atoms: C_17  and  O_25
REMARK   10  A    between atoms: O_25  and  C_26
REMARK   11  A    between atoms: C_26  and  C_27
REMARK   12  A    between atoms: N_30  and  C_33
REMARK                            x       y       z     vdW  Elec       q    Type
REMARK                         _______ _______ _______ _____ _____    ______ ____
ROOT
ATOM      1  C   UNL     1       3.620   0.560   0.325  0.00  0.00    +0.039 C 
ENDROOT
BRANCH   1   2
ATOM      2  C   UNL     1       3.851   0.391   1.804  0.00  0.00    +0.011 A 
ATOM      3  C   UNL     1       4.379   1.411   2.526  0.00  0.00    +0.017 A 
ATOM      4  C   UNL     1       4.586   1.217   3.962  0.00  0.00    +0.002 A 
ATOM      5  C   UNL     1       5.123   2.235   4.758  0.00  0.00    +0.055 A 
ATOM      6  C   UNL     1       5.310   2.017   6.108  0.00  0.00    +0.121 A 
ATOM      7  C   UNL     1       4.967   0.793   6.677  0.00  0.00    +0.047 A 
ATOM      8  C   UNL     1       4.438  -0.217   5.904  0.00  0.00    +0.030 A 
ATOM      9  C   UNL     1       4.241  -0.018   4.542  0.00  0.00    +0.049 A 
ATOM     10  N   UNL     1       3.712  -1.018   3.750  0.00  0.00    -0.322 N 
ATOM     11  H   UNL     1       3.468  -1.895   4.162  0.00  0.00    +0.169 HD
ATOM     12  C   UNL     1       3.522  -0.829   2.433  0.00  0.00    +0.251 A 
ATOM     13  O   UNL     1       3.052  -1.733   1.765  0.00  0.00    -0.268 OA
BRANCH   6  14
ATOM     14  O   UNL     1       5.831   3.003   6.886  0.00  0.00    -0.492 OA
BRANCH  14  15
ATOM     15  C   UNL     1       5.999   2.712   8.275  0.00  0.00    +0.225 C 
ATOM     16  C   UNL     1       6.594   3.931   8.983  0.00  0.00    +0.048 C 
ENDBRANCH  14  15
ENDBRANCH   6  14
ENDBRANCH   1   2
BRANCH   1  22
ATOM     17  C   UNL     1       5.741  -0.547  -0.052  0.00  0.00    -0.058 C 
ATOM     18  C   UNL     1       6.411  -1.722  -0.769  0.00  0.00    +0.086 C 
ATOM     19  N   UNL     1       6.233  -1.572  -2.220  0.00  0.00    -0.333 N 
ATOM     20  C   UNL     1       4.807  -1.535  -2.572  0.00  0.00    +0.086 C 
ATOM     21  C   UNL     1       4.138  -0.360  -1.855  0.00  0.00    -0.058 C 
ATOM     22  N   UNL     1       4.304  -0.535  -0.397  0.00  0.00    +0.391 N 
ATOM     23  H   UNL     1       3.886  -1.430  -0.118  0.00  0.00    -0.080 HD
BRANCH  19  24
ATOM     24  C   UNL     1       6.894  -2.589  -2.913  0.00  0.00    +0.030 A 
ATOM     25  C   UNL     1       6.191  -3.403  -3.791  0.00  0.00    +0.023 A 
ATOM     26  C   UNL     1       6.848  -4.405  -4.478  0.00  0.00    +0.002 A 
ATOM     27  C   UNL     1       8.202  -4.605  -4.285  0.00  0.00    +0.000 A 
ATOM     28  C   UNL     1       8.904  -3.799  -3.407  0.00  0.00    +0.002 A 
ATOM     29  C   UNL     1       8.255  -2.792  -2.721  0.00  0.00    +0.023 A 
ENDBRANCH  19  24
ENDBRANCH   1  22
BRANCH   1  31
ATOM     30  N   UNL     1       1.355   1.497  -0.379  0.00  0.00    -0.225 N 
ATOM     31  C   UNL     1       2.143   0.488   0.035  0.00  0.00    +0.143 A 
ATOM     32  N   UNL     1       1.376  -0.570   0.137  0.00  0.00    -0.115 NA
ATOM     33  N   UNL     1       0.180  -0.228  -0.198  0.00  0.00    -0.023 NA
ATOM     34  N   UNL     1       0.164   1.020  -0.510  0.00  0.00    -0.043 NA
BRANCH  30  35
ATOM     35  C   UNL     1       1.773   2.878  -0.634  0.00  0.00    +0.061 C 
ATOM     36  C   UNL     1       2.429   3.453   0.622  0.00  0.00    +0.036 C 
ATOM     37  C   UNL     1       2.775   2.903  -1.790  0.00  0.00    +0.036 C 
BRANCH  35  39
ATOM     38  C   UNL     1       0.986   5.163  -1.268  0.00  0.00    +0.006 C 
ATOM     39  C   UNL     1       0.550   3.721  -1.002  0.00  0.00    +0.026 C 
ENDBRANCH  35  39
ENDBRANCH  30  35
ENDBRANCH   1  31
TORSDOF 8
