REMARK  Name = ZINC40244912
REMARK  3 active torsions:
REMARK  status: ('A' for Active; 'I' for Inactive)
REMARK    1  A    between atoms: C_6  and  C_7
REMARK    2  A    between atoms: C_7  and  C_9
REMARK    3  A    between atoms: C_7  and  O_17
REMARK                            x       y       z     vdW  Elec       q    Type
REMARK                         _______ _______ _______ _____ _____    ______ ____
ROOT
ATOM      1  C   UNL     1      -0.017   1.378   0.010  0.00  0.00    +0.010 A 
ATOM      2  C   UNL     1       1.170   2.091   0.002  0.00  0.00    +0.050 A 
ATOM      3  C   UNL     1       2.377   1.413  -0.013  0.00  0.00    +0.162 A 
ATOM      4  C   UNL     1       2.396   0.025  -0.020  0.00  0.00    +0.162 A 
ATOM      5  C   UNL     1       1.207  -0.684  -0.013  0.00  0.00    +0.056 A 
ATOM      6  C   UNL     1       0.002  -0.004   0.002  0.00  0.00    -0.011 A 
ATOM      7  O   UNL     1       3.591  -0.632  -0.034  0.00  0.00    -0.488 OA
ATOM      8  C   UNL     1       4.358  -0.510  -1.234  0.00  0.00    +0.232 C 
ATOM      9  C   UNL     1       5.186   0.764  -1.217  0.00  0.00    +0.082 C 
ATOM     10  C   UNL     1       4.323   2.016  -1.220  0.00  0.00    +0.232 C 
ATOM     11  O   UNL     1       3.554   2.104  -0.019  0.00  0.00    -0.488 OA
ENDROOT
BRANCH   6  12
ATOM     12  C   UNL     1      -1.294  -0.773   0.010  0.00  0.00    +0.176 C 
BRANCH  12  13
ATOM     13  C   UNL     1      -1.839  -0.824   1.414  0.00  0.00    +0.004 A 
ATOM     14  C   UNL     1      -2.776   0.105   1.827  0.00  0.00    +0.009 A 
ATOM     15  C   UNL     1      -3.276   0.058   3.114  0.00  0.00    +0.020 A 
ATOM     16  C   UNL     1      -2.839  -0.919   3.991  0.00  0.00    +0.042 A 
ATOM     17  C   UNL     1      -1.902  -1.849   3.579  0.00  0.00    +0.040 A 
ATOM     18  C   UNL     1      -1.405  -1.805   2.289  0.00  0.00    +0.048 A 
ATOM     19 CL   UNL     1      -0.234  -2.975   1.769  0.00  0.00    -0.083 Cl
ATOM     20 CL   UNL     1      -3.466  -0.977   5.609  0.00  0.00    -0.083 Cl
ENDBRANCH  12  13
BRANCH  12  21
ATOM     21  O   UNL     1      -2.238  -0.123  -0.843  0.00  0.00    -0.382 OA
ATOM     22  H   UNL     1      -2.444   0.785  -0.584  0.00  0.00    +0.211 HD
ENDBRANCH  12  21
ENDBRANCH   6  12
TORSDOF 3
