REMARK  Name = ZINC34954638
REMARK  11 active torsions:
REMARK  status: ('A' for Active; 'I' for Inactive)
REMARK    1  A    between atoms: C_1  and  C_2
REMARK    2  A    between atoms: C_2  and  C_3
REMARK    3  A    between atoms: C_2  and  C_4
REMARK    4  A    between atoms: C_9  and  C_24
REMARK    5  A    between atoms: C_14  and  C_22
REMARK    6  A    between atoms: C_15  and  N_21
REMARK    7  A    between atoms: C_16  and  C_17
REMARK    8  A    between atoms: C_16  and  C_19
REMARK    9  A    between atoms: C_24  and  C_25
REMARK   10  A    between atoms: C_24  and  C_26
REMARK   11  A    between atoms: C_24  and  C_27
REMARK                            x       y       z     vdW  Elec       q    Type
REMARK                         _______ _______ _______ _____ _____    ______ ____
ROOT
ATOM      1  C   UNL     1       1.195  -1.091   2.079  0.00  0.00    +0.039 C 
ATOM      2  C   UNL     1       0.257  -0.474   3.118  0.00  0.00    +0.026 C 
ATOM      3  C   UNL     1      -0.372   0.806   2.619  0.00  0.00    +0.013 C 
ATOM      4  C   UNL     1       0.350   2.041   3.154  0.00  0.00    -0.001 C 
ATOM      5  C   UNL     1       0.300   2.004   4.688  0.00  0.00    +0.031 C 
ATOM      6  C   UNL     1       1.018   0.759   5.141  0.00  0.00    -0.021 C 
ATOM      7  C   UNL     1       1.014  -0.316   4.403  0.00  0.00    -0.029 C 
ATOM      8  C   UNL     1       1.842  -1.470   4.842  0.00  0.00    +0.074 C 
ATOM      9  C   UNL     1       2.117  -2.464   3.961  0.00  0.00    +0.054 C 
ATOM     10  C   UNL     1       1.611  -2.485   2.549  0.00  0.00    +0.184 C 
ENDROOT
BRANCH   4  11
ATOM     11  C   UNL     1       1.806   2.031   2.684  0.00  0.00    -0.035 C 
ATOM     12  C   UNL     1       1.866   1.598   1.218  0.00  0.00    +0.011 C 
ATOM     13  C   UNL     1       2.398   3.434   2.827  0.00  0.00    +0.011 C 
ATOM     14  C   UNL     1       2.610   1.049   3.539  0.00  0.00    +0.011 C 
ENDBRANCH   4  11
BRANCH   1  16
ATOM     15  C   UNL     1       1.172  -2.241  -0.139  0.00  0.00    +0.007 C 
ATOM     16  C   UNL     1       0.472  -1.198   0.735  0.00  0.00    -0.011 C 
ATOM     17  C   UNL     1      -0.980  -1.619   0.969  0.00  0.00    +0.007 C 
ENDBRANCH   1  16
BRANCH   9  18
ATOM     18  N   UNL     1       2.899  -3.503   4.381  0.00  0.00    -0.358 N 
ATOM     19  H   UNL     1       3.242  -3.515   5.288  0.00  0.00    +0.142 HD
ATOM     20  H   UNL     1       3.112  -4.227   3.772  0.00  0.00    +0.142 HD
ENDBRANCH   9  18
BRANCH  10  21
ATOM     21  C   UNL     1       2.671  -2.994   1.664  0.00  0.00    +0.091 C 
ATOM     22  N   UNL     1       3.489  -3.387   0.980  0.00  0.00    -0.195 NA
ENDBRANCH  10  21
BRANCH  10  23
ATOM     23  C   UNL     1       0.449  -3.385   2.471  0.00  0.00    +0.091 C 
ATOM     24  N   UNL     1      -0.449  -4.079   2.410  0.00  0.00    -0.195 NA
ENDBRANCH  10  23
BRANCH   8  25
ATOM     25  C   UNL     1       2.345  -1.531   6.181  0.00  0.00    +0.101 C 
ATOM     26  N   UNL     1       2.744  -1.579   7.243  0.00  0.00    -0.191 NA
ENDBRANCH   8  25
TORSDOF 6
