REMARK  Name = ZINC39670413
REMARK  6 active torsions:
REMARK  status: ('A' for Active; 'I' for Inactive)
REMARK    1  A    between atoms: C_1  and  C_2
REMARK    2  A    between atoms: C_7  and  C_11
REMARK    3  A    between atoms: C_11  and  N_12
REMARK    4  A    between atoms: C_13  and  C_15
REMARK    5  A    between atoms: C_26  and  C_28
REMARK    6  A    between atoms: C_31  and  C_34
REMARK                            x       y       z     vdW  Elec       q    Type
REMARK                         _______ _______ _______ _____ _____    ______ ____
ROOT
ATOM      1  C   UNL     1       3.847  -7.610   3.169  0.00  0.00    +0.100 C 
ATOM      2  C   UNL     1       4.380  -6.435   4.020  0.00  0.00    +0.121 C 
ATOM      3  N   UNL     1       4.284  -6.913   5.419  0.00  0.00    -0.296 N 
ATOM      4  C   UNL     1       4.686  -8.338   5.351  0.00  0.00    +0.115 C 
ATOM      5  C   UNL     1       4.053  -8.857   4.044  0.00  0.00    -0.004 C 
ATOM      6  C   UNL     1       2.712  -9.524   4.338  0.00  0.00    -0.010 C 
ATOM      7  C   UNL     1       2.948 -10.793   5.162  0.00  0.00    -0.082 C 
ATOM      8  N   UNL     1       3.820 -11.708   4.415  0.00  0.00    +0.379 N 
ATOM      9  C   UNL     1       5.138 -11.095   4.218  0.00  0.00    -0.082 C 
ATOM     10  C   UNL     1       4.995  -9.838   3.354  0.00  0.00    -0.010 C 
ATOM     11  C   UNL     1       3.915  -6.210   6.508  0.00  0.00    +0.247 C 
ATOM     12  O   UNL     1       3.490  -5.078   6.386  0.00  0.00    -0.270 OA
ATOM     13  H   UNL     1       3.924 -12.568   4.933  0.00  0.00    -0.086 HD
ATOM     14  H   UNL     1       3.405 -11.908   3.518  0.00  0.00    -0.086 HD
ENDROOT
BRANCH  11  15
ATOM     15  C   UNL     1       4.027  -6.817   7.852  0.00  0.00    +0.037 A 
ATOM     16  C   UNL     1       4.885  -7.897   8.065  0.00  0.00    +0.013 A 
ATOM     17  C   UNL     1       4.986  -8.457   9.321  0.00  0.00    +0.013 A 
ATOM     18  C   UNL     1       4.237  -7.952  10.369  0.00  0.00    +0.055 A 
ATOM     19  C   UNL     1       3.384  -6.882  10.165  0.00  0.00    +0.013 A 
ATOM     20  C   UNL     1       3.279  -6.308   8.915  0.00  0.00    +0.013 A 
BRANCH  18  21
ATOM     21  C   UNL     1       4.351  -8.570  11.739  0.00  0.00    +0.417 C 
ATOM     22  F   UNL     1       5.364  -7.926  12.458  0.00  0.00    -0.166 F 
ATOM     23  F   UNL     1       3.136  -8.429  12.417  0.00  0.00    -0.166 F 
ATOM     24  F   UNL     1       4.660  -9.929  11.613  0.00  0.00    -0.166 F 
ENDBRANCH  18  21
ENDBRANCH  11  15
BRANCH   1  26
ATOM     25  N   UNL     1       1.832  -8.016   1.793  0.00  0.00    -0.309 N 
ATOM     26  C   UNL     1       2.383  -7.417   2.867  0.00  0.00    +0.219 C 
ATOM     27  O   UNL     1       1.701  -6.722   3.590  0.00  0.00    -0.275 OA
ATOM     28  H   UNL     1       2.377  -8.572   1.214  0.00  0.00    +0.149 HD
BRANCH  25  29
ATOM     29  C   UNL     1       0.409  -7.828   1.499  0.00  0.00    +0.159 C 
BRANCH  29  36
ATOM     30  C   UNL     1      -1.146 -10.398  -5.253  0.00  0.00    +0.045 C 
ATOM     31  C   UNL     1      -0.934 -10.344  -3.763  0.00  0.00    -0.034 A 
ATOM     32  C   UNL     1      -1.127 -11.498  -2.986  0.00  0.00    +0.008 A 
ATOM     33  C   UNL     1      -0.935 -11.445  -1.641  0.00  0.00    +0.045 A 
ATOM     34  C   UNL     1      -0.544 -10.229  -1.046  0.00  0.00    +0.115 A 
ATOM     35  N   UNL     1      -0.290  -9.890   0.210  0.00  0.00    -0.342 N 
ATOM     36  C   UNL     1       0.047  -8.598   0.256  0.00  0.00    +0.051 A 
ATOM     37  C   UNL     1       0.009  -8.098  -0.999  0.00  0.00    +0.115 A 
ATOM     38  N   UNL     1      -0.363  -9.119  -1.830  0.00  0.00    -0.308 N 
ATOM     39  C   UNL     1      -0.555  -9.187  -3.180  0.00  0.00    +0.096 A 
ATOM     40  H   UNL     1      -0.342 -10.485   0.974  0.00  0.00    +0.167 HD
ENDBRANCH  29  36
ENDBRANCH  25  29
ENDBRANCH   1  26
TORSDOF 5
