REMARK  Name = ZINC41514280
REMARK  11 active torsions:
REMARK  status: ('A' for Active; 'I' for Inactive)
REMARK    1  A    between atoms: C_1  and  C_2
REMARK    2  A    between atoms: C_4  and  O_33
REMARK    3  A    between atoms: C_5  and  C_25
REMARK    4  A    between atoms: C_11  and  C_12
REMARK    5  A    between atoms: C_14  and  O_22
REMARK    6  A    between atoms: C_15  and  O_20
REMARK    7  A    between atoms: C_17  and  O_18
REMARK    8  A    between atoms: O_18  and  C_19
REMARK    9  A    between atoms: O_20  and  C_21
REMARK   10  A    between atoms: O_22  and  C_23
REMARK   11  A    between atoms: C_25  and  N_26
REMARK                            x       y       z     vdW  Elec       q    Type
REMARK                         _______ _______ _______ _____ _____    ______ ____
ROOT
ATOM      1  C   UNL     1      -1.023   1.482   0.926  0.00  0.00    +0.045 C 
ATOM      2  C   UNL     1      -1.118  -0.016   0.789  0.00  0.00    -0.033 A 
ATOM      3  C   UNL     1      -1.440  -0.574  -0.416  0.00  0.00    +0.050 A 
ATOM      4  C   UNL     1      -1.529  -1.957  -0.545  0.00  0.00    +0.122 A 
ATOM      5  C   UNL     1      -1.293  -2.783   0.542  0.00  0.00    +0.020 A 
ATOM      6  C   UNL     1      -0.964  -2.232   1.774  0.00  0.00    +0.145 A 
ATOM      7  C   UNL     1      -0.872  -0.836   1.890  0.00  0.00    +0.071 A 
ATOM      8  C   UNL     1      -0.507  -0.559   3.292  0.00  0.00    +0.232 C 
ATOM      9  O   UNL     1      -0.331   0.528   3.816  0.00  0.00    -0.283 OA
ATOM     10  C   UNL     1      -0.403  -1.884   3.914  0.00  0.00    +0.176 C 
ATOM     11  C   UNL     1      -0.085  -2.139   5.212  0.00  0.00    +0.062 C 
ATOM     12  O   UNL     1      -0.691  -2.806   2.965  0.00  0.00    -0.451 OA
ENDROOT
BRANCH  11  13
ATOM     13  C   UNL     1      -0.020  -3.522   5.692  0.00  0.00    +0.024 A 
ATOM     14  C   UNL     1      -0.607  -4.554   4.947  0.00  0.00    +0.061 A 
ATOM     15  C   UNL     1      -0.542  -5.853   5.404  0.00  0.00    +0.162 A 
ATOM     16  C   UNL     1       0.106  -6.143   6.606  0.00  0.00    +0.165 A 
ATOM     17  C   UNL     1       0.689  -5.127   7.349  0.00  0.00    +0.095 A 
ATOM     18  C   UNL     1       0.637  -3.820   6.898  0.00  0.00    +0.131 A 
BRANCH  18  19
ATOM     19  O   UNL     1       1.214  -2.827   7.623  0.00  0.00    -0.494 OA
ATOM     20  C   UNL     1       1.864  -3.204   8.838  0.00  0.00    +0.277 C 
ENDBRANCH  18  19
BRANCH  16  21
ATOM     21  O   UNL     1       0.165  -7.425   7.051  0.00  0.00    -0.491 OA
ATOM     22  C   UNL     1       0.843  -7.652   8.288  0.00  0.00    +0.277 C 
ENDBRANCH  16  21
BRANCH  15  23
ATOM     23  O   UNL     1      -1.112  -6.856   4.682  0.00  0.00    -0.491 OA
ATOM     24  C   UNL     1      -1.760  -6.489   3.462  0.00  0.00    +0.277 C 
ENDBRANCH  15  23
ENDBRANCH  11  13
BRANCH   4  25
ATOM     25  O   UNL     1      -1.850  -2.502  -1.747  0.00  0.00    -0.506 OA
ATOM     26  H   UNL     1      -1.097  -2.608  -2.344  0.00  0.00    +0.292 HD
ENDBRANCH   4  25
BRANCH   5  27
ATOM     27  C   UNL     1      -1.393  -4.279   0.388  0.00  0.00    -0.036 C 
BRANCH  27  28
ATOM     28  N   UNL     1      -0.057  -4.837   0.144  0.00  0.00    +0.383 N 
ATOM     29  C   UNL     1       0.458  -4.294  -1.129  0.00  0.00    -0.078 C 
ATOM     30  C   UNL     1       1.965  -4.349  -1.092  0.00  0.00    -0.019 C 
ATOM     31  C   UNL     1       2.499  -5.617  -1.785  0.00  0.00    -0.002 C 
ATOM     32  C   UNL     1       1.645  -6.856  -1.450  0.00  0.00    -0.002 C 
ATOM     33  C   UNL     1       1.239  -6.897   0.001  0.00  0.00    -0.019 C 
ATOM     34  C   UNL     1      -0.144  -6.230   0.156  0.00  0.00    -0.078 C 
ATOM     35  H   UNL     1       0.557  -4.544   0.890  0.00  0.00    -0.081 HD
ENDBRANCH  27  28
ENDBRANCH   5  27
TORSDOF 7
