REMARK  Name = ZINC42856886
REMARK  10 active torsions:
REMARK  status: ('A' for Active; 'I' for Inactive)
REMARK    1  A    between atoms: C_1  and  C_2
REMARK    2  A    between atoms: C_2  and  N_3
REMARK    3  A    between atoms: C_4  and  C_24
REMARK    4  A    between atoms: C_7  and  S_8
REMARK    5  A    between atoms: S_8  and  C_9
REMARK    6  A    between atoms: C_9  and  C_11
REMARK    7  A    between atoms: C_9  and  C_14
REMARK    8  A    between atoms: C_11  and  C_12
REMARK    9  A    between atoms: C_11  and  C_13
REMARK   10  A    between atoms: N_16  and  C_17
REMARK                            x       y       z     vdW  Elec       q    Type
REMARK                         _______ _______ _______ _____ _____    ______ ____
ROOT
ATOM      1  C   UNL     1      -3.145  -1.083  -3.795  0.00  0.00    +0.142 C 
ENDROOT
BRANCH   1   2
ATOM      2  C   UNL     1      -2.813  -1.224  -5.258  0.00  0.00    +0.227 C 
ATOM      3  O   UNL     1      -1.831  -0.676  -5.713  0.00  0.00    -0.275 OA
ATOM      4  N   UNL     1      -3.606  -1.960  -6.061  0.00  0.00    -0.312 N 
ATOM      5  H   UNL     1      -4.391  -2.400  -5.698  0.00  0.00    +0.149 HD
BRANCH   4   6
ATOM      6  C   UNL     1      -3.283  -2.098  -7.484  0.00  0.00    +0.073 C 
ATOM      7  C   UNL     1      -3.803  -0.856  -8.236  0.00  0.00    +0.022 C 
ATOM      8  C   UNL     1      -3.057  -0.738  -9.537  0.00  0.00    +0.002 C 
ATOM      9  C   UNL     1      -3.804  -1.405 -10.707  0.00  0.00    +0.000 C 
ATOM     10  C   UNL     1      -4.432  -2.759 -10.321  0.00  0.00    +0.000 C 
ATOM     11  C   UNL     1      -3.520  -3.592  -9.463  0.00  0.00    +0.002 C 
ATOM     12  C   UNL     1      -3.868  -3.334  -7.983  0.00  0.00    +0.022 C 
ENDBRANCH   4   6
ENDBRANCH   1   2
BRANCH   1  13
ATOM     13  C   UNL     1      -4.238  -0.027  -3.619  0.00  0.00    +0.005 C 
ATOM     14  C   UNL     1      -5.488  -0.454  -4.392  0.00  0.00    +0.009 C 
ATOM     15  C   UNL     1      -4.579   0.112  -2.135  0.00  0.00    +0.009 C 
ENDBRANCH   1  13
BRANCH   1  16
ATOM     16  S   UNL     1      -1.661  -0.575  -2.884  0.00  0.00    -0.073 S 
BRANCH  16  21
ATOM     17  N   UNL     1       0.691  -2.050  -2.534  0.00  0.00    -0.300 N 
ATOM     18  C   UNL     1       1.113  -3.328  -2.827  0.00  0.00    +0.200 A 
ATOM     19  N   UNL     1       0.111  -3.938  -3.421  0.00  0.00    -0.125 NA
ATOM     20  N   UNL     1      -0.892  -3.141  -3.517  0.00  0.00    -0.122 NA
ATOM     21  C   UNL     1      -0.597  -1.976  -2.987  0.00  0.00    +0.193 A 
BRANCH  18  22
ATOM     22  C   UNL     1       2.436  -3.902  -2.532  0.00  0.00    +0.172 A 
ATOM     23  C   UNL     1       2.759  -5.225  -2.563  0.00  0.00    +0.053 A 
ATOM     24  C   UNL     1       4.121  -5.318  -2.217  0.00  0.00    +0.042 A 
ATOM     25  C   UNL     1       4.559  -4.062  -1.994  0.00  0.00    +0.196 A 
ATOM     26  O   UNL     1       3.540  -3.209  -2.190  0.00  0.00    -0.460 OA
ENDBRANCH  18  22
BRANCH  17  28
ATOM     27  C   UNL     1       1.247  -1.085  -0.357  0.00  0.00    +0.027 C 
ATOM     28  C   UNL     1       1.458  -0.994  -1.870  0.00  0.00    +0.122 C 
ENDBRANCH  17  28
ENDBRANCH  16  21
ENDBRANCH   1  16
TORSDOF 7
