REMARK  Name = ZINC50306623
REMARK  11 active torsions:
REMARK  status: ('A' for Active; 'I' for Inactive)
REMARK    1  A    between atoms: C_1  and  C_2
REMARK    2  A    between atoms: C_3  and  N_19
REMARK    3  A    between atoms: C_4  and  C_8
REMARK    4  A    between atoms: N_10  and  C_11
REMARK    5  A    between atoms: C_11  and  C_12
REMARK    6  A    between atoms: C_11  and  C_13
REMARK    7  A    between atoms: C_11  and  C_14
REMARK    8  A    between atoms: C_14  and  C_15
REMARK    9  A    between atoms: C_15  and  C_16
REMARK   10  A    between atoms: C_15  and  C_17
REMARK   11  A    between atoms: C_15  and  C_18
REMARK                            x       y       z     vdW  Elec       q    Type
REMARK                         _______ _______ _______ _____ _____    ______ ____
ROOT
ATOM      1  C   UNL     1      -1.684  -4.994  -1.307  0.00  0.00    +0.266 C 
ATOM      2  O   UNL     1      -1.950  -4.978  -2.493  0.00  0.00    -0.268 OA
ATOM      3  N   UNL     1      -0.994  -6.028  -0.785  0.00  0.00    -0.305 N 
ATOM      4  H   UNL     1      -0.782  -6.042   0.161  0.00  0.00    +0.150 HD
ENDROOT
BRANCH   1   8
ATOM      5  C   UNL     1      -3.723  -0.675   0.404  0.00  0.00    +0.067 C 
ATOM      6  C   UNL     1      -3.010  -1.998   0.292  0.00  0.00    +0.054 A 
ATOM      7  C   UNL     1      -2.844  -2.733  -0.839  0.00  0.00    +0.078 A 
ATOM      8  C   UNL     1      -2.115  -3.883  -0.438  0.00  0.00    +0.168 A 
ATOM      9  N   UNL     1      -1.898  -3.771   0.859  0.00  0.00    -0.167 NA
ATOM     10  N   UNL     1      -2.406  -2.678   1.302  0.00  0.00    -0.279 N 
ATOM     11  H   UNL     1      -2.367  -2.382   2.225  0.00  0.00    +0.189 HD
BRANCH   7  12
ATOM     12  N   UNL     1      -3.296  -2.422  -2.130  0.00  0.00    -0.355 N 
ATOM     13  H   UNL     1      -3.788  -1.600  -2.286  0.00  0.00    +0.142 HD
ATOM     14  H   UNL     1      -3.117  -3.027  -2.866  0.00  0.00    +0.142 HD
ENDBRANCH   7  12
ENDBRANCH   1   8
BRANCH   3  15
ATOM     15  C   UNL     1      -0.566  -7.132  -1.648  0.00  0.00    +0.030 C 
ATOM     16  C   UNL     1      -1.785  -7.735  -2.348  0.00  0.00    +0.031 C 
ATOM     17  C   UNL     1       0.417  -6.607  -2.697  0.00  0.00    +0.031 C 
BRANCH  15  18
ATOM     18  C   UNL     1       0.119  -8.206  -0.800  0.00  0.00    +0.031 C 
BRANCH  18  19
ATOM     19  C   UNL     1       1.440  -7.660  -0.254  0.00  0.00    -0.036 C 
ATOM     20  C   UNL     1       1.191  -6.315   0.431  0.00  0.00    +0.010 C 
ATOM     21  C   UNL     1       2.021  -8.649   0.758  0.00  0.00    +0.010 C 
ATOM     22  C   UNL     1       2.428  -7.470  -1.407  0.00  0.00    +0.010 C 
ENDBRANCH  18  19
ENDBRANCH  15  18
ENDBRANCH   3  15
TORSDOF 5
