REMARK  Name = ZINC02128464
REMARK  12 active torsions:
REMARK  status: ('A' for Active; 'I' for Inactive)
REMARK    1  A    between atoms: C_1  and  O_2
REMARK    2  A    between atoms: O_2  and  C_3
REMARK    3  A    between atoms: C_3  and  C_4
REMARK    4  A    between atoms: C_4  and  N_58
REMARK    5  A    between atoms: C_5  and  C_6
REMARK    6  A    between atoms: C_5  and  N_58
REMARK    7  A    between atoms: C_6  and  O_7
REMARK    8  A    between atoms: O_7  and  C_8
REMARK    9  A    between atoms: C_9  and  C_10
REMARK   10  A    between atoms: C_9  and  N_58
REMARK   11  A    between atoms: C_11  and  O_32
REMARK   12  A    between atoms: C_20  and  C_21
REMARK                            x       y       z     vdW  Elec       q    Type
REMARK                         _______ _______ _______ _____ _____    ______ ____
ROOT
ATOM      1  C   UNL     1      -5.501   8.499  -1.629  0.00  0.00    +0.020 A 
ATOM      2  C   UNL     1      -4.566   8.598  -2.646  0.00  0.00    +0.122 A 
ATOM      3  C   UNL     1      -3.293   8.053  -2.491  0.00  0.00    +0.046 A 
ATOM      4  C   UNL     1      -2.952   7.413  -1.334  0.00  0.00    +0.016 A 
ATOM      5  C   UNL     1      -3.883   7.305  -0.299  0.00  0.00    +0.026 A 
ATOM      6  C   UNL     1      -5.169   7.852  -0.447  0.00  0.00    +0.144 A 
ATOM      7  O   UNL     1      -6.068   7.746   0.555  0.00  0.00    -0.422 OA
ATOM      8  C   UNL     1      -5.775   7.126   1.709  0.00  0.00    +0.338 A 
ATOM      9  O   UNL     1      -6.626   7.060   2.579  0.00  0.00    -0.245 OA
ATOM     10  C   UNL     1      -4.518   6.547   1.941  0.00  0.00    +0.101 A 
ATOM     11  C   UNL     1      -3.542   6.621   0.960  0.00  0.00    +0.006 A 
ENDROOT
BRANCH  11  12
ATOM     12  C   UNL     1      -2.207   6.029   1.168  0.00  0.00    +0.068 A 
ATOM     13  C   UNL     1      -2.059   4.662   1.315  0.00  0.00    +0.027 A 
ATOM     14  C   UNL     1      -0.757   4.135   1.513  0.00  0.00    +0.018 A 
ATOM     15  C   UNL     1      -0.570   2.752   1.659  0.00  0.00    +0.011 A 
ATOM     16  C   UNL     1       0.685   2.253   1.855  0.00  0.00    +0.001 A 
ATOM     17  C   UNL     1       1.782   3.102   1.901  0.00  0.00    +0.004 A 
ATOM     18  C   UNL     1       1.622   4.464   1.754  0.00  0.00    +0.047 A 
ATOM     19  C   UNL     1       0.352   4.998   1.558  0.00  0.00    +0.139 A 
ATOM     20  O   UNL     1       0.199   6.332   1.414  0.00  0.00    -0.422 OA
ATOM     21  C   UNL     1      -1.013   6.880   1.223  0.00  0.00    +0.345 A 
ATOM     22  O   UNL     1      -1.120   8.085   1.097  0.00  0.00    -0.245 OA
ENDBRANCH  11  12
BRANCH   2  23
ATOM     23  O   UNL     1      -4.892   9.230  -3.802  0.00  0.00    -0.506 OA
ATOM     24  H   UNL     1      -4.624  10.159  -3.831  0.00  0.00    +0.292 HD
ENDBRANCH   2  23
BRANCH   1  25
ATOM     25  C   UNL     1      -6.875   9.092  -1.805  0.00  0.00    -0.035 C 
BRANCH  25  26
ATOM     26  N   UNL     1      -6.912  10.411  -1.139  0.00  0.00    +0.385 N 
ATOM     27  H   UNL     1      -6.468  10.331  -0.216  0.00  0.00    -0.081 HD
BRANCH  26  28
ATOM     28  C   UNL     1      -6.171  11.404  -1.944  0.00  0.00    -0.050 C 
BRANCH  28  29
ATOM     29  C   UNL     1      -6.831  11.586  -3.312  0.00  0.00    +0.141 C 
BRANCH  29  31
ATOM     30  C   UNL     1      -8.810  12.435  -4.365  0.00  0.00    +0.193 C 
ATOM     31  O   UNL     1      -8.056  12.306  -3.158  0.00  0.00    -0.385 OA
ENDBRANCH  29  31
ENDBRANCH  28  29
ENDBRANCH  26  28
BRANCH  26  32
ATOM     32  C   UNL     1      -8.312  10.848  -0.961  0.00  0.00    -0.050 C 
BRANCH  32  33
ATOM     33  C   UNL     1      -8.338  12.033   0.007  0.00  0.00    +0.141 C 
BRANCH  33  34
ATOM     34  O   UNL     1      -7.729  13.167  -0.612  0.00  0.00    -0.385 OA
ATOM     35  C   UNL     1      -7.601  14.301   0.249  0.00  0.00    +0.193 C 
ENDBRANCH  33  34
ENDBRANCH  32  33
ENDBRANCH  26  32
ENDBRANCH  25  26
ENDBRANCH   1  25
TORSDOF 10
