REMARK  Name = ZINC06755234
REMARK  7 active torsions:
REMARK  status: ('A' for Active; 'I' for Inactive)
REMARK    1  A    between atoms: C_1  and  C_2
REMARK    2  A    between atoms: C_3  and  C_17
REMARK    3  A    between atoms: C_4  and  C_10
REMARK    4  A    between atoms: C_17  and  O_19
REMARK    5  A    between atoms: O_19  and  C_20
REMARK    6  A    between atoms: C_20  and  C_21
REMARK    7  A    between atoms: C_20  and  C_22
REMARK                            x       y       z     vdW  Elec       q    Type
REMARK                         _______ _______ _______ _____ _____    ______ ____
ROOT
ATOM      1  C   UNL     1      -0.593  -1.000   4.487  0.00  0.00    +0.061 C 
ATOM      2  C   UNL     1      -1.261   0.349   4.559  0.00  0.00    +0.019 C 
ATOM      3  C   UNL     1      -1.057   1.246   3.570  0.00  0.00    +0.078 C 
ATOM      4  C   UNL     1      -1.743   2.591   3.685  0.00  0.00    +0.141 C 
ATOM      5  N   UNL     1      -2.592   2.808   4.869  0.00  0.00    -0.315 N 
ATOM      6  C   UNL     1      -2.697   1.814   5.773  0.00  0.00    +0.135 C 
ATOM      7  S   UNL     1      -3.674   2.054   7.158  0.00  0.00    -0.019 S 
ATOM      8  N   UNL     1      -2.063   0.644   5.623  0.00  0.00    -0.300 N 
ATOM      9  H   UNL     1      -3.060   3.648   4.998  0.00  0.00    +0.149 HD
ATOM     10  H   UNL     1      -2.180  -0.031   6.309  0.00  0.00    +0.154 HD
ENDROOT
BRANCH   4  11
ATOM     11  C   UNL     1      -2.603   2.781   2.462  0.00  0.00    -0.021 A 
ATOM     12  C   UNL     1      -3.840   2.167   2.385  0.00  0.00    +0.006 A 
ATOM     13  C   UNL     1      -4.631   2.345   1.266  0.00  0.00    +0.002 A 
ATOM     14  C   UNL     1      -4.182   3.126   0.218  0.00  0.00    +0.020 A 
ATOM     15  C   UNL     1      -2.942   3.736   0.292  0.00  0.00    +0.041 A 
ATOM     16  C   UNL     1      -2.153   3.562   1.415  0.00  0.00    +0.025 A 
ATOM     17 CL   UNL     1      -2.377   4.717  -1.024  0.00  0.00    -0.084 Cl
ENDBRANCH   4  11
BRANCH   3  18
ATOM     18  C   UNL     1      -0.225   0.941   2.467  0.00  0.00    +0.339 C 
ATOM     19  O   UNL     1       0.409  -0.097   2.452  0.00  0.00    -0.245 OA
BRANCH  18  20
ATOM     20  O   UNL     1      -0.136   1.802   1.432  0.00  0.00    -0.459 OA
BRANCH  20  21
ATOM     21  C   UNL     1       0.723   1.430   0.351  0.00  0.00    +0.171 C 
ATOM     22  C   UNL     1       2.133   1.962   0.614  0.00  0.00    +0.052 C 
ATOM     23  C   UNL     1       0.188   2.024  -0.953  0.00  0.00    +0.052 C 
ENDBRANCH  20  21
ENDBRANCH  18  20
ENDBRANCH   3  18
TORSDOF 4
