REMARK  Name = ZINC04680119
REMARK  3 active torsions:
REMARK  status: ('A' for Active; 'I' for Inactive)
REMARK    1  A    between atoms: C_7  and  C_11
REMARK    2  A    between atoms: N_12  and  N_13
REMARK    3  A    between atoms: C_18  and  N_54
REMARK                            x       y       z     vdW  Elec       q    Type
REMARK                         _______ _______ _______ _____ _____    ______ ____
ROOT
ATOM      1  N   UNL     1      -1.573   6.082   3.702  0.00  0.00    -0.259 N 
ATOM      2  C   UNL     1      -2.030   6.751   2.474  0.00  0.00    +0.107 C 
ATOM      3  C   UNL     1      -1.589   5.912   1.270  0.00  0.00    -0.057 C 
ATOM      4  C   UNL     1       0.208   4.892   2.539  0.00  0.00    -0.057 C 
ATOM      5  C   UNL     1      -0.159   5.689   3.795  0.00  0.00    +0.107 C 
ATOM      6  N   UNL     1      -0.127   5.702   1.348  0.00  0.00    +0.389 N 
ATOM      7  H   UNL     1       0.337   6.614   1.425  0.00  0.00    -0.080 HD
ENDROOT
BRANCH   6   8
ATOM      8  C   UNL     1       0.351   5.022   0.126  0.00  0.00    -0.005 C 
ATOM      9  C   UNL     1      -0.181   3.612   0.040  0.00  0.00    -0.049 A 
ATOM     10  C   UNL     1      -1.462   3.109  -0.029  0.00  0.00    +0.003 A 
ATOM     11  C   UNL     1      -1.667   1.743  -0.107  0.00  0.00    +0.000 A 
ATOM     12  C   UNL     1      -0.587   0.879  -0.105  0.00  0.00    +0.001 A 
ATOM     13  C   UNL     1       0.699   1.374  -0.036  0.00  0.00    +0.009 A 
ATOM     14  C   UNL     1       0.913   2.751   0.037  0.00  0.00    -0.016 A 
ATOM     15  C   UNL     1       2.166   3.543   0.118  0.00  0.00    -0.016 A 
ATOM     16  C   UNL     1       1.854   4.899   0.172  0.00  0.00    -0.049 A 
ATOM     17  C   UNL     1       2.858   5.840   0.252  0.00  0.00    +0.003 A 
ATOM     18  C   UNL     1       4.183   5.440   0.278  0.00  0.00    +0.000 A 
ATOM     19  C   UNL     1       4.502   4.095   0.225  0.00  0.00    +0.001 A 
ATOM     20  C   UNL     1       3.504   3.147   0.146  0.00  0.00    +0.009 A 
ENDBRANCH   6   8
BRANCH   1  22
ATOM     21  C   UNL     1      -2.339   6.468   5.877  0.00  0.00    +0.140 C 
ATOM     22  N   UNL     1      -2.462   5.827   4.754  0.00  0.00    -0.192 NA
BRANCH  21  29
ATOM     23  C   UNL     1      -0.820   9.017   9.488  0.00  0.00    +0.001 A 
ATOM     24  C   UNL     1       0.101   9.984   9.109  0.00  0.00    +0.002 A 
ATOM     25  C   UNL     1       0.484  10.111   7.792  0.00  0.00    +0.026 A 
ATOM     26  C   UNL     1      -0.068   9.272   6.828  0.00  0.00    +0.047 A 
ATOM     27  C   UNL     1      -1.002   8.298   7.218  0.00  0.00    +0.008 A 
ATOM     28  C   UNL     1      -1.369   8.180   8.557  0.00  0.00    +0.010 A 
ATOM     29  C   UNL     1      -1.384   7.585   5.987  0.00  0.00    +0.020 A 
ATOM     30  C   UNL     1      -0.688   8.161   4.972  0.00  0.00    +0.093 A 
ATOM     31  N   UNL     1       0.097   9.164   5.464  0.00  0.00    -0.360 N 
ATOM     32  H   UNL     1       0.684   9.722   4.930  0.00  0.00    +0.165 HD
ENDBRANCH  21  29
ENDBRANCH   1  22
TORSDOF 3
