REMARK  Name = ZINC08443998
REMARK  16 active torsions:
REMARK  status: ('A' for Active; 'I' for Inactive)
REMARK    1  A    between atoms: C_1  and  C_2
REMARK    2  A    between atoms: C_2  and  C_3
REMARK    3  A    between atoms: C_3  and  C_4
REMARK    4  A    between atoms: C_4  and  C_5
REMARK    5  A    between atoms: C_5  and  C_7
REMARK    6  A    between atoms: C_5  and  C_9
REMARK    7  A    between atoms: C_7  and  C_8
REMARK    8  A    between atoms: C_21  and  C_23
REMARK    9  A    between atoms: C_26  and  O_31
REMARK   10  A    between atoms: C_27  and  O_29
REMARK   11  A    between atoms: O_29  and  C_30
REMARK   12  A    between atoms: O_31  and  C_32
REMARK   13  A    between atoms: C_32  and  C_33
REMARK   14  A    between atoms: C_33  and  C_34
REMARK   15  A    between atoms: C_38  and  C_40
REMARK   16  A    between atoms: C_38  and  C_41
REMARK                            x       y       z     vdW  Elec       q    Type
REMARK                         _______ _______ _______ _____ _____    ______ ____
ROOT
ATOM      1  C   UNL     1      -0.943   1.451  -1.033  0.00  0.00    +0.224 C 
ATOM      2  O   UNL     1      -1.951   2.123  -0.970  0.00  0.00    -0.275 OA
ATOM      3  N   UNL     1      -0.507   1.002  -2.227  0.00  0.00    -0.258 N 
ATOM      4  C   UNL     1       0.655   0.235  -2.289  0.00  0.00    +0.058 A 
ATOM      5  C   UNL     1       0.707  -1.036  -1.727  0.00  0.00    +0.025 A 
ATOM      6  C   UNL     1       1.857  -1.793  -1.865  0.00  0.00    +0.002 A 
ATOM      7  C   UNL     1       2.945  -1.297  -2.560  0.00  0.00    +0.002 A 
ATOM      8  C   UNL     1       2.904  -0.023  -3.100  0.00  0.00    +0.025 A 
ATOM      9  C   UNL     1       1.764   0.744  -2.940  0.00  0.00    +0.053 A 
ATOM     10  N   UNL     1       1.674   2.053  -3.401  0.00  0.00    -0.316 N 
ATOM     11  C   UNL     1       0.814   2.483  -4.361  0.00  0.00    +0.017 C 
ATOM     12  C   UNL     1      -0.497   2.193  -4.408  0.00  0.00    +0.037 C 
ATOM     13  C   UNL     1      -1.249   1.326  -3.426  0.00  0.00    +0.147 C 
ATOM     14  C   UNL     1      -1.306   2.712  -5.447  0.00  0.00    +0.163 C 
ATOM     15  O   UNL     1      -2.493   2.452  -5.451  0.00  0.00    -0.292 OA
ATOM     16  C   UNL     1      -0.749   3.573  -6.541  0.00  0.00    +0.086 C 
ATOM     17  C   UNL     1       0.722   3.194  -6.753  0.00  0.00    -0.023 C 
ATOM     18  C   UNL     1       1.445   3.372  -5.420  0.00  0.00    +0.058 C 
ATOM     19  C   UNL     1       0.822   1.736  -7.206  0.00  0.00    +0.011 C 
ATOM     20  C   UNL     1       1.346   4.109  -7.808  0.00  0.00    +0.011 C 
ATOM     21  H   UNL     1       2.271   2.709  -3.008  0.00  0.00    +0.152 HD
ENDROOT
BRANCH  13  22
ATOM     22  C   UNL     1      -1.628   0.040  -4.116  0.00  0.00    -0.018 A 
ATOM     23  C   UNL     1      -0.644  -0.842  -4.521  0.00  0.00    +0.009 A 
ATOM     24  C   UNL     1      -0.987  -2.025  -5.149  0.00  0.00    +0.050 A 
ATOM     25  C   UNL     1      -2.319  -2.323  -5.384  0.00  0.00    +0.162 A 
ATOM     26  C   UNL     1      -3.310  -1.432  -4.981  0.00  0.00    +0.162 A 
ATOM     27  C   UNL     1      -2.959  -0.251  -4.347  0.00  0.00    +0.055 A 
BRANCH  26  28
ATOM     28  O   UNL     1      -4.619  -1.721  -5.210  0.00  0.00    -0.491 OA
ATOM     29  C   UNL     1      -5.581  -0.760  -4.769  0.00  0.00    +0.277 C 
ENDBRANCH  26  28
BRANCH  25  30
ATOM     30  O   UNL     1      -2.658  -3.483  -6.006  0.00  0.00    -0.488 OA
BRANCH  30  31
ATOM     31  C   UNL     1      -1.589  -4.349  -6.392  0.00  0.00    +0.229 C 
BRANCH  31  32
ATOM     32  C   UNL     1      -2.161  -5.594  -7.073  0.00  0.00    +0.038 C 
ATOM     33  C   UNL     1      -1.016  -6.521  -7.485  0.00  0.00    +0.007 C 
ENDBRANCH  31  32
ENDBRANCH  30  31
ENDBRANCH  25  30
ENDBRANCH  13  22
BRANCH   1  34
ATOM     34  C   UNL     1      -0.179   1.120   0.222  0.00  0.00    +0.075 C 
BRANCH  34  35
ATOM     35  C   UNL     1       1.243   1.675   0.115  0.00  0.00    +0.009 C 
ATOM     36  C   UNL     1       1.184   3.171  -0.202  0.00  0.00    +0.004 C 
ENDBRANCH  34  35
BRANCH  34  37
ATOM     37  C   UNL     1      -0.882   1.747   1.428  0.00  0.00    +0.013 C 
BRANCH  37  38
ATOM     38  C   UNL     1      -0.190   1.293   2.715  0.00  0.00    +0.000 C 
BRANCH  38  40
ATOM     39  C   UNL     1      -0.136   1.543   5.200  0.00  0.00    +0.004 C 
ATOM     40  C   UNL     1      -0.829   1.997   3.913  0.00  0.00    -0.003 C 
ENDBRANCH  38  40
ENDBRANCH  37  38
ENDBRANCH  34  37
ENDBRANCH   1  34
TORSDOF 10
