REMARK  Name = ZINC38665891
REMARK  12 active torsions:
REMARK  status: ('A' for Active; 'I' for Inactive)
REMARK    1  A    between atoms: C_1  and  C_2
REMARK    2  A    between atoms: C_5  and  N_9
REMARK    3  A    between atoms: C_7  and  C_8
REMARK    4  A    between atoms: C_11  and  C_16
REMARK    5  A    between atoms: N_18  and  C_19
REMARK    6  A    between atoms: C_19  and  C_20
REMARK    7  A    between atoms: C_20  and  C_22
REMARK    8  A    between atoms: C_20  and  N_31
REMARK    9  A    between atoms: C_25  and  N_28
REMARK   10  A    between atoms: N_28  and  C_29
REMARK   11  A    between atoms: N_28  and  C_30
REMARK   12  A    between atoms: N_34  and  C_37
REMARK                            x       y       z     vdW  Elec       q    Type
REMARK                         _______ _______ _______ _____ _____    ______ ____
ROOT
ATOM      1  C   UNL     1       4.470  -9.191  -0.518  0.00  0.00    +0.104 C 
ENDROOT
BRANCH   1   2
ATOM      2  C   UNL     1       5.973  -9.092  -0.553  0.00  0.00    -0.029 A 
ATOM      3  C   UNL     1       6.731 -10.206  -0.865  0.00  0.00    +0.007 A 
ATOM      4  C   UNL     1       8.108 -10.118  -0.897  0.00  0.00    +0.023 A 
ATOM      5  C   UNL     1       8.733  -8.910  -0.617  0.00  0.00    +0.029 A 
ATOM      6  C   UNL     1       7.969  -7.793  -0.304  0.00  0.00    +0.023 A 
ATOM      7  C   UNL     1       6.591  -7.886  -0.279  0.00  0.00    +0.007 A 
BRANCH   5   8
ATOM      8  N   UNL     1      10.127  -8.818  -0.649  0.00  0.00    -0.336 N 
ATOM      9  C   UNL     1      10.936 -10.025  -0.839  0.00  0.00    +0.129 C 
ATOM     10  C   UNL     1      10.779  -7.516  -0.492  0.00  0.00    +0.129 C 
ENDBRANCH   5   8
ENDBRANCH   1   2
BRANCH   1  11
ATOM     11  N   UNL     1       4.005  -9.100   0.872  0.00  0.00    -0.291 NA
ATOM     12  C   UNL     1       4.505  -7.878   1.516  0.00  0.00    +0.104 C 
ATOM     13  C   UNL     1       3.856  -7.729   2.896  0.00  0.00    +0.120 C 
ATOM     14  N   UNL     1       4.082  -8.968   3.655  0.00  0.00    -0.327 N 
ATOM     15  C   UNL     1       3.731 -10.247   3.019  0.00  0.00    +0.120 C 
ATOM     16  C   UNL     1       4.386 -10.297   1.634  0.00  0.00    +0.104 C 
BRANCH  14  17
ATOM     17  C   UNL     1       4.614  -8.932   4.945  0.00  0.00    +0.030 A 
ATOM     18  C   UNL     1       4.811  -7.713   5.583  0.00  0.00    +0.023 A 
ATOM     19  C   UNL     1       5.337  -7.681   6.859  0.00  0.00    +0.002 A 
ATOM     20  C   UNL     1       5.670  -8.859   7.502  0.00  0.00    +0.000 A 
ATOM     21  C   UNL     1       5.476 -10.074   6.870  0.00  0.00    +0.002 A 
ATOM     22  C   UNL     1       4.944 -10.114   5.596  0.00  0.00    +0.023 A 
ENDBRANCH  14  17
ENDBRANCH   1  11
BRANCH   1  23
ATOM     23  C   UNL     1       3.864  -8.046  -1.334  0.00  0.00    +0.127 C 
BRANCH  23  26
ATOM     24  C   UNL     1       1.655  -7.151  -1.839  0.00  0.00    +0.218 C 
ATOM     25  O   UNL     1       2.188  -6.301  -2.521  0.00  0.00    -0.275 OA
ATOM     26  N   UNL     1       2.405  -8.072  -1.203  0.00  0.00    -0.313 N 
ATOM     27  H   UNL     1       1.979  -8.752  -0.657  0.00  0.00    +0.149 HD
BRANCH  24  30
ATOM     28  N   UNL     1      -0.633  -4.915  -1.575  0.00  0.00    -0.271 N 
ATOM     29  C   UNL     1      -0.494  -6.034  -2.516  0.00  0.00    +0.127 C 
ATOM     30  C   UNL     1       0.154  -7.177  -1.704  0.00  0.00    +0.101 C 
ATOM     31  C   UNL     1      -0.278  -6.824  -0.262  0.00  0.00    +0.110 C 
ATOM     32  C   UNL     1      -0.516  -5.331  -0.302  0.00  0.00    +0.221 C 
ATOM     33  O   UNL     1      -0.592  -4.613   0.672  0.00  0.00    -0.275 OA
BRANCH  28  38
ATOM     34  C   UNL     1      -1.522   0.472  -3.116  0.00  0.00    +0.044 C 
ATOM     35  C   UNL     1      -1.286  -0.959  -2.707  0.00  0.00    -0.047 A 
ATOM     36  C   UNL     1      -1.307  -1.307  -1.368  0.00  0.00    +0.005 A 
ATOM     37  C   UNL     1      -1.091  -2.617  -0.990  0.00  0.00    +0.024 A 
ATOM     38  C   UNL     1      -0.852  -3.587  -1.955  0.00  0.00    +0.037 A 
ATOM     39  C   UNL     1      -0.832  -3.235  -3.298  0.00  0.00    +0.027 A 
ATOM     40  C   UNL     1      -1.054  -1.923  -3.671  0.00  0.00    -0.046 A 
ATOM     41  C   UNL     1      -1.038  -1.541  -5.128  0.00  0.00    +0.044 C 
ENDBRANCH  28  38
ENDBRANCH  24  30
ENDBRANCH  23  26
ENDBRANCH   1  23
TORSDOF 8
