REMARK  Name = ZINC39939985
REMARK  5 active torsions:
REMARK  status: ('A' for Active; 'I' for Inactive)
REMARK    1  A    between atoms: C_4  and  C_7
REMARK    2  A    between atoms: C_9  and  C_28
REMARK    3  A    between atoms: N_10  and  C_12
REMARK    4  A    between atoms: N_18  and  N_19
REMARK    5  A    between atoms: C_20  and  C_21
REMARK                            x       y       z     vdW  Elec       q    Type
REMARK                         _______ _______ _______ _____ _____    ______ ____
ROOT
ATOM      1  C   UNL     1       3.668  -0.533   1.114  0.00  0.00    +0.093 A 
ATOM      2  C   UNL     1       3.410  -1.866   0.754  0.00  0.00    +0.058 A 
ATOM      3  C   UNL     1       4.489  -2.326   0.057  0.00  0.00    +0.074 A 
ATOM      4  N   UNL     1       5.395  -1.309  -0.016  0.00  0.00    -0.219 N 
ATOM      5  N   UNL     1       4.854  -0.201   0.647  0.00  0.00    -0.167 NA
ENDROOT
BRANCH   4   6
ATOM      6  C   UNL     1       6.701  -1.365  -0.677  0.00  0.00    +0.354 C 
ATOM      7  N   UNL     1       7.435  -2.573  -0.269  0.00  0.00    -0.170 NA
ATOM      8  N   UNL     1       8.475  -2.219   0.293  0.00  0.00    -0.218 N 
ATOM      9  C   UNL     1       8.618  -0.868   0.361  0.00  0.00    +0.176 C 
ATOM     10  S   UNL     1       9.947  -0.058   1.077  0.00  0.00    -0.015 S 
ATOM     11  N   UNL     1       7.560  -0.256  -0.221  0.00  0.00    -0.157 N 
ATOM     12  H   UNL     1       9.125  -2.843   0.652  0.00  0.00    +0.176 HD
BRANCH  11  13
ATOM     13  N   UNL     1       7.330   1.119  -0.359  0.00  0.00    -0.182 NA
ATOM     14  C   UNL     1       6.307   1.541  -1.038  0.00  0.00    +0.138 C 
BRANCH  14  15
ATOM     15  C   UNL     1       6.017   2.985  -1.114  0.00  0.00    -0.005 A 
ATOM     16  C   UNL     1       6.845   3.902  -0.462  0.00  0.00    +0.010 A 
ATOM     17  C   UNL     1       6.568   5.251  -0.537  0.00  0.00    +0.016 A 
ATOM     18  C   UNL     1       5.473   5.697  -1.257  0.00  0.00    +0.018 A 
ATOM     19  C   UNL     1       4.649   4.794  -1.907  0.00  0.00    +0.016 A 
ATOM     20  C   UNL     1       4.917   3.442  -1.844  0.00  0.00    +0.010 A 
ATOM     21 BR   UNL     1       5.101   7.549  -1.354  0.00  0.00    -0.050 Br
ENDBRANCH  14  15
ENDBRANCH  11  13
ENDBRANCH   4   6
BRANCH   1  25
ATOM     22  C   UNL     1       1.059   2.003   3.315  0.00  0.00    +0.000 A 
ATOM     23  C   UNL     1       2.283   2.482   2.883  0.00  0.00    +0.001 A 
ATOM     24  C   UNL     1       3.134   1.663   2.169  0.00  0.00    +0.010 A 
ATOM     25  C   UNL     1       2.758   0.352   1.882  0.00  0.00    +0.002 A 
ATOM     26  C   UNL     1       1.524  -0.124   2.319  0.00  0.00    +0.010 A 
ATOM     27  C   UNL     1       0.680   0.703   3.033  0.00  0.00    +0.001 A 
ENDBRANCH   1  25
BRANCH   3  28
ATOM     28  C   UNL     1       4.648  -3.682  -0.514  0.00  0.00    +0.000 A 
ATOM     29  C   UNL     1       3.915  -4.750   0.003  0.00  0.00    +0.010 A 
ATOM     30  C   UNL     1       4.068  -6.012  -0.534  0.00  0.00    +0.001 A 
ATOM     31  C   UNL     1       4.945  -6.218  -1.584  0.00  0.00    +0.000 A 
ATOM     32  C   UNL     1       5.675  -5.163  -2.101  0.00  0.00    +0.001 A 
ATOM     33  C   UNL     1       5.527  -3.895  -1.577  0.00  0.00    +0.010 A 
ENDBRANCH   3  28
TORSDOF 5
