REMARK  Name = ZINC39686655
REMARK  10 active torsions:
REMARK  status: ('A' for Active; 'I' for Inactive)
REMARK    1  A    between atoms: C_1  and  C_2
REMARK    2  A    between atoms: C_2  and  C_4
REMARK    3  A    between atoms: C_2  and  N_13
REMARK    4  A    between atoms: C_4  and  C_5
REMARK    5  A    between atoms: C_10  and  O_11
REMARK    6  A    between atoms: O_11  and  C_12
REMARK    7  A    between atoms: C_14  and  C_16
REMARK    8  A    between atoms: C_27  and  C_29
REMARK    9  A    between atoms: C_34  and  O_35
REMARK   10  A    between atoms: O_35  and  C_36
REMARK                            x       y       z     vdW  Elec       q    Type
REMARK                         _______ _______ _______ _____ _____    ______ ____
ROOT
ATOM      1  C   UNL     1       0.851  -1.627  -3.758  0.00  0.00    +0.100 C 
ATOM      2  C   UNL     1       1.781  -0.443  -4.104  0.00  0.00    +0.121 C 
ATOM      3  N   UNL     1       1.676  -0.302  -5.575  0.00  0.00    -0.296 N 
ATOM      4  C   UNL     1       0.243  -0.544  -5.868  0.00  0.00    +0.115 C 
ATOM      5  C   UNL     1      -0.158  -1.689  -4.917  0.00  0.00    -0.004 C 
ATOM      6  C   UNL     1      -1.575  -1.471  -4.397  0.00  0.00    -0.010 C 
ATOM      7  C   UNL     1      -2.565  -1.595  -5.558  0.00  0.00    -0.082 C 
ATOM      8  N   UNL     1      -2.445  -2.926  -6.166  0.00  0.00    +0.379 N 
ATOM      9  C   UNL     1      -1.107  -3.092  -6.746  0.00  0.00    -0.082 C 
ATOM     10  C   UNL     1      -0.055  -3.031  -5.635  0.00  0.00    -0.010 C 
ATOM     11  C   UNL     1       2.662  -0.020  -6.450  0.00  0.00    +0.252 C 
ATOM     12  O   UNL     1       2.400   0.156  -7.625  0.00  0.00    -0.270 OA
ATOM     13  H   UNL     1      -2.594  -3.632  -5.460  0.00  0.00    -0.086 HD
ATOM     14  H   UNL     1      -3.139  -3.027  -6.891  0.00  0.00    -0.086 HD
ENDROOT
BRANCH  11  15
ATOM     15  C   UNL     1       4.058   0.076  -5.983  0.00  0.00    +0.099 A 
ATOM     16  C   UNL     1       4.351   0.591  -4.715  0.00  0.00    +0.020 A 
ATOM     17  C   UNL     1       5.676   0.660  -4.324  0.00  0.00    +0.021 A 
ATOM     18  C   UNL     1       6.664   0.223  -5.189  0.00  0.00    +0.114 A 
ATOM     19  N   UNL     1       6.366  -0.259  -6.379  0.00  0.00    -0.220 NA
ATOM     20  C   UNL     1       5.115  -0.352  -6.800  0.00  0.00    +0.233 A 
BRANCH  20  21
ATOM     21  O   UNL     1       4.854  -0.858  -8.029  0.00  0.00    -0.437 OA
BRANCH  21  22
ATOM     22  C   UNL     1       5.909  -1.167  -8.828  0.00  0.00    +0.130 A 
ATOM     23  C   UNL     1       6.257  -0.327  -9.876  0.00  0.00    +0.046 A 
ATOM     24  C   UNL     1       7.330  -0.644 -10.686  0.00  0.00    +0.004 A 
ATOM     25  C   UNL     1       8.055  -1.798 -10.455  0.00  0.00    +0.000 A 
ATOM     26  C   UNL     1       7.710  -2.638  -9.412  0.00  0.00    +0.004 A 
ATOM     27  C   UNL     1       6.642  -2.322  -8.595  0.00  0.00    +0.046 A 
ENDBRANCH  21  22
ENDBRANCH  20  21
ENDBRANCH  11  15
BRANCH   1  29
ATOM     28  N   UNL     1       0.055  -2.346  -1.528  0.00  0.00    -0.312 N 
ATOM     29  C   UNL     1       0.138  -1.371  -2.455  0.00  0.00    +0.218 C 
ATOM     30  O   UNL     1      -0.362  -0.287  -2.241  0.00  0.00    -0.275 OA
ATOM     31  H   UNL     1       0.455  -3.213  -1.700  0.00  0.00    +0.149 HD
BRANCH  28  33
ATOM     32  C   UNL     1       0.327  -1.440   0.727  0.00  0.00    +0.028 C 
ATOM     33  C   UNL     1      -0.638  -2.096  -0.262  0.00  0.00    +0.074 C 
BRANCH  33  34
ATOM     34  C   UNL     1      -1.137  -3.422   0.316  0.00  0.00    +0.060 C 
BRANCH  34  35
ATOM     35  C   UNL     1      -2.179  -4.009  -0.601  0.00  0.00    -0.004 A 
ATOM     36  C   UNL     1      -3.520  -3.774  -0.363  0.00  0.00    +0.007 A 
ATOM     37  C   UNL     1      -4.477  -4.313  -1.203  0.00  0.00    +0.000 A 
ATOM     38  C   UNL     1      -4.095  -5.087  -2.283  0.00  0.00    +0.004 A 
ATOM     39  C   UNL     1      -2.756  -5.325  -2.526  0.00  0.00    +0.046 A 
ATOM     40  C   UNL     1      -1.794  -4.781  -1.687  0.00  0.00    +0.123 A 
BRANCH  40  41
ATOM     41  O   UNL     1      -0.475  -5.008  -1.926  0.00  0.00    -0.495 OA
ATOM     42  C   UNL     1      -0.151  -5.812  -3.062  0.00  0.00    +0.277 C 
ENDBRANCH  40  41
ENDBRANCH  34  35
ENDBRANCH  33  34
ENDBRANCH  28  33
ENDBRANCH   1  29
TORSDOF 8
