REMARK  Name = ZINC64137659
REMARK  8 active torsions:
REMARK  status: ('A' for Active; 'I' for Inactive)
REMARK    1  A    between atoms: C_7  and  C_10
REMARK    2  A    between atoms: C_13  and  S_22
REMARK    3  A    between atoms: N_15  and  C_16
REMARK    4  A    between atoms: C_16  and  C_17
REMARK    5  A    between atoms: S_22  and  C_23
REMARK    6  A    between atoms: C_23  and  C_24
REMARK    7  A    between atoms: N_26  and  C_27
REMARK    8  A    between atoms: C_27  and  C_28
REMARK                            x       y       z     vdW  Elec       q    Type
REMARK                         _______ _______ _______ _____ _____    ______ ____
ROOT
ATOM      1  C   UNL     1       0.675  -3.130  -0.022  0.00  0.00    +0.147 C 
ATOM      2  N   UNL     1      -0.627  -3.017  -0.015  0.00  0.00    -0.169 NA
ATOM      3  N   UNL     1      -1.246  -4.273  -0.014  0.00  0.00    -0.237 N 
ATOM      4  C   UNL     1      -0.165  -5.272  -0.022  0.00  0.00    +0.237 C 
ATOM      5  N   UNL     1       1.069  -4.471  -0.033  0.00  0.00    -0.278 N 
ATOM      6  H   UNL     1      -2.200  -4.449  -0.010  0.00  0.00    +0.171 HD
ENDROOT
BRANCH   1  13
ATOM      7  C   UNL     1      -0.016   1.354   0.009  0.00  0.00    +0.001 A 
ATOM      8  C   UNL     1       1.163   2.101   0.002  0.00  0.00    +0.002 A 
ATOM      9  C   UNL     1       2.384   1.511  -0.013  0.00  0.00    +0.026 A 
ATOM     10  C   UNL     1       2.483   0.096  -0.021  0.00  0.00    +0.043 A 
ATOM     11  N   UNL     1       3.531  -0.705  -0.035  0.00  0.00    -0.380 N 
ATOM     12  C   UNL     1       3.075  -2.099  -0.039  0.00  0.00    +0.152 C 
ATOM     13  C   UNL     1       1.563  -2.044  -0.024  0.00  0.00    +0.022 C 
ATOM     14  C   UNL     1       1.237  -0.687  -0.013  0.00  0.00    +0.006 A 
ATOM     15  C   UNL     1       0.002  -0.004   0.002  0.00  0.00    +0.010 A 
ATOM     16  H   UNL     1       4.457  -0.418  -0.043  0.00  0.00    +0.160 HD
ENDBRANCH   1  13
BRANCH   5  17
ATOM     17  C   UNL     1       2.443  -4.979  -0.049  0.00  0.00    +0.183 C 
BRANCH  17  18
ATOM     18  C   UNL     1       2.928  -5.161   1.366  0.00  0.00    +0.122 A 
ATOM     19  C   UNL     1       2.807  -6.282   2.101  0.00  0.00    +0.046 A 
ATOM     20  C   UNL     1       3.395  -6.012   3.358  0.00  0.00    +0.041 A 
ATOM     21  C   UNL     1       3.840  -4.743   3.317  0.00  0.00    +0.195 A 
ATOM     22  O   UNL     1       3.559  -4.235   2.106  0.00  0.00    -0.466 OA
ENDBRANCH  17  18
ENDBRANCH   5  17
BRANCH   4  23
ATOM     23  S   UNL     1      -0.263  -6.301  -1.513  0.00  0.00    -0.109 S 
BRANCH  23  24
ATOM     24  C   UNL     1      -0.136  -5.112  -2.876  0.00  0.00    +0.168 C 
BRANCH  24  25
ATOM     25  C   UNL     1      -0.205  -5.845  -4.191  0.00  0.00    +0.223 C 
ATOM     26  O   UNL     1      -0.328  -7.052  -4.206  0.00  0.00    -0.275 OA
ATOM     27  N   UNL     1      -0.130  -5.161  -5.349  0.00  0.00    -0.306 N 
ATOM     28  H   UNL     1      -0.032  -4.196  -5.337  0.00  0.00    +0.149 HD
BRANCH  27  29
ATOM     29  C   UNL     1      -0.197  -5.874  -6.627  0.00  0.00    +0.217 C 
BRANCH  29  30
ATOM     30  C   UNL     1      -0.089  -4.871  -7.777  0.00  0.00    +0.405 C 
ATOM     31  F   UNL     1       1.128  -4.187  -7.688  0.00  0.00    -0.169 F 
ATOM     32  F   UNL     1      -0.153  -5.552  -8.998  0.00  0.00    -0.169 F 
ATOM     33  F   UNL     1      -1.145  -3.956  -7.698  0.00  0.00    -0.169 F 
ENDBRANCH  29  30
ENDBRANCH  27  29
ENDBRANCH  24  25
ENDBRANCH  23  24
ENDBRANCH   4  23
TORSDOF 8
