REMARK  Name = ZINC06074900
REMARK  12 active torsions:
REMARK  status: ('A' for Active; 'I' for Inactive)
REMARK    1  A    between atoms: C_1  and  C_2
REMARK    2  A    between atoms: C_2  and  C_3
REMARK    3  A    between atoms: C_2  and  C_4
REMARK    4  A    between atoms: C_2  and  N_5
REMARK    5  A    between atoms: C_6  and  C_8
REMARK    6  A    between atoms: C_8  and  C_10
REMARK    7  A    between atoms: C_8  and  N_17
REMARK    8  A    between atoms: N_17  and  C_18
REMARK    9  A    between atoms: C_18  and  C_19
REMARK   10  A    between atoms: C_25  and  C_27
REMARK   11  A    between atoms: C_27  and  N_28
REMARK   12  A    between atoms: C_30  and  C_33
REMARK                            x       y       z     vdW  Elec       q    Type
REMARK                         _______ _______ _______ _____ _____    ______ ____
ROOT
ATOM      1  N   UNL     1       3.341   1.881   0.495  0.00  0.00    -0.282 N 
ATOM      2  C   UNL     1       4.617   1.751   0.079  0.00  0.00    +0.240 C 
ATOM      3  O   UNL     1       4.872   1.063  -0.886  0.00  0.00    -0.273 OA
ENDROOT
BRANCH   1   4
ATOM      4  C   UNL     1       2.264   1.192  -0.219  0.00  0.00    +0.192 C 
BRANCH   4   5
ATOM      5  C   UNL     1       2.470  -0.298  -0.122  0.00  0.00    -0.018 A 
ATOM      6  C   UNL     1       3.332  -0.816   0.827  0.00  0.00    +0.009 A 
ATOM      7  C   UNL     1       3.517  -2.182   0.920  0.00  0.00    +0.038 A 
ATOM      8  C   UNL     1       2.848  -3.031   0.055  0.00  0.00    +0.123 A 
ATOM      9  C   UNL     1       1.990  -2.511  -0.899  0.00  0.00    +0.038 A 
ATOM     10  C   UNL     1       1.802  -1.145  -0.987  0.00  0.00    +0.009 A 
ATOM     11  F   UNL     1       3.033  -4.367   0.142  0.00  0.00    -0.205 F 
ENDBRANCH   4   5
BRANCH   4  13
ATOM     12  N   UNL     1      -0.088   1.940  -0.387  0.00  0.00    -0.309 N 
ATOM     13  C   UNL     1       0.938   1.557   0.398  0.00  0.00    +0.238 C 
ATOM     14  O   UNL     1       0.795   1.505   1.601  0.00  0.00    -0.273 OA
ATOM     15  H   UNL     1       0.027   1.981  -1.349  0.00  0.00    +0.149 HD
BRANCH  12  17
ATOM     16  C   UNL     1      -1.178   3.475   1.173  0.00  0.00    +0.031 C 
ATOM     17  C   UNL     1      -1.375   2.300   0.213  0.00  0.00    +0.026 C 
ATOM     18  C   UNL     1      -2.357   2.701  -0.889  0.00  0.00    +0.031 C 
ATOM     19  C   UNL     1      -1.932   1.101   0.982  0.00  0.00    +0.031 C 
ENDBRANCH  12  17
ENDBRANCH   4  13
ENDBRANCH   1   4
BRANCH   1  20
ATOM     20  C   UNL     1       3.032   2.712   1.661  0.00  0.00    +0.140 C 
BRANCH  20  21
ATOM     21  C   UNL     1       3.342   1.932   2.940  0.00  0.00    +0.136 C 
ATOM     22  C   UNL     1       2.866   2.730   4.170  0.00  0.00    +0.035 C 
ATOM     23  C   UNL     1       1.861   1.784   4.871  0.00  0.00    +0.031 C 
ATOM     24  C   UNL     1       2.271   0.400   4.308  0.00  0.00    +0.160 C 
ATOM     25  O   UNL     1       2.626   0.685   2.937  0.00  0.00    -0.375 OA
ENDBRANCH  20  21
ENDBRANCH   1  20
BRANCH   2  26
ATOM     26  C   UNL     1       5.725   2.461   0.814  0.00  0.00    +0.264 C 
BRANCH  26  27
ATOM     27  N   UNL     1       7.007   2.161   0.171  0.00  0.00    -0.154 N 
ATOM     28  N   UNL     1       7.540   2.844  -0.783  0.00  0.00    -0.130 NA
ATOM     29  C   UNL     1       8.685   2.272  -1.097  0.00  0.00    +0.205 A 
ATOM     30  N   UNL     1       8.819   1.210  -0.289  0.00  0.00    -0.108 NA
ATOM     31  N   UNL     1       7.780   1.177   0.474  0.00  0.00    -0.045 NA
BRANCH  29  32
ATOM     32  C   UNL     1       9.640   2.716  -2.143  0.00  0.00    +0.023 A 
ATOM     33  C   UNL     1       9.360   3.843  -2.912  0.00  0.00    +0.013 A 
ATOM     34  C   UNL     1      10.254   4.255  -3.880  0.00  0.00    +0.021 A 
ATOM     35  C   UNL     1      11.422   3.544  -4.094  0.00  0.00    +0.041 A 
ATOM     36  C   UNL     1      11.703   2.421  -3.336  0.00  0.00    +0.021 A 
ATOM     37  C   UNL     1      10.818   2.004  -2.362  0.00  0.00    +0.013 A 
ATOM     38 CL   UNL     1      12.540   4.064  -5.316  0.00  0.00    -0.084 Cl
ENDBRANCH  29  32
ENDBRANCH  26  27
ENDBRANCH   2  26
TORSDOF 9
