REMARK  Name = ZINC40892190
REMARK  10 active torsions:
REMARK  status: ('A' for Active; 'I' for Inactive)
REMARK    1  A    between atoms: C_1  and  C_2
REMARK    2  A    between atoms: C_2  and  C_3
REMARK    3  A    between atoms: C_3  and  C_4
REMARK    4  A    between atoms: C_6  and  C_9
REMARK    5  A    between atoms: C_12  and  N_16
REMARK    6  A    between atoms: C_20  and  C_23
REMARK    7  A    between atoms: N_25  and  C_26
REMARK    8  A    between atoms: C_26  and  C_27
REMARK    9  A    between atoms: C_26  and  C_28
REMARK   10  A    between atoms: C_26  and  C_29
REMARK                            x       y       z     vdW  Elec       q    Type
REMARK                         _______ _______ _______ _____ _____    ______ ____
ROOT
ATOM      1  C   UNL     1      -0.622  -5.234  -2.085  0.00  0.00    +0.025 A 
ATOM      2  C   UNL     1      -1.819  -5.039  -2.772  0.00  0.00    +0.013 A 
ATOM      3  C   UNL     1      -2.550  -6.125  -3.204  0.00  0.00    +0.027 A 
ATOM      4  C   UNL     1      -2.096  -7.415  -2.955  0.00  0.00    +0.065 A 
ATOM      5  C   UNL     1      -0.900  -7.612  -2.268  0.00  0.00    +0.145 A 
ATOM      6  C   UNL     1      -0.163  -6.528  -1.840  0.00  0.00    +0.052 A 
ATOM      7  F   UNL     1      -0.460  -8.867  -2.027  0.00  0.00    -0.204 F 
ENDROOT
BRANCH   4   8
ATOM      8  N   UNL     1      -2.838  -8.512  -3.393  0.00  0.00    -0.327 N 
ATOM      9  C   UNL     1      -3.871  -9.108  -2.534  0.00  0.00    +0.105 C 
ATOM     10  C   UNL     1      -5.188  -9.167  -3.315  0.00  0.00    +0.020 C 
ATOM     11  C   UNL     1      -4.961  -9.910  -4.633  0.00  0.00    +0.016 C 
ATOM     12  C   UNL     1      -3.933  -9.154  -5.477  0.00  0.00    +0.092 C 
ATOM     13  C   UNL     1      -2.606  -9.091  -4.723  0.00  0.00    +0.118 C 
BRANCH  12  14
ATOM     14  C   UNL     1      -3.735  -9.868  -6.789  0.00  0.00    +0.218 C 
ATOM     15  O   UNL     1      -2.638 -10.287  -7.092  0.00  0.00    -0.275 OA
ATOM     16  N   UNL     1      -4.777 -10.042  -7.625  0.00  0.00    -0.310 N 
ATOM     17  H   UNL     1      -5.655  -9.707  -7.383  0.00  0.00    +0.149 HD
BRANCH  16  18
ATOM     18  C   UNL     1      -4.585 -10.737  -8.901  0.00  0.00    +0.026 C 
ATOM     19  C   UNL     1      -4.082 -12.158  -8.637  0.00  0.00    +0.031 C 
ATOM     20  C   UNL     1      -5.916 -10.799  -9.654  0.00  0.00    +0.031 C 
ATOM     21  C   UNL     1      -3.557  -9.980  -9.744  0.00  0.00    +0.031 C 
ENDBRANCH  16  18
ENDBRANCH  12  14
ENDBRANCH   4   8
BRANCH   1  24
ATOM     22  C   UNL     1       0.739  -2.004  -1.265  0.00  0.00    +0.228 A 
ATOM     23  N   UNL     1      -0.169  -2.775  -1.794  0.00  0.00    -0.191 NA
ATOM     24  C   UNL     1       0.165  -4.066  -1.620  0.00  0.00    +0.202 A 
ATOM     25  N   UNL     1       1.303  -4.121  -0.971  0.00  0.00    -0.056 NA
ATOM     26  O   UNL     1       1.696  -2.777  -0.735  0.00  0.00    -0.338 OA
BRANCH  22  27
ATOM     27  C   UNL     1       0.718  -0.497  -1.257  0.00  0.00    +0.098 C 
BRANCH  27  29
ATOM     28  C   UNL     1      -0.019   1.526   0.010  0.00  0.00    +0.004 C 
ATOM     29  C   UNL     1       0.002  -0.004   0.002  0.00  0.00    +0.006 C 
ENDBRANCH  27  29
ENDBRANCH  22  27
ENDBRANCH   1  24
TORSDOF 6
