REMARK  Name = ZINC12316560
REMARK  8 active torsions:
REMARK  status: ('A' for Active; 'I' for Inactive)
REMARK    1  A    between atoms: C_1  and  C_2
REMARK    2  A    between atoms: C_5  and  C_8
REMARK    3  A    between atoms: C_8  and  C_13
REMARK    4  A    between atoms: C_15  and  C_18
REMARK    5  A    between atoms: C_18  and  N_57
REMARK    6  A    between atoms: C_19  and  N_57
REMARK    7  A    between atoms: C_20  and  C_21
REMARK    8  A    between atoms: C_20  and  N_57
REMARK                            x       y       z     vdW  Elec       q    Type
REMARK                         _______ _______ _______ _____ _____    ______ ____
ROOT
ATOM      1  C   UNL     1      -4.371   6.053  -4.421  0.00  0.00    +0.182 A 
ATOM      2  N   UNL     1      -4.356   5.386  -3.254  0.00  0.00    -0.197 NA
ATOM      3  C   UNL     1      -3.292   5.813  -2.617  0.00  0.00    +0.211 A 
ATOM      4  O   UNL     1      -2.698   6.709  -3.411  0.00  0.00    -0.340 OA
ATOM      5  N   UNL     1      -3.332   6.832  -4.438  0.00  0.00    -0.060 NA
ENDROOT
BRANCH   1   6
ATOM      6  C   UNL     1      -5.402   5.918  -5.512  0.00  0.00    +0.059 C 
ATOM      7  C   UNL     1      -5.393   4.481  -6.073  0.00  0.00    +0.019 C 
ATOM      8  C   UNL     1      -5.647   4.664  -7.590  0.00  0.00    +0.001 C 
ATOM      9  C   UNL     1      -4.845   5.948  -7.919  0.00  0.00    +0.001 C 
ATOM     10  C   UNL     1      -5.054   6.851  -6.685  0.00  0.00    +0.019 C 
BRANCH   6  15
ATOM     11  C   UNL     1     -10.644   7.207  -3.449  0.00  0.00    +0.044 C 
ATOM     12  C   UNL     1      -9.277   6.870  -3.987  0.00  0.00    -0.050 A 
ATOM     13  C   UNL     1      -9.140   6.396  -5.278  0.00  0.00    +0.003 A 
ATOM     14  C   UNL     1      -7.886   6.087  -5.771  0.00  0.00    +0.005 A 
ATOM     15  C   UNL     1      -6.769   6.254  -4.974  0.00  0.00    -0.034 A 
ATOM     16  C   UNL     1      -6.907   6.724  -3.681  0.00  0.00    +0.005 A 
ATOM     17  C   UNL     1      -8.161   7.036  -3.189  0.00  0.00    +0.003 A 
ENDBRANCH   6  15
ENDBRANCH   1   6
BRANCH   3  18
ATOM     18  C   UNL     1      -2.825   5.373  -1.254  0.00  0.00    +0.022 C 
BRANCH  18  20
ATOM     19  C   UNL     1      -0.685   4.600  -2.082  0.00  0.00    -0.095 C 
ATOM     20  N   UNL     1      -1.938   4.200  -1.409  0.00  0.00    +0.388 N 
ATOM     21  H   UNL     1      -2.416   3.495  -1.984  0.00  0.00    -0.081 HD
BRANCH  20  22
ATOM     22  C   UNL     1      -1.637   3.615  -0.086  0.00  0.00    -0.003 C 
BRANCH  22  23
ATOM     23  C   UNL     1      -0.922   2.304  -0.284  0.00  0.00    +0.091 A 
ATOM     24  N   UNL     1       0.429   2.142  -0.262  0.00  0.00    -0.343 N 
ATOM     25  H   UNL     1       1.110   2.859  -0.112  0.00  0.00    +0.167 HD
ATOM     26  C   UNL     1       0.686   0.804  -0.484  0.00  0.00    +0.069 A 
ATOM     27  C   UNL     1       1.845   0.044  -0.571  0.00  0.00    +0.066 A 
ATOM     28  C   UNL     1       1.755  -1.313  -0.809  0.00  0.00    +0.125 A 
ATOM     29  C   UNL     1       0.514  -1.920  -0.961  0.00  0.00    +0.040 A 
ATOM     30  C   UNL     1      -0.634  -1.186  -0.877  0.00  0.00    +0.032 A 
ATOM     31  C   UNL     1      -0.567   0.189  -0.637  0.00  0.00    +0.089 A 
ATOM     32  N   UNL     1      -1.505   1.163  -0.509  0.00  0.00    -0.234 NA
ATOM     33  F   UNL     1       2.881  -2.055  -0.895  0.00  0.00    -0.205 F 
ENDBRANCH  22  23
ENDBRANCH  20  22
ENDBRANCH  18  20
ENDBRANCH   3  18
TORSDOF 6
