REMARK  Name = ZINC37442333
REMARK  1 active torsions:
REMARK  status: ('A' for Active; 'I' for Inactive)
REMARK    1  A    between atoms: C_9  and  C_12
REMARK                            x       y       z     vdW  Elec       q    Type
REMARK                         _______ _______ _______ _____ _____    ______ ____
ROOT
ATOM      1  C   UNL     1      -0.017   1.383   0.010  0.00  0.00    +0.005 A 
ATOM      2  C   UNL     1       1.162   2.099   0.002  0.00  0.00    +0.028 A 
ATOM      3  C   UNL     1       2.378   1.430  -0.013  0.00  0.00    +0.069 A 
ATOM      4  C   UNL     1       2.405   0.024  -0.021  0.00  0.00    +0.124 A 
ATOM      5  C   UNL     1       1.199  -0.687  -0.013  0.00  0.00    +0.151 A 
ATOM      6  C   UNL     1       0.002  -0.004   0.002  0.00  0.00    +0.040 A 
ATOM      7  F   UNL     1       1.209  -2.038  -0.021  0.00  0.00    -0.203 F 
ATOM      8  N   UNL     1       3.708  -0.352  -0.035  0.00  0.00    -0.225 NA
ATOM      9  C   UNL     1       4.473   0.712  -0.037  0.00  0.00    +0.139 A 
ATOM     10  N   UNL     1       3.697   1.841  -0.023  0.00  0.00    -0.338 N 
ATOM     11  H   UNL     1       4.014   2.758  -0.022  0.00  0.00    +0.167 HD
ENDROOT
BRANCH   9  12
ATOM     12  C   UNL     1       5.950   0.697  -0.051  0.00  0.00    +0.018 A 
ATOM     13  C   UNL     1       6.663   1.898  -0.045  0.00  0.00    +0.013 A 
ATOM     14  C   UNL     1       8.039   1.876  -0.060  0.00  0.00    +0.024 A 
ATOM     15  C   UNL     1       8.721   0.661  -0.080  0.00  0.00    +0.030 A 
ATOM     16  C   UNL     1       8.018  -0.536  -0.083  0.00  0.00    -0.026 A 
ATOM     17  C   UNL     1       6.636  -0.518  -0.065  0.00  0.00    +0.017 A 
ATOM     18  C   UNL     1       8.726  -1.865  -0.094  0.00  0.00    +0.038 C 
ATOM     19  C   UNL     1      10.158  -1.704  -0.605  0.00  0.00    +0.023 C 
ATOM     20  C   UNL     1      10.841  -0.577   0.182  0.00  0.00    +0.102 C 
ATOM     21  N   UNL     1      10.118   0.670  -0.100  0.00  0.00    -0.344 N 
ATOM     22  H   UNL     1      10.602   1.487  -0.297  0.00  0.00    +0.146 HD
ENDBRANCH   9  12
TORSDOF 1
