REMARK  Name = ZINC04392492
REMARK  8 active torsions:
REMARK  status: ('A' for Active; 'I' for Inactive)
REMARK    1  A    between atoms: C_1  and  C_2
REMARK    2  A    between atoms: C_6  and  C_8
REMARK    3  A    between atoms: C_10  and  C_27
REMARK    4  A    between atoms: C_11  and  C_13
REMARK    5  A    between atoms: C_13  and  C_14
REMARK    6  A    between atoms: C_14  and  N_15
REMARK    7  A    between atoms: C_16  and  C_18
REMARK    8  A    between atoms: C_21  and  N_24
REMARK                            x       y       z     vdW  Elec       q    Type
REMARK                         _______ _______ _______ _____ _____    ______ ____
ROOT
ATOM      1  C   UNL     1       2.023   7.651   0.025  0.00  0.00    +0.063 C 
ENDROOT
BRANCH   1   5
ATOM      2  C   UNL     1       1.172   3.565   0.011  0.00  0.00    +0.109 A 
ATOM      3  N   UNL     1       0.140   4.397   0.026  0.00  0.00    -0.244 NA
ATOM      4  C   UNL     1       0.314   5.698   0.031  0.00  0.00    +0.049 A 
ATOM      5  C   UNL     1       1.572   6.213   0.021  0.00  0.00    +0.014 A 
ATOM      6  S   UNL     1       2.544   4.712   0.011  0.00  0.00    -0.072 S 
ATOM      7  C   UNL     1      -0.879   6.619   0.048  0.00  0.00    +0.066 C 
BRANCH   2  13
ATOM      8  C   UNL     1      -1.294  -0.774   0.010  0.00  0.00    +0.044 C 
ATOM      9  C   UNL     1       0.002  -0.004   0.002  0.00  0.00    -0.050 A 
ATOM     10  C   UNL     1       1.208  -0.683  -0.013  0.00  0.00    +0.003 A 
ATOM     11  C   UNL     1       2.402   0.016  -0.021  0.00  0.00    +0.001 A 
ATOM     12  C   UNL     1       2.397   1.396  -0.013  0.00  0.00    +0.010 A 
ATOM     13  C   UNL     1       1.184   2.086   0.002  0.00  0.00    +0.007 A 
ATOM     14  C   UNL     1      -0.017   1.375   0.010  0.00  0.00    +0.014 A 
ENDBRANCH   2  13
ENDBRANCH   1   5
BRANCH   1  15
ATOM     15  C   UNL     1       2.191   8.130   1.469  0.00  0.00    +0.109 C 
BRANCH  15  16
ATOM     16  N   UNL     1       2.629   9.527   1.472  0.00  0.00    -0.311 N 
ATOM     17  C   UNL     1       2.843  10.164   2.641  0.00  0.00    +0.244 C 
ATOM     18  O   UNL     1       2.672   9.578   3.692  0.00  0.00    -0.270 OA
ATOM     19  H   UNL     1       2.766   9.995   0.633  0.00  0.00    +0.149 HD
BRANCH  17  20
ATOM     20  C   UNL     1       3.286  11.574   2.644  0.00  0.00    +0.037 A 
ATOM     21  C   UNL     1       3.489  12.248   1.439  0.00  0.00    +0.015 A 
ATOM     22  C   UNL     1       3.896  13.566   1.450  0.00  0.00    +0.033 A 
ATOM     23  C   UNL     1       4.115  14.216   2.651  0.00  0.00    +0.126 A 
ATOM     24  C   UNL     1       3.921  13.553   3.849  0.00  0.00    +0.033 A 
ATOM     25  C   UNL     1       3.508  12.236   3.853  0.00  0.00    +0.015 A 
BRANCH  23  26
ATOM     26  N   UNL     1       4.559  15.629   2.655  0.00  0.00    +0.056 N 
ATOM     27  O   UNL     1       4.752  16.204   3.711  0.00  0.00    -0.126 OA
ATOM     28  O   UNL     1       4.730  16.215   1.601  0.00  0.00    -0.126 OA
ENDBRANCH  23  26
ENDBRANCH  17  20
ENDBRANCH  15  16
ENDBRANCH   1  15
TORSDOF 6
