REMARK  Name = ZINC33812712
REMARK  14 active torsions:
REMARK  status: ('A' for Active; 'I' for Inactive)
REMARK    1  A    between atoms: C_1  and  C_2
REMARK    2  A    between atoms: C_2  and  C_3
REMARK    3  A    between atoms: C_3  and  C_4
REMARK    4  A    between atoms: C_4  and  N_5
REMARK    5  A    between atoms: C_6  and  N_28
REMARK    6  A    between atoms: C_7  and  C_15
REMARK    7  A    between atoms: C_8  and  C_14
REMARK    8  A    between atoms: C_9  and  C_12
REMARK    9  A    between atoms: N_19  and  C_23
REMARK   10  A    between atoms: C_23  and  C_24
REMARK   11  A    between atoms: C_24  and  C_25
REMARK   12  A    between atoms: C_25  and  O_26
REMARK   13  A    between atoms: O_26  and  C_27
REMARK   14  A    between atoms: N_31  and  C_34
REMARK                            x       y       z     vdW  Elec       q    Type
REMARK                         _______ _______ _______ _____ _____    ______ ____
ROOT
ATOM      1  N   UNL     1       1.972  -2.554  -2.580  0.00  0.00    -0.295 N 
ATOM      2  C   UNL     1       1.107  -2.730  -3.612  0.00  0.00    +0.112 A 
ATOM      3  C   UNL     1       1.477  -3.493  -4.732  0.00  0.00    +0.019 A 
ATOM      4  C   UNL     1       2.754  -4.077  -4.778  0.00  0.00    -0.017 A 
ATOM      5  C   UNL     1       3.623  -3.882  -3.708  0.00  0.00    +0.120 A 
ATOM      6  C   UNL     1       3.202  -3.099  -2.603  0.00  0.00    +0.270 A 
ATOM      7  O   UNL     1       3.960  -2.920  -1.666  0.00  0.00    -0.266 OA
ATOM      8  C   UNL     1       3.176  -4.902  -5.967  0.00  0.00    +0.046 C 
ENDROOT
BRANCH   3   9
ATOM      9  C   UNL     1       0.539  -3.680  -5.841  0.00  0.00    +0.032 C 
ATOM     10  C   UNL     1       0.816  -3.147  -7.062  0.00  0.00    +0.077 C 
ATOM     11  C   UNL     1       1.890  -2.294  -7.459  0.00  0.00    +0.258 C 
ATOM     12  O   UNL     1       2.734  -1.934  -6.659  0.00  0.00    -0.269 OA
ATOM     13  N   UNL     1       1.940  -1.906  -8.722  0.00  0.00    -0.255 N 
ATOM     14  C   UNL     1       1.003  -2.305  -9.610  0.00  0.00    +0.121 C 
ATOM     15  S   UNL     1       0.873  -1.929 -11.275  0.00  0.00    -0.027 S 
ATOM     16  S   UNL     1      -0.063  -3.330  -8.608  0.00  0.00    -0.061 S 
BRANCH  13  17
ATOM     17  C   UNL     1       3.028  -1.031  -9.165  0.00  0.00    +0.117 C 
BRANCH  17  18
ATOM     18  C   UNL     1       4.206  -1.883  -9.643  0.00  0.00    +0.047 C 
BRANCH  18  19
ATOM     19  C   UNL     1       5.342  -0.968 -10.105  0.00  0.00    +0.161 C 
BRANCH  19  20
ATOM     20  O   UNL     1       6.442  -1.764 -10.552  0.00  0.00    -0.383 OA
ATOM     21  C   UNL     1       7.562  -1.003 -11.008  0.00  0.00    +0.193 C 
ENDBRANCH  19  20
ENDBRANCH  18  19
ENDBRANCH  17  18
ENDBRANCH  13  17
ENDBRANCH   3   9
BRANCH   2  22
ATOM     22  N   UNL     1      -0.131  -2.160  -3.561  0.00  0.00    -0.320 N 
ATOM     23  C   UNL     1      -0.389  -0.853  -4.186  0.00  0.00    +0.088 C 
ATOM     24  C   UNL     1      -1.632  -0.976  -5.074  0.00  0.00    -0.060 C 
ATOM     25  N   UNL     1      -2.750  -1.499  -4.279  0.00  0.00    +0.380 N 
ATOM     26  C   UNL     1      -2.449  -2.864  -3.830  0.00  0.00    -0.060 C 
ATOM     27  C   UNL     1      -1.248  -2.838  -2.885  0.00  0.00    +0.088 C 
ATOM     28  C   UNL     1      -3.968  -1.513  -5.100  0.00  0.00    -0.096 C 
ATOM     29  H   UNL     1      -2.897  -0.907  -3.475  0.00  0.00    -0.082 HD
ENDBRANCH   2  22
BRANCH   5  30
ATOM     30  C   UNL     1       4.931  -4.465  -3.724  0.00  0.00    +0.105 C 
ATOM     31  N   UNL     1       5.969  -4.926  -3.737  0.00  0.00    -0.191 NA
ENDBRANCH   5  30
BRANCH   1  32
ATOM     32  C   UNL     1       1.561  -1.754  -1.425  0.00  0.00    +0.126 C 
BRANCH  32  33
ATOM     33  C   UNL     1       2.043  -0.313  -1.605  0.00  0.00    +0.021 C 
BRANCH  33  35
ATOM     34  C   UNL     1       2.095   1.965  -0.579  0.00  0.00    +0.004 C 
ATOM     35  C   UNL     1       1.613   0.524  -0.398  0.00  0.00    -0.002 C 
ENDBRANCH  33  35
ENDBRANCH  32  33
ENDBRANCH   1  32
TORSDOF 10
