REMARK  Name = ZINC58091060
REMARK  5 active torsions:
REMARK  status: ('A' for Active; 'I' for Inactive)
REMARK    1  A    between atoms: C_1  and  C_2
REMARK    2  A    between atoms: C_6  and  C_8
REMARK    3  A    between atoms: C_8  and  C_10
REMARK    4  A    between atoms: C_8  and  O_11
REMARK    5  A    between atoms: C_15  and  C_17
REMARK                            x       y       z     vdW  Elec       q    Type
REMARK                         _______ _______ _______ _____ _____    ______ ____
ROOT
ATOM      1  C   UNL     1      -0.018   1.503   0.010  0.00  0.00    +0.044 C 
ATOM      2  C   UNL     1       0.002  -0.004   0.002  0.00  0.00    -0.050 A 
ATOM      3  C   UNL     1       0.006  -0.692  -1.200  0.00  0.00    +0.009 A 
ATOM      4  C   UNL     1       0.024  -2.068  -1.203  0.00  0.00    -0.014 A 
ATOM      5  C   UNL     1       0.040  -2.782  -0.011  0.00  0.00    +0.043 A 
ATOM      6  C   UNL     1       0.035  -2.083   1.194  0.00  0.00    +0.002 A 
ATOM      7  C   UNL     1       0.023  -0.704   1.194  0.00  0.00    +0.011 A 
ATOM      8  N   UNL     1       0.058  -4.153  -0.271  0.00  0.00    -0.284 N 
ATOM      9  C   UNL     1       0.056  -4.421  -1.588  0.00  0.00    +0.224 C 
ATOM     10  O   UNL     1       0.068  -5.521  -2.099  0.00  0.00    -0.275 OA
ATOM     11  C   UNL     1       0.034  -3.093  -2.313  0.00  0.00    +0.104 C 
ATOM     12  C   UNL     1      -1.229  -2.970  -3.168  0.00  0.00    +0.022 C 
ATOM     13  H   UNL     1       0.070  -4.834   0.419  0.00  0.00    +0.155 HD
ENDROOT
BRANCH   6  14
ATOM     14  C   UNL     1       0.051  -2.836   2.499  0.00  0.00    +0.143 C 
ATOM     15  C   UNL     1       1.494  -3.179   2.873  0.00  0.00    +0.043 C 
BRANCH  14  16
ATOM     16  O   UNL     1      -0.526  -2.024   3.524  0.00  0.00    -0.387 OA
ATOM     17  H   UNL     1      -0.063  -1.188   3.671  0.00  0.00    +0.210 HD
ENDBRANCH  14  16
ENDBRANCH   6  14
TORSDOF 2
