REMARK  Name = ZINC12888928
REMARK  13 active torsions:
REMARK  status: ('A' for Active; 'I' for Inactive)
REMARK    1  A    between atoms: C_1  and  C_2
REMARK    2  A    between atoms: C_2  and  C_3
REMARK    3  A    between atoms: C_2  and  C_4
REMARK    4  A    between atoms: C_4  and  C_6
REMARK    5  A    between atoms: C_4  and  N_19
REMARK    6  A    between atoms: N_8  and  C_9
REMARK    7  A    between atoms: C_9  and  C_10
REMARK    8  A    between atoms: C_10  and  C_11
REMARK    9  A    between atoms: C_14  and  O_17
REMARK   10  A    between atoms: O_17  and  C_18
REMARK   11  A    between atoms: C_20  and  C_22
REMARK   12  A    between atoms: C_24  and  C_37
REMARK   13  A    between atoms: C_24  and  C_38
REMARK                            x       y       z     vdW  Elec       q    Type
REMARK                         _______ _______ _______ _____ _____    ______ ____
ROOT
ATOM      1  N   UNL     1       3.534   1.861   0.204  0.00  0.00    -0.302 N 
ATOM      2  C   UNL     1       4.793   1.532  -0.145  0.00  0.00    +0.236 C 
ATOM      3  O   UNL     1       5.036   0.419  -0.561  0.00  0.00    -0.274 OA
ATOM      4  H   UNL     1       3.340   2.751   0.537  0.00  0.00    +0.150 HD
ENDROOT
BRANCH   2   5
ATOM      5  C   UNL     1       5.900   2.547  -0.018  0.00  0.00    +0.179 C 
ATOM      6  C   UNL     1       5.841   3.500  -1.235  0.00  0.00    +0.040 C 
ATOM      7  S   UNL     1       7.410   3.078  -2.112  0.00  0.00    -0.125 S 
ATOM      8  C   UNL     1       7.732   1.489  -1.234  0.00  0.00    +0.167 C 
ATOM      9  N   UNL     1       7.175   1.838   0.106  0.00  0.00    -0.269 N 
ATOM     10  C   UNL     1       8.101   1.398   1.007  0.00  0.00    +0.249 C 
ATOM     11  O   UNL     1       7.877   1.189   2.184  0.00  0.00    -0.270 OA
ATOM     12  C   UNL     1       9.404   1.200   0.343  0.00  0.00    +0.043 A 
ATOM     13  C   UNL     1       9.207   1.289  -1.038  0.00  0.00    -0.005 A 
ATOM     14  C   UNL     1      10.276   1.186  -1.898  0.00  0.00    +0.007 A 
ATOM     15  C   UNL     1      11.550   0.979  -1.397  0.00  0.00    +0.000 A 
ATOM     16  C   UNL     1      11.753   0.874  -0.033  0.00  0.00    +0.001 A 
ATOM     17  C   UNL     1      10.690   0.983   0.840  0.00  0.00    +0.013 A 
ATOM     18  C   UNL     1       4.625   3.195  -2.112  0.00  0.00    +0.025 C 
ATOM     19  C   UNL     1       5.839   4.963  -0.787  0.00  0.00    +0.025 C 
ENDBRANCH   2   5
BRANCH   1  20
ATOM     20  C   UNL     1       2.458   0.874   0.081  0.00  0.00    +0.161 C 
BRANCH  20  21
ATOM     21  C   UNL     1       1.139   1.586  -0.075  0.00  0.00    +0.234 C 
ATOM     22  O   UNL     1       0.987   2.692   0.398  0.00  0.00    -0.274 OA
ATOM     23  N   UNL     1       0.128   0.993  -0.740  0.00  0.00    -0.313 N 
ATOM     24  H   UNL     1       0.269   0.138  -1.177  0.00  0.00    +0.149 HD
BRANCH  23  25
ATOM     25  C   UNL     1      -1.184   1.641  -0.808  0.00  0.00    +0.109 C 
BRANCH  25  26
ATOM     26  C   UNL     1      -2.143   0.769  -1.621  0.00  0.00    +0.054 C 
BRANCH  26  27
ATOM     27  C   UNL     1      -3.493   1.436  -1.690  0.00  0.00    -0.046 A 
ATOM     28  C   UNL     1      -4.445   1.170  -0.724  0.00  0.00    +0.007 A 
ATOM     29  C   UNL     1      -5.681   1.785  -0.783  0.00  0.00    +0.046 A 
ATOM     30  C   UNL     1      -5.970   2.661  -1.819  0.00  0.00    +0.120 A 
ATOM     31  C   UNL     1      -5.014   2.922  -2.791  0.00  0.00    +0.046 A 
ATOM     32  C   UNL     1      -3.778   2.309  -2.724  0.00  0.00    +0.007 A 
BRANCH  30  33
ATOM     33  O   UNL     1      -7.187   3.262  -1.883  0.00  0.00    -0.495 OA
ATOM     34  C   UNL     1      -8.121   2.946  -0.848  0.00  0.00    +0.277 C 
ENDBRANCH  30  33
ENDBRANCH  26  27
ENDBRANCH  25  26
ENDBRANCH  23  25
ENDBRANCH  20  21
BRANCH  20  36
ATOM     35  C   UNL     1       1.331  -1.063   1.185  0.00  0.00    +0.009 C 
ATOM     36  C   UNL     1       2.421   0.000   1.336  0.00  0.00    +0.012 C 
ATOM     37  C   UNL     1       3.777  -0.683   1.522  0.00  0.00    +0.009 C 
ENDBRANCH  20  36
ENDBRANCH   1  20
TORSDOF 8
