REMARK  Name = ZINC63234534
REMARK  9 active torsions:
REMARK  status: ('A' for Active; 'I' for Inactive)
REMARK    1  A    between atoms: C_1  and  O_2
REMARK    2  A    between atoms: O_2  and  C_3
REMARK    3  A    between atoms: C_6  and  O_29
REMARK    4  A    between atoms: C_7  and  C_9
REMARK    5  A    between atoms: C_15  and  C_17
REMARK    6  A    between atoms: C_17  and  C_18
REMARK    7  A    between atoms: C_18  and  C_19
REMARK    8  A    between atoms: C_19  and  C_20
REMARK    9  A    between atoms: O_29  and  C_30
REMARK                            x       y       z     vdW  Elec       q    Type
REMARK                         _______ _______ _______ _____ _____    ______ ____
ROOT
ATOM      1  C   UNL     1       1.392  -4.110   2.219  0.00  0.00    +0.084 A 
ATOM      2  C   UNL     1       0.832  -4.867   1.228  0.00  0.00    +0.077 A 
ATOM      3  S   UNL     1       1.209  -6.513   1.815  0.00  0.00    -0.060 S 
ATOM      4  C   UNL     1       2.067  -6.027   3.306  0.00  0.00    +0.165 A 
ATOM      5  N   UNL     1       2.000  -4.711   3.231  0.00  0.00    -0.224 NA
ATOM      6  N   UNL     1       2.652  -6.824   4.282  0.00  0.00    -0.265 N 
ATOM      7  C   UNL     1       2.616  -8.166   4.168  0.00  0.00    +0.219 C 
ATOM      8  O   UNL     1       2.072  -8.679   3.213  0.00  0.00    -0.275 OA
ATOM      9  H   UNL     1       3.087  -6.413   5.046  0.00  0.00    +0.157 HD
ENDROOT
BRANCH   1  14
ATOM     10  C   UNL     1       0.626  -0.619   1.042  0.00  0.00    +0.121 A 
ATOM     11  C   UNL     1       1.202   0.141   2.051  0.00  0.00    +0.049 A 
ATOM     12  C   UNL     1       1.838  -0.477   3.111  0.00  0.00    +0.050 A 
ATOM     13  C   UNL     1       1.903  -1.859   3.172  0.00  0.00    +0.129 A 
ATOM     14  C   UNL     1       1.325  -2.629   2.159  0.00  0.00    +0.046 A 
ATOM     15  C   UNL     1       0.681  -2.001   1.096  0.00  0.00    +0.059 A 
BRANCH  10  17
ATOM     16  C   UNL     1      -0.017   1.425   0.010  0.00  0.00    +0.277 C 
ATOM     17  O   UNL     1       0.002  -0.004   0.002  0.00  0.00    -0.495 OA
ENDBRANCH  10  17
BRANCH  13  18
ATOM     18  O   UNL     1       2.530  -2.466   4.216  0.00  0.00    -0.494 OA
ATOM     19  C   UNL     1       3.099  -1.616   5.214  0.00  0.00    +0.277 C 
ENDBRANCH  13  18
ENDBRANCH   1  14
BRANCH   7  20
ATOM     20  C   UNL     1       3.251  -9.030   5.227  0.00  0.00    +0.096 C 
BRANCH  20  21
ATOM     21  C   UNL     1       3.070 -10.504   4.859  0.00  0.00    +0.014 C 
BRANCH  21  22
ATOM     22  C   UNL     1       3.715 -11.381   5.934  0.00  0.00    +0.033 C 
BRANCH  22  23
ATOM     23  C   UNL     1       3.537 -12.833   5.572  0.00  0.00    -0.042 C 
ATOM     24  C   UNL     1       4.420 -13.622   4.918  0.00  0.00    -0.001 A 
ATOM     25  C   UNL     1       5.758 -13.374   4.369  0.00  0.00    +0.010 A 
ATOM     26  C   UNL     1       6.412 -14.385   3.753  0.00  0.00    +0.001 A 
ATOM     27  C   UNL     1       5.845 -15.660   3.626  0.00  0.00    +0.002 A 
ATOM     28  C   UNL     1       4.620 -15.965   4.105  0.00  0.00    +0.026 A 
ATOM     29  C   UNL     1       3.844 -14.977   4.772  0.00  0.00    +0.043 A 
ATOM     30  N   UNL     1       2.651 -15.024   5.314  0.00  0.00    -0.380 N 
ATOM     31  C   UNL     1       2.338 -13.704   5.871  0.00  0.00    +0.144 C 
ATOM     32  H   UNL     1       2.073 -15.803   5.344  0.00  0.00    +0.160 HD
ENDBRANCH  22  23
ENDBRANCH  21  22
ENDBRANCH  20  21
ENDBRANCH   7  20
TORSDOF 7
