REMARK  Name = ZINC10069828
REMARK  8 active torsions:
REMARK  status: ('A' for Active; 'I' for Inactive)
REMARK    1  A    between atoms: C_5  and  N_7
REMARK    2  A    between atoms: N_10  and  S_13
REMARK    3  A    between atoms: S_13  and  C_16
REMARK    4  A    between atoms: C_16  and  C_17
REMARK    5  A    between atoms: C_17  and  N_18
REMARK    6  A    between atoms: C_19  and  C_21
REMARK    7  A    between atoms: C_22  and  C_23
REMARK    8  A    between atoms: C_26  and  N_29
REMARK                            x       y       z     vdW  Elec       q    Type
REMARK                         _______ _______ _______ _____ _____    ______ ____
ROOT
ATOM      1  C   UNL     1      -3.624  -3.126  -0.118  0.00  0.00    +0.204 C 
ENDROOT
BRANCH   1   2
ATOM      2  S   UNL     1      -1.984  -3.900  -0.076  0.00  0.00    +0.033 S 
ATOM      3  O   UNL     1      -1.722  -4.559  -1.308  0.00  0.00    -0.158 OA
ATOM      4  O   UNL     1      -1.792  -4.573   1.160  0.00  0.00    -0.158 OA
BRANCH   2   8
ATOM      5  N   UNL     1       0.002  -0.004   0.002  0.00  0.00    -0.325 N 
ATOM      6  C   UNL     1      -0.597  -0.532  -1.231  0.00  0.00    +0.122 C 
ATOM      7  C   UNL     1      -0.395  -2.050  -1.284  0.00  0.00    +0.128 C 
ATOM      8  N   UNL     1      -0.917  -2.635  -0.039  0.00  0.00    -0.178 NA
ATOM      9  C   UNL     1      -0.466  -2.065   1.240  0.00  0.00    +0.128 C 
ATOM     10  C   UNL     1      -0.665  -0.546   1.193  0.00  0.00    +0.122 C 
BRANCH   5  15
ATOM     11  C   UNL     1      -1.243   3.455   0.031  0.00  0.00    +0.002 A 
ATOM     12  C   UNL     1      -0.055   4.162   0.024  0.00  0.00    +0.003 A 
ATOM     13  C   UNL     1       1.154   3.490   0.009  0.00  0.00    +0.040 A 
ATOM     14  C   UNL     1       1.177   2.108   0.002  0.00  0.00    +0.144 A 
ATOM     15  C   UNL     1      -0.017   1.394   0.010  0.00  0.00    +0.065 A 
ATOM     16  C   UNL     1      -1.228   2.074   0.019  0.00  0.00    +0.026 A 
ATOM     17  F   UNL     1       2.357   1.451  -0.013  0.00  0.00    -0.204 F 
ENDBRANCH   5  15
ENDBRANCH   2   8
ENDBRANCH   1   2
BRANCH   1  18
ATOM     18  C   UNL     1      -4.700  -4.213  -0.155  0.00  0.00    +0.128 C 
BRANCH  18  19
ATOM     19  N   UNL     1      -6.025  -3.587  -0.188  0.00  0.00    -0.310 N 
ATOM     20  C   UNL     1      -7.132  -4.355  -0.224  0.00  0.00    +0.237 C 
ATOM     21  O   UNL     1      -7.031  -5.568  -0.228  0.00  0.00    -0.271 OA
ATOM     22  H   UNL     1      -6.105  -2.621  -0.185  0.00  0.00    +0.149 HD
BRANCH  20  23
ATOM     23  C   UNL     1      -8.456  -3.730  -0.258  0.00  0.00    +0.068 C 
ATOM     24  C   UNL     1      -9.563  -4.498  -0.293  0.00  0.00    +0.013 C 
BRANCH  24  25
ATOM     25  C   UNL     1     -10.894  -3.870  -0.327  0.00  0.00    -0.025 A 
ATOM     26  C   UNL     1     -11.014  -2.477  -0.317  0.00  0.00    +0.010 A 
ATOM     27  C   UNL     1     -12.264  -1.896  -0.353  0.00  0.00    +0.033 A 
ATOM     28  C   UNL     1     -13.398  -2.688  -0.390  0.00  0.00    +0.126 A 
ATOM     29  C   UNL     1     -13.288  -4.067  -0.395  0.00  0.00    +0.033 A 
ATOM     30  C   UNL     1     -12.045  -4.663  -0.364  0.00  0.00    +0.010 A 
BRANCH  28  31
ATOM     31  N   UNL     1     -14.736  -2.056  -0.423  0.00  0.00    +0.056 N 
ATOM     32  O   UNL     1     -15.737  -2.750  -0.455  0.00  0.00    -0.126 OA
ATOM     33  O   UNL     1     -14.837  -0.842  -0.418  0.00  0.00    -0.126 OA
ENDBRANCH  28  31
ENDBRANCH  24  25
ENDBRANCH  20  23
ENDBRANCH  18  19
ENDBRANCH   1  18
TORSDOF 8
