REMARK  Name = ZINC24092530
REMARK  5 active torsions:
REMARK  status: ('A' for Active; 'I' for Inactive)
REMARK    1  A    between atoms: C_1  and  C_2
REMARK    2  A    between atoms: N_11  and  C_15
REMARK    3  A    between atoms: C_15  and  C_16
REMARK    4  A    between atoms: N_18  and  C_19
REMARK    5  A    between atoms: C_19  and  C_20
REMARK                            x       y       z     vdW  Elec       q    Type
REMARK                         _______ _______ _______ _____ _____    ______ ____
ROOT
ATOM      1  C   UNL     1      -0.718   1.572   1.248  0.00  0.00    +0.231 C 
ATOM      2  O   UNL     1      -1.714   2.256   1.150  0.00  0.00    -0.274 OA
ATOM      3  N   UNL     1      -0.242   1.246   2.466  0.00  0.00    -0.314 N 
ATOM      4  H   UNL     1       0.662   0.625   2.555  0.00  0.00    +0.149 HD
ENDROOT
BRANCH   1   5
ATOM      5  C   UNL     1      -0.013   1.086   0.008  0.00  0.00    +0.213 C 
BRANCH   5  15
ATOM      6  C   UNL     1      -3.062   3.954  -1.458  0.00  0.00    +0.010 C 
ATOM      7  C   UNL     1      -2.339   4.026  -2.805  0.00  0.00    +0.018 C 
ATOM      8  C   UNL     1      -1.507   5.309  -2.869  0.00  0.00    +0.006 C 
ATOM      9  C   UNL     1      -0.769   5.369  -4.208  0.00  0.00    +0.000 C 
ATOM     10  C   UNL     1       0.162   4.162  -4.335  0.00  0.00    +0.003 C 
ATOM     11  C   UNL     1      -0.664   2.874  -4.275  0.00  0.00    +0.035 C 
ATOM     12  C   UNL     1      -1.423   2.816  -2.954  0.00  0.00    +0.115 C 
ATOM     13  C   UNL     1      -0.456   2.742  -1.794  0.00  0.00    +0.247 C 
ATOM     14  O   UNL     1       0.381   3.562  -1.483  0.00  0.00    -0.273 OA
ATOM     15  N   UNL     1      -0.721   1.571  -1.179  0.00  0.00    -0.215 N 
ATOM     16  C   UNL     1      -1.708   0.905  -1.791  0.00  0.00    +0.310 C 
ATOM     17  O   UNL     1      -2.122  -0.177  -1.424  0.00  0.00    -0.252 OA
ATOM     18  N   UNL     1      -2.194   1.571  -2.856  0.00  0.00    -0.285 N 
ATOM     19  H   UNL     1      -2.988   1.357  -3.587  0.00  0.00    +0.151 HD
ENDBRANCH   5  15
ENDBRANCH   1   5
BRANCH   3  20
ATOM     20  C   UNL     1      -0.927   1.718   3.671  0.00  0.00    +0.108 C 
BRANCH  20  21
ATOM     21  C   UNL     1      -0.187   1.212   4.911  0.00  0.00    +0.019 C 
ATOM     22  C   UNL     1      -0.279  -0.311   4.959  0.00  0.00    +0.018 C 
ATOM     23  C   UNL     1      -0.971  -0.792   6.253  0.00  0.00    +0.050 C 
ATOM     24  C   UNL     1      -0.173  -0.174   7.391  0.00  0.00    -0.036 A 
ATOM     25  C   UNL     1       0.429  -0.878   8.393  0.00  0.00    +0.004 A 
ATOM     26  C   UNL     1       1.130  -0.184   9.371  0.00  0.00    +0.000 A 
ATOM     27  C   UNL     1       1.214   1.195   9.327  0.00  0.00    +0.000 A 
ATOM     28  C   UNL     1       0.598   1.905   8.304  0.00  0.00    +0.004 A 
ATOM     29  C   UNL     1      -0.089   1.216   7.346  0.00  0.00    -0.036 A 
ATOM     30  C   UNL     1      -0.811   1.853   6.169  0.00  0.00    +0.054 C 
ATOM     31  C   UNL     1      -2.231   1.311   6.236  0.00  0.00    -0.036 A 
ATOM     32  C   UNL     1      -2.315  -0.079   6.280  0.00  0.00    -0.036 A 
ATOM     33  C   UNL     1      -3.528  -0.704   6.340  0.00  0.00    +0.004 A 
ATOM     34  C   UNL     1      -4.680   0.072   6.357  0.00  0.00    +0.000 A 
ATOM     35  C   UNL     1      -4.596   1.451   6.314  0.00  0.00    +0.000 A 
ATOM     36  C   UNL     1      -3.359   2.079   6.253  0.00  0.00    +0.004 A 
ENDBRANCH  20  21
ENDBRANCH   3  20
TORSDOF 4
