REMARK  Name = ZINC47752091
REMARK  6 active torsions:
REMARK  status: ('A' for Active; 'I' for Inactive)
REMARK    1  A    between atoms: C_4  and  N_7
REMARK    2  A    between atoms: C_11  and  C_12
REMARK    3  A    between atoms: C_12  and  N_13
REMARK    4  A    between atoms: N_16  and  C_17
REMARK    5  A    between atoms: C_17  and  C_18
REMARK    6  A    between atoms: C_18  and  N_24
REMARK                            x       y       z     vdW  Elec       q    Type
REMARK                         _______ _______ _______ _____ _____    ______ ____
ROOT
ATOM      1  N   UNL     1       2.109  -6.509   5.609  0.00  0.00    -0.292 N 
ATOM      2  C   UNL     1       1.424  -5.886   4.630  0.00  0.00    +0.300 C 
ATOM      3  O   UNL     1       1.439  -4.672   4.554  0.00  0.00    -0.253 OA
ATOM      4  N   UNL     1       0.723  -6.608   3.734  0.00  0.00    -0.301 N 
ATOM      5  H   UNL     1       2.097  -7.477   5.670  0.00  0.00    +0.151 HD
ATOM      6  H   UNL     1       0.711  -7.576   3.794  0.00  0.00    +0.150 HD
ENDROOT
BRANCH   1   7
ATOM      7  C   UNL     1       2.872  -5.723   6.583  0.00  0.00    +0.182 C 
BRANCH   7  12
ATOM      8  N   UNL     1       4.781  -7.201   7.441  0.00  0.00    -0.284 N 
ATOM      9  C   UNL     1       4.963  -7.960   8.559  0.00  0.00    +0.230 A 
ATOM     10  N   UNL     1       3.880  -7.853   9.279  0.00  0.00    -0.137 NA
ATOM     11  N   UNL     1       3.037  -7.082   8.689  0.00  0.00    -0.133 NA
ATOM     12  C   UNL     1       3.540  -6.652   7.564  0.00  0.00    +0.155 A 
BRANCH   8  16
ATOM     13  C   UNL     1       7.472  -6.661   4.302  0.00  0.00    +0.000 A 
ATOM     14  C   UNL     1       7.893  -6.493   5.609  0.00  0.00    +0.002 A 
ATOM     15  C   UNL     1       7.003  -6.671   6.651  0.00  0.00    +0.026 A 
ATOM     16  C   UNL     1       5.686  -7.019   6.385  0.00  0.00    +0.049 A 
ATOM     17  C   UNL     1       5.266  -7.187   5.073  0.00  0.00    +0.026 A 
ATOM     18  C   UNL     1       6.160  -7.008   4.035  0.00  0.00    +0.002 A 
ENDBRANCH   8  16
ENDBRANCH   7  12
ENDBRANCH   1   7
BRANCH   4  19
ATOM     19  C   UNL     1      -0.022  -5.931   2.669  0.00  0.00    +0.094 C 
BRANCH  19  20
ATOM     20  C   UNL     1      -0.617  -6.974   1.721  0.00  0.00    -0.050 C 
ATOM     21  C   UNL     1      -1.282  -6.267   0.538  0.00  0.00    -0.010 C 
ATOM     22  C   UNL     1      -2.393  -5.350   1.050  0.00  0.00    -0.001 C 
ATOM     23  C   UNL     1      -3.437  -6.182   1.799  0.00  0.00    -0.000 C 
ATOM     24  C   UNL     1      -2.773  -6.889   2.982  0.00  0.00    -0.001 C 
ATOM     25  C   UNL     1      -1.661  -7.806   2.469  0.00  0.00    -0.010 C 
BRANCH  20  26
ATOM     26  N   UNL     1       0.450  -7.855   1.229  0.00  0.00    +0.384 N 
ATOM     27  C   UNL     1       1.472  -7.050   0.549  0.00  0.00    -0.078 C 
ATOM     28  C   UNL     1       2.626  -7.953   0.105  0.00  0.00    -0.019 C 
ATOM     29  C   UNL     1       2.092  -9.020  -0.855  0.00  0.00    -0.004 C 
ATOM     30  C   UNL     1       0.975  -9.804  -0.160  0.00  0.00    -0.019 C 
ATOM     31  C   UNL     1      -0.117  -8.833   0.293  0.00  0.00    -0.078 C 
ATOM     32  H   UNL     1       0.870  -8.340   2.007  0.00  0.00    -0.081 HD
ENDBRANCH  20  26
ENDBRANCH  19  20
ENDBRANCH   4  19
TORSDOF 6
