REMARK  Name = ZINC35350231
REMARK  8 active torsions:
REMARK  status: ('A' for Active; 'I' for Inactive)
REMARK    1  A    between atoms: C_1  and  C_2
REMARK    2  A    between atoms: C_5  and  N_9
REMARK    3  A    between atoms: C_6  and  C_8
REMARK    4  A    between atoms: C_10  and  C_12
REMARK    5  A    between atoms: C_13  and  C_39
REMARK    6  A    between atoms: C_17  and  C_19
REMARK    7  A    between atoms: C_22  and  N_25
REMARK    8  A    between atoms: N_28  and  C_29
REMARK                            x       y       z     vdW  Elec       q    Type
REMARK                         _______ _______ _______ _____ _____    ______ ____
ROOT
ATOM      1  C   UNL     1      -0.073  -6.205  -1.109  0.00  0.00    +0.058 C 
ATOM      2  C   UNL     1      -0.065  -6.885  -2.289  0.00  0.00    +0.025 C 
ATOM      3  N   UNL     1      -0.117  -8.215  -2.314  0.00  0.00    -0.341 N 
ATOM      4  C   UNL     1       0.078  -8.939  -1.224  0.00  0.00    +0.135 C 
ATOM      5  N   UNL     1       0.314  -8.335  -0.024  0.00  0.00    -0.300 N 
ATOM      6  C   UNL     1      -0.199  -6.972   0.186  0.00  0.00    +0.142 C 
ATOM      7  C   UNL     1       1.077  -8.963   1.047  0.00  0.00    +0.109 C 
ATOM      8  C   UNL     1       0.685 -10.416   1.273  0.00  0.00    +0.030 C 
ATOM      9  C   UNL     1       1.060 -11.244   0.037  0.00  0.00    +0.078 C 
ATOM     10  S   UNL     1      -0.001 -10.700  -1.336  0.00  0.00    -0.092 S 
ATOM     11  C   UNL     1       0.005  -6.120  -3.586  0.00  0.00    +0.064 C 
ATOM     12  H   UNL     1      -0.304  -8.665  -3.153  0.00  0.00    +0.167 HD
ENDROOT
BRANCH   6  13
ATOM     13  C   UNL     1      -1.648  -7.039   0.595  0.00  0.00    -0.022 A 
ATOM     14  C   UNL     1      -2.488  -7.969   0.011  0.00  0.00    +0.007 A 
ATOM     15  C   UNL     1      -3.816  -8.033   0.384  0.00  0.00    +0.024 A 
ATOM     16  C   UNL     1      -4.308  -7.162   1.347  0.00  0.00    +0.035 A 
ATOM     17  C   UNL     1      -3.461  -6.229   1.933  0.00  0.00    +0.024 A 
ATOM     18  C   UNL     1      -2.133  -6.174   1.559  0.00  0.00    +0.007 A 
BRANCH  16  19
ATOM     19  N   UNL     1      -5.653  -7.223   1.728  0.00  0.00    -0.269 N 
ATOM     20  C   UNL     1      -6.291  -8.410   1.757  0.00  0.00    +0.308 C 
ATOM     21  O   UNL     1      -5.673  -9.438   1.555  0.00  0.00    -0.252 OA
ATOM     22  N   UNL     1      -7.614  -8.458   2.011  0.00  0.00    -0.269 N 
ATOM     23  H   UNL     1      -6.126  -6.412   1.970  0.00  0.00    +0.156 HD
ATOM     24  H   UNL     1      -8.122  -7.636   2.090  0.00  0.00    +0.156 HD
BRANCH  22  25
ATOM     25  C   UNL     1      -8.253  -9.694   2.159  0.00  0.00    +0.035 A 
ATOM     26  C   UNL     1      -7.582 -10.759   2.745  0.00  0.00    +0.023 A 
ATOM     27  C   UNL     1      -8.216 -11.977   2.890  0.00  0.00    +0.002 A 
ATOM     28  C   UNL     1      -9.518 -12.137   2.453  0.00  0.00    +0.000 A 
ATOM     29  C   UNL     1     -10.189 -11.078   1.869  0.00  0.00    +0.002 A 
ATOM     30  C   UNL     1      -9.563  -9.856   1.727  0.00  0.00    +0.023 A 
ENDBRANCH  22  25
ENDBRANCH  16  19
ENDBRANCH   6  13
BRANCH   1  32
ATOM     31  N   UNL     1       0.092  -4.142   0.077  0.00  0.00    -0.281 N 
ATOM     32  C   UNL     1       0.042  -4.803  -1.096  0.00  0.00    +0.248 C 
ATOM     33  O   UNL     1       0.095  -4.186  -2.146  0.00  0.00    -0.270 OA
ATOM     34  H   UNL     1       0.138  -4.636   0.911  0.00  0.00    +0.155 HD
BRANCH  31  39
ATOM     35  C   UNL     1       0.039   1.529   0.143  0.00  0.00    +0.044 C 
ATOM     36  C   UNL     1       0.053   0.022   0.126  0.00  0.00    -0.050 A 
ATOM     37  C   UNL     1      -0.482  -0.660  -0.952  0.00  0.00    +0.005 A 
ATOM     38  C   UNL     1      -0.471  -2.041  -0.971  0.00  0.00    +0.024 A 
ATOM     39  C   UNL     1       0.080  -2.744   0.093  0.00  0.00    +0.037 A 
ATOM     40  C   UNL     1       0.617  -2.055   1.173  0.00  0.00    -0.029 A 
ATOM     41  C   UNL     1       0.607  -0.674   1.184  0.00  0.00    +0.008 A 
ATOM     42  C   UNL     1       1.214  -2.814   2.330  0.00  0.00    +0.045 C 
ENDBRANCH  31  39
ENDBRANCH   1  32
TORSDOF 5
