REMARK  Name = ZINC02782326
REMARK  8 active torsions:
REMARK  status: ('A' for Active; 'I' for Inactive)
REMARK    1  A    between atoms: C_1  and  C_2
REMARK    2  A    between atoms: C_4  and  C_32
REMARK    3  A    between atoms: N_6  and  C_7
REMARK    4  A    between atoms: C_7  and  C_9
REMARK    5  A    between atoms: C_7  and  C_10
REMARK    6  A    between atoms: N_12  and  C_13
REMARK    7  A    between atoms: C_14  and  C_24
REMARK    8  A    between atoms: C_19  and  C_23
REMARK                            x       y       z     vdW  Elec       q    Type
REMARK                         _______ _______ _______ _____ _____    ______ ____
ROOT
ATOM      1  C   UNL     1      -2.706   2.142  -2.537  0.00  0.00    +0.084 A 
ATOM      2  C   UNL     1      -4.017   1.897  -2.918  0.00  0.00    +0.069 A 
ATOM      3  C   UNL     1      -4.483   2.506  -4.153  0.00  0.00    -0.023 A 
ATOM      4  C   UNL     1      -3.566   3.251  -4.808  0.00  0.00    -0.004 A 
ATOM      5  S   UNL     1      -2.108   3.156  -3.808  0.00  0.00    -0.077 S 
ATOM      6  C   UNL     1      -3.756   3.989  -6.097  0.00  0.00    +0.046 C 
ATOM      7  C   UNL     1      -5.262   4.086  -6.381  0.00  0.00    -0.009 C 
ATOM      8  C   UNL     1      -5.890   2.703  -6.188  0.00  0.00    +0.008 C 
ATOM      9  C   UNL     1      -5.893   2.336  -4.703  0.00  0.00    +0.037 C 
ATOM     10  C   UNL     1      -5.483   4.556  -7.820  0.00  0.00    +0.008 C 
ENDROOT
BRANCH   2  11
ATOM     11  C   UNL     1      -4.902   1.057  -2.104  0.00  0.00    +0.249 C 
ATOM     12  O   UNL     1      -5.584   1.560  -1.231  0.00  0.00    -0.270 OA
ATOM     13  N   UNL     1      -4.959  -0.272  -2.323  0.00  0.00    -0.293 N 
ATOM     14  C   UNL     1      -4.147  -0.901  -3.377  0.00  0.00    +0.136 C 
ATOM     15  C   UNL     1      -3.398  -2.092  -2.758  0.00  0.00    +0.179 C 
ATOM     16  O   UNL     1      -4.336  -2.939  -2.088  0.00  0.00    -0.377 OA
ATOM     17  C   UNL     1      -5.011  -2.313  -0.994  0.00  0.00    +0.179 C 
ATOM     18  C   UNL     1      -5.838  -1.135  -1.519  0.00  0.00    +0.136 C 
ENDBRANCH   2  11
BRANCH   1  21
ATOM     19  C   UNL     1      -0.748   2.025  -1.210  0.00  0.00    +0.242 C 
ATOM     20  O   UNL     1      -0.175   2.735  -2.010  0.00  0.00    -0.273 OA
ATOM     21  N   UNL     1      -2.035   1.683  -1.413  0.00  0.00    -0.278 N 
ATOM     22  H   UNL     1      -2.493   1.116  -0.773  0.00  0.00    +0.155 HD
BRANCH  19  23
ATOM     23  C   UNL     1      -0.019   1.526   0.010  0.00  0.00    +0.190 C 
ATOM     24  C   UNL     1       0.002  -0.004   0.002  0.00  0.00    +0.042 C 
BRANCH  23  30
ATOM     25  C   UNL     1       1.252   3.323   2.196  0.00  0.00    +0.067 C 
ATOM     26  C   UNL     1       1.921   2.815   0.945  0.00  0.00    +0.056 A 
ATOM     27  C   UNL     1       3.197   3.062   0.566  0.00  0.00    +0.093 A 
ATOM     28  C   UNL     1       3.419   2.408  -0.651  0.00  0.00    +0.184 A 
ATOM     29  N   UNL     1       2.317   1.787  -0.989  0.00  0.00    -0.165 NA
ATOM     30  N   UNL     1       1.356   2.033   0.000  0.00  0.00    -0.255 N 
ATOM     31 CL   UNL     1       4.354   4.020   1.436  0.00  0.00    -0.079 Cl
BRANCH  28  32
ATOM     32  C   UNL     1       4.705   2.413  -1.436  0.00  0.00    +0.437 C 
ATOM     33  F   UNL     1       5.505   1.340  -1.028  0.00  0.00    -0.164 F 
ATOM     34  F   UNL     1       4.421   2.291  -2.800  0.00  0.00    -0.164 F 
ATOM     35  F   UNL     1       5.386   3.614  -1.207  0.00  0.00    -0.164 F 
ENDBRANCH  28  32
ENDBRANCH  23  30
ENDBRANCH  19  23
ENDBRANCH   1  21
TORSDOF 5
