REMARK  Name = ZINC12219039
REMARK  7 active torsions:
REMARK  status: ('A' for Active; 'I' for Inactive)
REMARK    1  A    between atoms: C_3  and  C_6
REMARK    2  A    between atoms: C_6  and  N_61
REMARK    3  A    between atoms: C_9  and  C_12
REMARK    4  A    between atoms: C_9  and  O_34
REMARK    5  A    between atoms: C_19  and  C_21
REMARK    6  A    between atoms: N_23  and  C_24
REMARK    7  A    between atoms: C_24  and  C_25
REMARK                            x       y       z     vdW  Elec       q    Type
REMARK                         _______ _______ _______ _____ _____    ______ ____
ROOT
ATOM      1  C   UNL     1      11.614  -2.938  -2.406  0.00  0.00    -0.015 A 
ATOM      2  C   UNL     1      10.533  -2.951  -3.277  0.00  0.00    +0.010 A 
ATOM      3  C   UNL     1       9.270  -2.619  -2.838  0.00  0.00    +0.047 A 
ATOM      4  C   UNL     1       9.070  -2.266  -1.508  0.00  0.00    +0.136 A 
ATOM      5  C   UNL     1      10.169  -2.254  -0.629  0.00  0.00    +0.021 A 
ATOM      6  C   UNL     1      11.442  -2.594  -1.095  0.00  0.00    +0.018 A 
ATOM      7  C   UNL     1       9.633  -1.849   0.670  0.00  0.00    +0.063 A 
ATOM      8  C   UNL     1       8.302  -1.654   0.484  0.00  0.00    +0.190 A 
ATOM      9  O   UNL     1       7.980  -1.908  -0.802  0.00  0.00    -0.450 OA
ENDROOT
BRANCH   1  12
ATOM     10  C   UNL     1      14.250  -4.627  -4.608  0.00  0.00    -0.075 C 
ATOM     11  C   UNL     1      12.858  -4.305  -4.061  0.00  0.00    +0.021 C 
ATOM     12  C   UNL     1      12.986  -3.304  -2.909  0.00  0.00    +0.088 C 
ATOM     13  C   UNL     1      13.699  -2.046  -3.412  0.00  0.00    +0.021 C 
ATOM     14  C   UNL     1      15.067  -2.434  -3.980  0.00  0.00    -0.075 C 
ATOM     15  N   UNL     1      14.873  -3.379  -5.100  0.00  0.00    +0.385 N 
ATOM     16  H   UNL     1      14.252  -2.949  -5.795  0.00  0.00    -0.081 HD
BRANCH  12  17
ATOM     17  O   UNL     1      13.743  -3.891  -1.849  0.00  0.00    -0.384 OA
ATOM     18  H   UNL     1      13.866  -3.310  -1.085  0.00  0.00    +0.211 HD
ENDBRANCH  12  17
BRANCH  15  19
ATOM     19  C   UNL     1      16.171  -3.680  -5.737  0.00  0.00    -0.003 C 
BRANCH  19  22
ATOM     20  C   UNL     1      18.230  -0.624  -5.769  0.00  0.00    +0.041 A 
ATOM     21  C   UNL     1      17.777  -1.805  -5.139  0.00  0.00    +0.042 A 
ATOM     22  C   UNL     1      16.910  -2.390  -5.985  0.00  0.00    +0.089 A 
ATOM     23  O   UNL     1      16.819  -1.633  -7.090  0.00  0.00    -0.470 OA
ATOM     24  C   UNL     1      17.613  -0.557  -6.963  0.00  0.00    +0.195 A 
ENDBRANCH  19  22
ENDBRANCH  15  19
ENDBRANCH   1  12
BRANCH   8  25
ATOM     25  C   UNL     1       7.355  -1.236   1.526  0.00  0.00    +0.280 C 
ATOM     26  O   UNL     1       7.747  -1.036   2.660  0.00  0.00    -0.267 OA
ATOM     27  N   UNL     1       6.051  -1.073   1.226  0.00  0.00    -0.305 N 
ATOM     28  H   UNL     1       5.738  -1.231   0.322  0.00  0.00    +0.149 HD
BRANCH  27  29
ATOM     29  C   UNL     1       5.107  -0.655   2.265  0.00  0.00    +0.140 C 
BRANCH  29  30
ATOM     30  C   UNL     1       3.725  -0.548   1.674  0.00  0.00    -0.027 A 
ATOM     31  C   UNL     1       2.885  -1.646   1.677  0.00  0.00    +0.009 A 
ATOM     32  C   UNL     1       1.617  -1.553   1.135  0.00  0.00    +0.050 A 
ATOM     33  C   UNL     1       1.183  -0.356   0.589  0.00  0.00    +0.166 A 
ATOM     34  C   UNL     1       2.028   0.751   0.586  0.00  0.00    +0.167 A 
ATOM     35  C   UNL     1       3.298   0.650   1.131  0.00  0.00    +0.054 A 
ATOM     36  O   UNL     1       1.376   1.797  -0.001  0.00  0.00    -0.453 OA
ATOM     37  C   UNL     1      -0.018   1.436   0.010  0.00  0.00    +0.466 C 
ATOM     38  O   UNL     1       0.002  -0.004   0.002  0.00  0.00    -0.453 OA
ENDBRANCH  29  30
ENDBRANCH  27  29
ENDBRANCH   8  25
TORSDOF 7
