REMARK  Name = ZINC20598896
REMARK  11 active torsions:
REMARK  status: ('A' for Active; 'I' for Inactive)
REMARK    1  A    between atoms: C_1  and  C_2
REMARK    2  A    between atoms: C_2  and  C_3
REMARK    3  A    between atoms: C_2  and  C_4
REMARK    4  A    between atoms: C_7  and  C_10
REMARK    5  A    between atoms: C_10  and  N_11
REMARK    6  A    between atoms: N_11  and  C_12
REMARK    7  A    between atoms: C_15  and  C_27
REMARK    8  A    between atoms: N_17  and  C_19
REMARK    9  A    between atoms: C_19  and  C_20
REMARK   10  A    between atoms: N_29  and  C_30
REMARK   11  A    between atoms: C_30  and  C_31
REMARK                            x       y       z     vdW  Elec       q    Type
REMARK                         _______ _______ _______ _____ _____    ______ ____
ROOT
ATOM      1  C   UNL     1       1.475   8.227  -4.864  0.00  0.00    -0.055 C 
ATOM      2  C   UNL     1       1.340   7.154  -3.752  0.00  0.00    +0.014 C 
ATOM      3  C   UNL     1       0.068   7.631  -3.009  0.00  0.00    +0.142 C 
ATOM      4  N   UNL     1       0.148   9.107  -3.026  0.00  0.00    -0.289 NA
ATOM      5  C   UNL     1       0.996   9.516  -4.163  0.00  0.00    +0.070 C 
ENDROOT
BRANCH   3   6
ATOM      6  C   UNL     1       0.066   7.122  -1.591  0.00  0.00    +0.230 C 
ATOM      7  O   UNL     1       0.098   7.906  -0.665  0.00  0.00    -0.274 OA
ATOM      8  N   UNL     1       0.030   5.797  -1.350  0.00  0.00    -0.310 N 
ATOM      9  H   UNL     1       0.001   5.086  -2.189  0.00  0.00    +0.149 HD
BRANCH   8  10
ATOM     10  C   UNL     1       0.029   5.302   0.029  0.00  0.00    +0.141 C 
BRANCH  10  11
ATOM     11  C   UNL     1      -0.015   3.796   0.022  0.00  0.00    -0.012 A 
ATOM     12  C   UNL     1      -1.231   3.129   0.030  0.00  0.00    +0.008 A 
ATOM     13  C   UNL     1      -1.223   1.743   0.017  0.00  0.00    +0.020 A 
ATOM     14  C   UNL     1      -0.013   1.076   0.008  0.00  0.00    +0.111 A 
ATOM     15  N   UNL     1       1.125   1.743   0.001  0.00  0.00    -0.263 NA
ATOM     16  C   UNL     1       1.155   3.062   0.007  0.00  0.00    +0.115 A 
ENDBRANCH  10  11
ENDBRANCH   8  10
ENDBRANCH   3   6
BRANCH   1  17
ATOM     17  N   UNL     1       2.873   8.358  -5.293  0.00  0.00    +0.384 N 
ATOM     18  H   UNL     1       3.351   7.369  -5.245  0.00  0.00    -0.085 HD
ATOM     19  H   UNL     1       3.389   9.049  -4.610  0.00  0.00    -0.085 HD
BRANCH  17  20
ATOM     20  C   UNL     1       2.957   8.875  -6.666  0.00  0.00    -0.046 C 
BRANCH  20  24
ATOM     21  C   UNL     1       7.057   9.217  -7.812  0.00  0.00    -0.045 A 
ATOM     22  C   UNL     1       6.369   8.042  -8.050  0.00  0.00    +0.004 A 
ATOM     23  C   UNL     1       5.042   7.932  -7.679  0.00  0.00    +0.002 A 
ATOM     24  C   UNL     1       4.403   8.996  -7.070  0.00  0.00    -0.064 A 
ATOM     25  C   UNL     1       5.090  10.173  -6.838  0.00  0.00    +0.002 A 
ATOM     26  C   UNL     1       6.419  10.282  -7.205  0.00  0.00    +0.004 A 
BRANCH  21  28
ATOM     27  C   UNL     1       8.661  10.483  -9.218  0.00  0.00    +0.012 C 
ATOM     28  C   UNL     1       8.504   9.337  -8.216  0.00  0.00    +0.013 C 
ATOM     29  C   UNL     1       9.357   9.623  -6.978  0.00  0.00    +0.012 C 
ENDBRANCH  21  28
ENDBRANCH  20  24
ENDBRANCH  17  20
ENDBRANCH   1  17
BRANCH   4  30
ATOM     30  C   UNL     1      -1.190   9.706  -3.122  0.00  0.00    +0.120 C 
BRANCH  30  31
ATOM     31  C   UNL     1      -1.092  11.192  -2.891  0.00  0.00    -0.033 A 
ATOM     32  C   UNL     1      -1.214  11.702  -1.611  0.00  0.00    +0.006 A 
ATOM     33  C   UNL     1      -1.119  13.065  -1.398  0.00  0.00    +0.020 A 
ATOM     34  C   UNL     1      -0.913  13.919  -2.467  0.00  0.00    +0.041 A 
ATOM     35  C   UNL     1      -0.797  13.409  -3.748  0.00  0.00    +0.020 A 
ATOM     36  C   UNL     1      -0.887  12.046  -3.959  0.00  0.00    +0.006 A 
ATOM     37 CL   UNL     1      -0.800  15.631  -2.201  0.00  0.00    -0.084 Cl
ENDBRANCH  30  31
ENDBRANCH   4  30
TORSDOF 9
