REMARK  Name = ZINC20082311
REMARK  12 active torsions:
REMARK  status: ('A' for Active; 'I' for Inactive)
REMARK    1  A    between atoms: C_1  and  C_2
REMARK    2  A    between atoms: C_9  and  C_14
REMARK    3  A    between atoms: C_14  and  C_16
REMARK    4  A    between atoms: C_14  and  N_25
REMARK    5  A    between atoms: N_20  and  C_21
REMARK    6  A    between atoms: C_21  and  C_22
REMARK    7  A    between atoms: C_22  and  O_23
REMARK    8  A    between atoms: O_23  and  C_24
REMARK    9  A    between atoms: N_25  and  C_26
REMARK   10  A    between atoms: N_25  and  C_34
REMARK   11  A    between atoms: C_26  and  C_27
REMARK   12  A    between atoms: C_34  and  C_35
REMARK                            x       y       z     vdW  Elec       q    Type
REMARK                         _______ _______ _______ _____ _____    ______ ____
ROOT
ATOM      1  C   UNL     1      -2.027  -0.585   0.157  0.00  0.00    +0.163 C 
ENDROOT
BRANCH   1  10
ATOM      2  C   UNL     1       4.884   0.636   2.679  0.00  0.00    +0.044 C 
ATOM      3  C   UNL     1       3.589   1.141   2.097  0.00  0.00    -0.050 A 
ATOM      4  C   UNL     1       3.435   2.496   1.835  0.00  0.00    +0.005 A 
ATOM      5  C   UNL     1       2.259   2.980   1.304  0.00  0.00    +0.026 A 
ATOM      6  C   UNL     1       1.215   2.104   1.026  0.00  0.00    +0.049 A 
ATOM      7  C   UNL     1       1.375   0.731   1.292  0.00  0.00    -0.001 A 
ATOM      8  C   UNL     1       2.577   0.263   1.832  0.00  0.00    +0.013 A 
ATOM      9  C   UNL     1       0.271  -0.183   0.996  0.00  0.00    +0.021 A 
ATOM     10  C   UNL     1      -0.871   0.329   0.473  0.00  0.00    +0.042 A 
ATOM     11  C   UNL     1      -0.981   1.714   0.224  0.00  0.00    +0.254 A 
ATOM     12  O   UNL     1      -2.014   2.152  -0.251  0.00  0.00    -0.268 OA
ATOM     13  N   UNL     1       0.028   2.561   0.493  0.00  0.00    -0.322 N 
ATOM     14  H   UNL     1      -0.104   3.632   0.282  0.00  0.00    +0.169 HD
ENDBRANCH   1  10
BRANCH   1  15
ATOM     15  C   UNL     1      -3.196  -0.242   1.045  0.00  0.00    +0.173 A 
ATOM     16  N   UNL     1      -3.985   0.798   0.933  0.00  0.00    -0.111 NA
ATOM     17  N   UNL     1      -4.861   0.737   1.876  0.00  0.00    -0.023 NA
ATOM     18  N   UNL     1      -4.646  -0.312   2.591  0.00  0.00    -0.044 NA
ATOM     19  N   UNL     1      -3.627  -0.941   2.111  0.00  0.00    -0.225 N 
BRANCH  19  20
ATOM     20  C   UNL     1      -3.049  -2.183   2.629  0.00  0.00    +0.175 C 
BRANCH  20  21
ATOM     21  C   UNL     1      -1.972  -1.852   3.665  0.00  0.00    +0.183 C 
BRANCH  21  22
ATOM     22  O   UNL     1      -1.408  -3.063   4.170  0.00  0.00    -0.381 OA
ATOM     23  C   UNL     1      -0.387  -2.865   5.150  0.00  0.00    +0.194 C 
ENDBRANCH  21  22
ENDBRANCH  20  21
ENDBRANCH  19  20
ENDBRANCH   1  15
BRANCH   1  24
ATOM     24  N   UNL     1      -2.415  -0.415  -1.250  0.00  0.00    -0.277 NA
BRANCH  24  25
ATOM     25  C   UNL     1      -1.298  -0.741  -2.147  0.00  0.00    +0.121 C 
BRANCH  25  26
ATOM     26  C   UNL     1      -0.813  -2.138  -1.857  0.00  0.00    -0.033 A 
ATOM     27  C   UNL     1       0.284  -2.331  -1.038  0.00  0.00    +0.008 A 
ATOM     28  C   UNL     1       0.728  -3.612  -0.767  0.00  0.00    +0.038 A 
ATOM     29  C   UNL     1       0.080  -4.701  -1.325  0.00  0.00    +0.123 A 
ATOM     30  C   UNL     1      -1.016  -4.505  -2.150  0.00  0.00    +0.038 A 
ATOM     31  C   UNL     1      -1.460  -3.224  -2.414  0.00  0.00    +0.008 A 
ATOM     32  F   UNL     1       0.515  -5.953  -1.065  0.00  0.00    -0.205 F 
ENDBRANCH  25  26
ENDBRANCH  24  25
BRANCH  24  33
ATOM     33  C   UNL     1      -3.600  -1.221  -1.570  0.00  0.00    +0.160 C 
BRANCH  33  34
ATOM     34  C   UNL     1      -4.239  -0.697  -2.830  0.00  0.00    +0.119 A 
ATOM     35  C   UNL     1      -3.891  -1.030  -4.086  0.00  0.00    +0.046 A 
ATOM     36  C   UNL     1      -4.744  -0.310  -4.953  0.00  0.00    +0.041 A 
ATOM     37  C   UNL     1      -5.563   0.420  -4.175  0.00  0.00    +0.195 A 
ATOM     38  O   UNL     1      -5.256   0.177  -2.890  0.00  0.00    -0.467 OA
ENDBRANCH  33  34
ENDBRANCH  24  33
ENDBRANCH   1  24
TORSDOF 10
