REMARK  Name = ZINC51127244
REMARK  6 active torsions:
REMARK  status: ('A' for Active; 'I' for Inactive)
REMARK    1  A    between atoms: C_2  and  C_13
REMARK    2  A    between atoms: C_3  and  N_10
REMARK    3  A    between atoms: C_6  and  N_7
REMARK    4  A    between atoms: N_7  and  N_8
REMARK    5  A    between atoms: N_15  and  C_16
REMARK    6  A    between atoms: C_16  and  C_17
REMARK                            x       y       z     vdW  Elec       q    Type
REMARK                         _______ _______ _______ _____ _____    ______ ____
ROOT
ATOM      1  C   UNL     1      -0.086   1.238  -0.052  0.00  0.00    +0.042 A 
ATOM      2  C   UNL     1       1.030   2.078  -0.095  0.00  0.00    +0.069 A 
ATOM      3  C   UNL     1       2.313   1.530  -0.048  0.00  0.00    +0.141 A 
ATOM      4  C   UNL     1       2.477   0.163   0.040  0.00  0.00    +0.073 A 
ATOM      5  C   UNL     1       1.372  -0.670   0.083  0.00  0.00    +0.148 A 
ATOM      6  C   UNL     1       0.088  -0.132   0.037  0.00  0.00    +0.077 A 
ATOM      7  F   UNL     1       1.539  -2.008   0.169  0.00  0.00    -0.203 F 
ENDROOT
BRANCH   2   8
ATOM      8  C   UNL     1       0.852   3.541  -0.191  0.00  0.00    +0.246 C 
ATOM      9  O   UNL     1       1.816   4.277  -0.109  0.00  0.00    -0.270 OA
ATOM     10  N   UNL     1      -0.379   4.061  -0.369  0.00  0.00    -0.311 N 
ATOM     11  H   UNL     1      -1.148   3.473  -0.434  0.00  0.00    +0.149 HD
BRANCH  10  12
ATOM     12  C   UNL     1      -0.555   5.512  -0.464  0.00  0.00    +0.108 C 
BRANCH  12  13
ATOM     13  C   UNL     1      -2.038   5.834  -0.663  0.00  0.00    +0.006 C 
ATOM     14  C   UNL     1      -2.476   5.833  -2.137  0.00  0.00    +0.005 C 
ATOM     15  C   UNL     1      -3.333   7.065  -1.801  0.00  0.00    +0.001 C 
ATOM     16  C   UNL     1      -2.348   7.340  -0.653  0.00  0.00    +0.005 C 
ENDBRANCH  12  13
ENDBRANCH  10  12
ENDBRANCH   2   8
BRANCH   3  17
ATOM     17  N   UNL     1       3.498   2.416  -0.093  0.00  0.00    +0.057 N 
ATOM     18  O   UNL     1       3.594   3.253  -0.961  0.00  0.00    -0.126 OA
ATOM     19  O   UNL     1       4.369   2.303   0.737  0.00  0.00    -0.126 OA
ENDBRANCH   3  17
BRANCH   6  20
ATOM     20  N   UNL     1      -1.026  -0.977   0.080  0.00  0.00    -0.280 N 
ATOM     21  H   UNL     1      -0.905  -1.937   0.143  0.00  0.00    +0.166 HD
BRANCH  20  22
ATOM     22  N   UNL     1      -2.285  -0.450   0.035  0.00  0.00    -0.256 NA
ATOM     23  H   UNL     1      -2.984  -1.177   0.075  0.00  0.00    +0.140 HD
ATOM     24  H   UNL     1      -2.422   0.224   0.774  0.00  0.00    +0.140 HD
ENDBRANCH  20  22
ENDBRANCH   6  20
TORSDOF 6
