REMARK  Name = ZINC40070210
REMARK  10 active torsions:
REMARK  status: ('A' for Active; 'I' for Inactive)
REMARK    1  A    between atoms: C_1  and  C_2
REMARK    2  A    between atoms: C_8  and  C_13
REMARK    3  A    between atoms: C_9  and  C_12
REMARK    4  A    between atoms: C_13  and  C_14
REMARK    5  A    between atoms: N_16  and  C_17
REMARK    6  A    between atoms: C_19  and  C_30
REMARK    7  A    between atoms: N_21  and  C_22
REMARK    8  A    between atoms: C_30  and  C_31
REMARK    9  A    between atoms: C_30  and  C_32
REMARK   10  A    between atoms: C_30  and  C_33
REMARK                            x       y       z     vdW  Elec       q    Type
REMARK                         _______ _______ _______ _____ _____    ______ ____
ROOT
ATOM      1  C   UNL     1      -1.360  -2.805   4.217  0.00  0.00    +0.223 C 
ATOM      2  O   UNL     1      -2.284  -2.943   3.443  0.00  0.00    -0.275 OA
ATOM      3  N   UNL     1      -1.602  -2.597   5.526  0.00  0.00    -0.270 N 
ATOM      4  H   UNL     1      -0.863  -2.487   6.144  0.00  0.00    +0.156 HD
ENDROOT
BRANCH   3   5
ATOM      5  C   UNL     1      -2.916  -2.540   5.992  0.00  0.00    +0.124 A 
ATOM      6  C   UNL     1      -4.042  -2.683   5.241  0.00  0.00    +0.069 A 
ATOM      7  C   UNL     1      -5.143  -2.559   6.093  0.00  0.00    +0.070 A 
ATOM      8  N   UNL     1      -4.702  -2.350   7.307  0.00  0.00    -0.174 NA
ATOM      9  N   UNL     1      -3.301  -2.338   7.272  0.00  0.00    -0.246 N 
BRANCH   9  10
ATOM     10  C   UNL     1      -2.412  -2.140   8.419  0.00  0.00    +0.132 C 
ATOM     11  C   UNL     1      -2.705  -0.774   9.062  0.00  0.00    +0.051 C 
ATOM     12  C   UNL     1      -1.984  -0.722  10.440  0.00  0.00    +0.168 C 
ATOM     13  S   UNL     1      -2.306  -2.430  11.053  0.00  0.00    -0.029 S 
ATOM     14  O   UNL     1      -3.494  -2.425  11.832  0.00  0.00    -0.174 OA
ATOM     15  O   UNL     1      -1.108  -2.955  11.607  0.00  0.00    -0.174 OA
ATOM     16  C   UNL     1      -2.646  -3.268   9.452  0.00  0.00    +0.192 C 
ENDBRANCH   9  10
BRANCH   7  17
ATOM     17  C   UNL     1      -6.590  -2.650   5.684  0.00  0.00    +0.006 C 
ATOM     18  C   UNL     1      -6.955  -4.112   5.420  0.00  0.00    +0.017 C 
ATOM     19  C   UNL     1      -7.473  -2.099   6.806  0.00  0.00    +0.017 C 
ATOM     20  C   UNL     1      -6.812  -1.831   4.411  0.00  0.00    +0.017 C 
ENDBRANCH   7  17
ENDBRANCH   3   5
BRANCH   1  21
ATOM     21  C   UNL     1       0.059  -2.867   3.713  0.00  0.00    +0.133 C 
BRANCH  21  29
ATOM     22  C   UNL     1      -0.018   1.503   0.010  0.00  0.00    +0.044 C 
ATOM     23  C   UNL     1       0.002  -0.004   0.002  0.00  0.00    -0.050 A 
ATOM     24  C   UNL     1       0.006  -0.686  -1.207  0.00  0.00    +0.005 A 
ATOM     25  C   UNL     1       0.024  -2.063  -1.237  0.00  0.00    +0.026 A 
ATOM     26  C   UNL     1       0.039  -2.780  -0.045  0.00  0.00    +0.047 A 
ATOM     27  C   UNL     1       0.036  -2.084   1.178  0.00  0.00    +0.004 A 
ATOM     28  C   UNL     1       0.023  -0.688   1.185  0.00  0.00    +0.013 A 
ATOM     29  C   UNL     1       0.055  -3.107   2.226  0.00  0.00    -0.011 A 
ATOM     30  C   UNL     1       0.067  -4.300   1.610  0.00  0.00    +0.018 A 
ATOM     31  N   UNL     1       0.058  -4.124   0.253  0.00  0.00    -0.358 N 
ATOM     32  H   UNL     1       0.065  -4.840  -0.402  0.00  0.00    +0.166 HD
ATOM     33  C   UNL     1       0.088  -5.635   2.309  0.00  0.00    +0.063 C 
ENDBRANCH  21  29
ENDBRANCH   1  21
TORSDOF 5
