REMARK  Name = ZINC10000542
REMARK  14 active torsions:
REMARK  status: ('A' for Active; 'I' for Inactive)
REMARK    1  A    between atoms: C_1  and  C_2
REMARK    2  A    between atoms: C_2  and  C_3
REMARK    3  A    between atoms: C_3  and  O_4
REMARK    4  A    between atoms: O_4  and  C_5
REMARK    5  A    between atoms: C_5  and  C_7
REMARK    6  A    between atoms: C_10  and  C_13
REMARK    7  A    between atoms: C_16  and  C_18
REMARK    8  A    between atoms: N_19  and  N_20
REMARK    9  A    between atoms: C_21  and  C_23
REMARK   10  A    between atoms: C_23  and  C_25
REMARK   11  A    between atoms: C_23  and  N_28
REMARK   12  A    between atoms: C_25  and  C_26
REMARK   13  A    between atoms: C_25  and  C_27
REMARK   14  A    between atoms: C_29  and  C_31
REMARK                            x       y       z     vdW  Elec       q    Type
REMARK                         _______ _______ _______ _____ _____    ______ ____
ROOT
ATOM      1  C   UNL     1      -2.617   2.258   2.590  0.00  0.00    +0.176 C 
ATOM      2  N   UNL     1      -1.682   1.531   2.051  0.00  0.00    -0.185 NA
ENDROOT
BRANCH   1   6
ATOM      3  C   UNL     1      -2.108   5.708   1.633  0.00  0.00    +0.136 A 
ATOM      4  C   UNL     1      -3.141   5.875   2.510  0.00  0.00    +0.050 A 
ATOM      5  C   UNL     1      -3.482   4.605   2.989  0.00  0.00    +0.051 A 
ATOM      6  C   UNL     1      -2.628   3.708   2.384  0.00  0.00    +0.148 A 
ATOM      7  O   UNL     1      -1.808   4.397   1.565  0.00  0.00    -0.454 OA
BRANCH   3  11
ATOM      8  C   UNL     1      -0.170   8.802  -0.521  0.00  0.00    +0.059 A 
ATOM      9  C   UNL     1       0.168   7.465  -0.759  0.00  0.00    +0.015 A 
ATOM     10  C   UNL     1      -0.456   6.469  -0.066  0.00  0.00    +0.012 A 
ATOM     11  C   UNL     1      -1.434   6.784   0.884  0.00  0.00    +0.017 A 
ATOM     12  C   UNL     1      -1.776   8.120   1.119  0.00  0.00    +0.012 A 
ATOM     13  C   UNL     1      -1.148   9.117   0.429  0.00  0.00    +0.015 A 
BRANCH   8  14
ATOM     14  C   UNL     1       0.503   9.878  -1.271  0.00  0.00    +0.339 C 
ATOM     15  O   UNL     1       1.352   9.604  -2.096  0.00  0.00    -0.245 OA
BRANCH  14  16
ATOM     16  O   UNL     1       0.177  11.165  -1.041  0.00  0.00    -0.461 OA
BRANCH  16  17
ATOM     17  C   UNL     1       0.881  12.171  -1.816  0.00  0.00    +0.232 C 
BRANCH  17  19
ATOM     18  C   UNL     1       1.121  14.623  -2.236  0.00  0.00    +0.007 C 
ATOM     19  C   UNL     1       0.380  13.562  -1.420  0.00  0.00    +0.038 C 
ENDBRANCH  17  19
ENDBRANCH  16  17
ENDBRANCH  14  16
ENDBRANCH   8  14
ENDBRANCH   3  11
ENDBRANCH   1   6
BRANCH   2  20
ATOM     20  N   UNL     1      -0.601   2.146   1.405  0.00  0.00    -0.205 N 
ATOM     21  C   UNL     1       0.309   1.397   0.752  0.00  0.00    +0.253 C 
ATOM     22  O   UNL     1       1.301   1.917   0.286  0.00  0.00    -0.272 OA
ATOM     23  H   UNL     1      -0.508   3.111   1.428  0.00  0.00    +0.177 HD
BRANCH  21  24
ATOM     24  C   UNL     1       0.097  -0.088   0.606  0.00  0.00    +0.163 C 
BRANCH  24  25
ATOM     25  N   UNL     1       1.372  -0.734   0.283  0.00  0.00    -0.300 N 
ATOM     26  C   UNL     1       1.567  -2.032   0.589  0.00  0.00    +0.246 C 
ATOM     27  O   UNL     1       0.684  -2.667   1.134  0.00  0.00    -0.270 OA
ATOM     28  H   UNL     1       2.076  -0.227  -0.151  0.00  0.00    +0.150 HD
BRANCH  26  29
ATOM     29  C   UNL     1       2.852  -2.683   0.263  0.00  0.00    +0.055 A 
ATOM     30  C   UNL     1       3.865  -1.958  -0.367  0.00  0.00    +0.014 A 
ATOM     31  C   UNL     1       5.065  -2.570  -0.664  0.00  0.00    +0.001 A 
ATOM     32  C   UNL     1       5.263  -3.904  -0.348  0.00  0.00    +0.001 A 
ATOM     33  C   UNL     1       4.262  -4.630   0.271  0.00  0.00    +0.021 A 
ATOM     34  C   UNL     1       3.058  -4.028   0.579  0.00  0.00    +0.053 A 
ATOM     35 CL   UNL     1       1.802  -4.941   1.356  0.00  0.00    -0.083 Cl
ENDBRANCH  26  29
ENDBRANCH  24  25
BRANCH  24  36
ATOM     36  C   UNL     1      -0.908  -0.352  -0.517  0.00  0.00    +0.012 C 
ATOM     37  C   UNL     1      -1.097  -1.861  -0.688  0.00  0.00    +0.009 C 
ATOM     38  C   UNL     1      -2.249   0.294  -0.164  0.00  0.00    +0.009 C 
ENDBRANCH  24  36
ENDBRANCH  21  24
ENDBRANCH   2  20
TORSDOF 11
