REMARK  Name = ZINC03327888
REMARK  10 active torsions:
REMARK  status: ('A' for Active; 'I' for Inactive)
REMARK    1  A    between atoms: C_1  and  C_2
REMARK    2  A    between atoms: C_2  and  N_3
REMARK    3  A    between atoms: C_10  and  C_18
REMARK    4  A    between atoms: C_11  and  C_12
REMARK    5  A    between atoms: C_18  and  C_20
REMARK    6  A    between atoms: C_20  and  O_21
REMARK    7  A    between atoms: O_21  and  C_22
REMARK    8  A    between atoms: C_22  and  C_24
REMARK    9  A    between atoms: C_28  and  N_29
REMARK   10  A    between atoms: C_30  and  C_32
REMARK                            x       y       z     vdW  Elec       q    Type
REMARK                         _______ _______ _______ _____ _____    ______ ____
ROOT
ATOM      1  C   UNL     1      -4.416   5.720   2.567  0.00  0.00    +0.203 C 
ATOM      2  O   UNL     1      -4.274   4.983   3.521  0.00  0.00    -0.288 OA
ENDROOT
BRANCH   1  10
ATOM      3  N   UNL     1      -5.028   9.076   3.762  0.00  0.00    -0.340 N 
ATOM      4  C   UNL     1      -5.083   9.331   2.406  0.00  0.00    +0.050 A 
ATOM      5  C   UNL     1      -5.303  10.493   1.673  0.00  0.00    +0.026 A 
ATOM      6  C   UNL     1      -5.303  10.449   0.295  0.00  0.00    +0.002 A 
ATOM      7  C   UNL     1      -5.086   9.254  -0.373  0.00  0.00    +0.001 A 
ATOM      8  C   UNL     1      -4.867   8.092   0.334  0.00  0.00    +0.011 A 
ATOM      9  C   UNL     1      -4.864   8.122   1.727  0.00  0.00    +0.011 A 
ATOM     10  C   UNL     1      -4.668   7.096   2.768  0.00  0.00    +0.054 A 
ATOM     11  C   UNL     1      -4.789   7.755   3.989  0.00  0.00    +0.061 A 
BRANCH  11  12
ATOM     12  C   UNL     1      -4.672   7.123   5.318  0.00  0.00    -0.001 A 
ATOM     13  C   UNL     1      -3.910   7.730   6.319  0.00  0.00    +0.010 A 
ATOM     14  C   UNL     1      -3.809   7.136   7.560  0.00  0.00    +0.001 A 
ATOM     15  C   UNL     1      -4.452   5.936   7.810  0.00  0.00    +0.000 A 
ATOM     16  C   UNL     1      -5.203   5.326   6.821  0.00  0.00    +0.001 A 
ATOM     17  C   UNL     1      -5.317   5.911   5.578  0.00  0.00    +0.010 A 
ENDBRANCH  11  12
BRANCH   3  19
ATOM     18  C   UNL     1      -6.690  10.173   5.182  0.00  0.00    +0.027 C 
ATOM     19  C   UNL     1      -5.208  10.084   4.809  0.00  0.00    +0.119 C 
ENDBRANCH   3  19
ENDBRANCH   1  10
BRANCH   1  20
ATOM     20  C   UNL     1      -4.322   5.168   1.167  0.00  0.00    +0.312 C 
BRANCH  20  21
ATOM     21  O   UNL     1      -4.058   3.741   1.227  0.00  0.00    -0.453 OA
BRANCH  21  22
ATOM     22  C   UNL     1      -3.945   3.090   0.051  0.00  0.00    +0.342 C 
ATOM     23  O   UNL     1      -4.063   3.699  -0.995  0.00  0.00    -0.245 OA
BRANCH  22  24
ATOM     24  C   UNL     1      -3.680   1.650   0.034  0.00  0.00    +0.091 A 
ATOM     25  C   UNL     1      -4.765   0.683   0.028  0.00  0.00    -0.021 A 
ATOM     26  C   UNL     1      -4.381  -0.611   0.020  0.00  0.00    -0.004 A 
ATOM     27  S   UNL     1      -2.612  -0.560   0.012  0.00  0.00    -0.077 S 
ATOM     28  C   UNL     1      -2.381   1.157   0.020  0.00  0.00    +0.086 A 
ATOM     29  C   UNL     1      -5.271  -1.817   0.018  0.00  0.00    +0.043 C 
ATOM     30  C   UNL     1      -6.689  -1.372   0.405  0.00  0.00    +0.005 C 
ATOM     31  C   UNL     1      -7.062  -0.140  -0.424  0.00  0.00    +0.005 C 
ATOM     32  C   UNL     1      -6.240   1.065   0.035  0.00  0.00    +0.037 C 
BRANCH  28  33
ATOM     33  N   UNL     1      -1.191   1.867   0.018  0.00  0.00    -0.280 N 
ATOM     34  C   UNL     1      -0.014   1.209   0.009  0.00  0.00    +0.214 C 
ATOM     35  O   UNL     1       0.002  -0.004   0.002  0.00  0.00    -0.276 OA
ATOM     36  C   UNL     1       1.280   1.980   0.001  0.00  0.00    +0.109 C 
ATOM     37  H   UNL     1      -1.205   2.966   0.024  0.00  0.00    +0.155 HD
ENDBRANCH  28  33
ENDBRANCH  22  24
ENDBRANCH  21  22
ENDBRANCH  20  21
ENDBRANCH   1  20
TORSDOF 8
