REMARK  Name = ZINC00690533
REMARK  6 active torsions:
REMARK  status: ('A' for Active; 'I' for Inactive)
REMARK    1  A    between atoms: C_1  and  C_2
REMARK    2  A    between atoms: C_2  and  C_3
REMARK    3  A    between atoms: C_2  and  C_4
REMARK    4  A    between atoms: C_2  and  C_5
REMARK    5  A    between atoms: C_8  and  C_11
REMARK    6  A    between atoms: C_17  and  C_19
REMARK                            x       y       z     vdW  Elec       q    Type
REMARK                         _______ _______ _______ _____ _____    ______ ____
ROOT
ATOM      1  C   UNL     1       0.217  -6.510   0.145  0.00  0.00    +0.165 C 
ATOM      2  N   UNL     1      -0.067  -5.062   0.125  0.00  0.00    -0.281 N 
ATOM      3  C   UNL     1      -1.402  -4.665   0.561  0.00  0.00    +0.120 C 
ATOM      4  C   UNL     1      -2.448  -5.766   0.216  0.00  0.00    +0.090 C 
ATOM      5  S   UNL     1      -1.410  -7.250   0.590  0.00  0.00    -0.132 S 
ATOM      6  C   UNL     1       0.851  -4.160  -0.277  0.00  0.00    +0.248 C 
ATOM      7  O   UNL     1       1.913  -4.536  -0.734  0.00  0.00    -0.270 OA
ENDROOT
BRANCH   6   8
ATOM      8  C   UNL     1       0.566  -2.717  -0.162  0.00  0.00    +0.041 A 
ATOM      9  C   UNL     1       1.152  -1.814  -1.053  0.00  0.00    +0.017 A 
ATOM     10  C   UNL     1       0.885  -0.467  -0.945  0.00  0.00    +0.050 A 
ATOM     11  C   UNL     1       0.034  -0.001   0.048  0.00  0.00    +0.166 A 
ATOM     12  C   UNL     1      -0.555  -0.897   0.942  0.00  0.00    +0.167 A 
ATOM     13  C   UNL     1      -0.291  -2.249   0.838  0.00  0.00    +0.062 A 
ATOM     14  O   UNL     1      -1.339  -0.194   1.810  0.00  0.00    -0.453 OA
ATOM     15  C   UNL     1      -1.547   1.087   1.188  0.00  0.00    +0.466 C 
ATOM     16  O   UNL     1      -0.382   1.260   0.360  0.00  0.00    -0.453 OA
ENDBRANCH   6   8
BRANCH   1  20
ATOM     17  C   UNL     1       3.148  -7.432   3.113  0.00  0.00    -0.042 A 
ATOM     18  C   UNL     1       3.053  -8.206   1.971  0.00  0.00    +0.004 A 
ATOM     19  C   UNL     1       2.105  -7.907   1.011  0.00  0.00    +0.006 A 
ATOM     20  C   UNL     1       1.251  -6.835   1.192  0.00  0.00    -0.017 A 
ATOM     21  C   UNL     1       1.350  -6.058   2.331  0.00  0.00    +0.006 A 
ATOM     22  C   UNL     1       2.295  -6.359   3.294  0.00  0.00    +0.004 A 
BRANCH  17  24
ATOM     23  C   UNL     1       5.579  -7.676   3.541  0.00  0.00    +0.015 C 
ATOM     24  C   UNL     1       4.182  -7.757   4.160  0.00  0.00    -0.013 C 
ATOM     25  C   UNL     1       4.075  -6.755   5.311  0.00  0.00    +0.015 C 
ATOM     26  C   UNL     1       3.941  -9.172   4.692  0.00  0.00    +0.015 C 
ENDBRANCH  17  24
ENDBRANCH   1  20
TORSDOF 3
