REMARK  Name = ZINC54037550
REMARK  7 active torsions:
REMARK  status: ('A' for Active; 'I' for Inactive)
REMARK    1  A    between atoms: C_7  and  C_11
REMARK    2  A    between atoms: C_11  and  C_12
REMARK    3  A    between atoms: C_12  and  N_13
REMARK    4  A    between atoms: N_16  and  C_17
REMARK    5  A    between atoms: C_17  and  C_18
REMARK    6  A    between atoms: C_18  and  C_20
REMARK    7  A    between atoms: C_18  and  N_25
REMARK                            x       y       z     vdW  Elec       q    Type
REMARK                         _______ _______ _______ _____ _____    ______ ____
ROOT
ATOM      1  N   UNL     1       0.152  -5.386  -1.790  0.00  0.00    -0.299 N 
ATOM      2  C   UNL     1      -0.448  -5.860  -2.900  0.00  0.00    +0.300 C 
ATOM      3  O   UNL     1       0.025  -5.624  -3.995  0.00  0.00    -0.253 OA
ATOM      4  N   UNL     1      -1.572  -6.597  -2.796  0.00  0.00    -0.301 N 
ATOM      5  H   UNL     1      -0.225  -5.574  -0.916  0.00  0.00    +0.150 HD
ATOM      6  H   UNL     1      -1.949  -6.785  -1.922  0.00  0.00    +0.150 HD
ENDROOT
BRANCH   1   7
ATOM      7  C   UNL     1       1.374  -4.585  -1.903  0.00  0.00    +0.110 C 
BRANCH   7   8
ATOM      8  C   UNL     1       1.845  -4.175  -0.506  0.00  0.00    +0.056 C 
BRANCH   8  15
ATOM      9  C   UNL     1       2.634   0.386  -1.250  0.00  0.00    +0.001 A 
ATOM     10  C   UNL     1       3.985   0.703  -1.280  0.00  0.00    +0.002 A 
ATOM     11  C   UNL     1       4.940  -0.273  -1.103  0.00  0.00    +0.026 A 
ATOM     12  C   UNL     1       4.550  -1.592  -0.891  0.00  0.00    +0.047 A 
ATOM     13  C   UNL     1       3.179  -1.908  -0.861  0.00  0.00    +0.003 A 
ATOM     14  C   UNL     1       2.228  -0.902  -1.044  0.00  0.00    +0.010 A 
ATOM     15  C   UNL     1       3.102  -3.351  -0.623  0.00  0.00    -0.021 A 
ATOM     16  C   UNL     1       4.363  -3.801  -0.527  0.00  0.00    +0.087 A 
ATOM     17  N   UNL     1       5.242  -2.764  -0.685  0.00  0.00    -0.360 N 
ATOM     18  H   UNL     1       6.208  -2.843  -0.656  0.00  0.00    +0.165 HD
ENDBRANCH   8  15
ENDBRANCH   7   8
ENDBRANCH   1   7
BRANCH   4  19
ATOM     19  C   UNL     1      -2.224  -7.113  -4.002  0.00  0.00    +0.098 C 
BRANCH  19  20
ATOM     20  C   UNL     1      -3.392  -8.017  -3.603  0.00  0.00    +0.016 C 
BRANCH  20  21
ATOM     21  N   UNL     1      -2.902  -9.096  -2.735  0.00  0.00    +0.387 N 
ATOM     22  C   UNL     1      -1.818  -9.815  -3.415  0.00  0.00    -0.078 C 
ATOM     23  C   UNL     1      -1.249 -10.887  -2.483  0.00  0.00    -0.019 C 
ATOM     24  C   UNL     1      -2.361 -11.872  -2.109  0.00  0.00    -0.004 C 
ATOM     25  C   UNL     1      -3.518 -11.101  -1.468  0.00  0.00    -0.019 C 
ATOM     26  C   UNL     1      -4.002 -10.020  -2.437  0.00  0.00    -0.078 C 
ATOM     27  H   UNL     1      -2.553  -8.701  -1.874  0.00  0.00    -0.081 HD
ENDBRANCH  20  21
BRANCH  20  28
ATOM     28  C   UNL     1      -4.012  -8.611  -4.841  0.00  0.00    +0.093 A 
ATOM     29  C   UNL     1      -5.211  -8.283  -5.356  0.00  0.00    +0.043 A 
ATOM     30  C   UNL     1      -5.393  -9.079  -6.510  0.00  0.00    +0.041 A 
ATOM     31  C   UNL     1      -4.295  -9.846  -6.632  0.00  0.00    +0.195 A 
ATOM     32  O   UNL     1      -3.459  -9.554  -5.622  0.00  0.00    -0.469 OA
ENDBRANCH  20  28
ENDBRANCH  19  20
ENDBRANCH   4  19
TORSDOF 7
