REMARK  Name = ZINC24723766
REMARK  11 active torsions:
REMARK  status: ('A' for Active; 'I' for Inactive)
REMARK    1  A    between atoms: C_1  and  C_2
REMARK    2  A    between atoms: C_7  and  C_8
REMARK    3  A    between atoms: C_8  and  C_9
REMARK    4  A    between atoms: C_8  and  C_10
REMARK    5  A    between atoms: C_11  and  C_16
REMARK    6  A    between atoms: C_16  and  O_17
REMARK    7  A    between atoms: O_17  and  C_18
REMARK    8  A    between atoms: C_18  and  C_20
REMARK    9  A    between atoms: C_22  and  S_27
REMARK   10  A    between atoms: S_27  and  N_30
REMARK   11  A    between atoms: N_30  and  C_31
REMARK                            x       y       z     vdW  Elec       q    Type
REMARK                         _______ _______ _______ _____ _____    ______ ____
ROOT
ATOM      1  C   UNL     1      -3.690   0.280  -6.319  0.00  0.00    +0.269 C 
ENDROOT
BRANCH   1   9
ATOM      2  C   UNL     1      -6.955  -4.369  -9.788  0.00  0.00    +0.044 C 
ATOM      3  C   UNL     1      -6.275  -3.486  -8.774  0.00  0.00    -0.044 A 
ATOM      4  C   UNL     1      -6.254  -3.861  -7.447  0.00  0.00    +0.050 A 
ATOM      5  C   UNL     1      -5.634  -3.050  -6.506  0.00  0.00    +0.140 A 
ATOM      6  C   UNL     1      -5.022  -1.854  -6.921  0.00  0.00    +0.024 A 
ATOM      7  C   UNL     1      -5.041  -1.492  -8.271  0.00  0.00    +0.016 A 
ATOM      8  C   UNL     1      -5.667  -2.309  -9.186  0.00  0.00    -0.041 A 
ATOM      9  C   UNL     1      -4.364  -1.007  -5.921  0.00  0.00    +0.007 A 
ATOM     10  C   UNL     1      -4.385  -1.411  -4.626  0.00  0.00    +0.099 A 
ATOM     11  C   UNL     1      -5.024  -2.622  -4.279  0.00  0.00    +0.338 A 
ATOM     12  O   UNL     1      -5.035  -2.974  -3.113  0.00  0.00    -0.245 OA
ATOM     13  O   UNL     1      -5.619  -3.394  -5.200  0.00  0.00    -0.422 OA
BRANCH   8  14
ATOM     14  C   UNL     1      -5.690  -1.924 -10.643  0.00  0.00    +0.013 C 
ATOM     15  C   UNL     1      -6.521  -0.651 -10.820  0.00  0.00    +0.012 C 
ATOM     16  C   UNL     1      -4.261  -1.671 -11.126  0.00  0.00    +0.012 C 
ENDBRANCH   8  14
ENDBRANCH   1   9
BRANCH   1  17
ATOM     17  O   UNL     1      -3.131   0.918  -5.141  0.00  0.00    -0.456 OA
BRANCH  17  18
ATOM     18  C   UNL     1      -2.488   2.088  -5.326  0.00  0.00    +0.342 C 
ATOM     19  O   UNL     1      -2.398   2.562  -6.441  0.00  0.00    -0.245 OA
BRANCH  18  20
ATOM     20  C   UNL     1      -1.895   2.794  -4.174  0.00  0.00    +0.096 A 
ATOM     21  C   UNL     1      -1.996   2.252  -2.890  0.00  0.00    +0.046 A 
ATOM     22  C   UNL     1      -1.439   2.917  -1.819  0.00  0.00    +0.106 A 
ATOM     23  C   UNL     1      -0.784   4.122  -2.010  0.00  0.00    +0.031 A 
ATOM     24  C   UNL     1      -0.673   4.663  -3.276  0.00  0.00    +0.041 A 
ATOM     25  C   UNL     1      -1.227   4.009  -4.362  0.00  0.00    +0.137 A 
ATOM     26  F   UNL     1      -1.123   4.541  -5.599  0.00  0.00    -0.205 F 
BRANCH  22  27
ATOM     27  S   UNL     1      -1.567   2.234  -0.200  0.00  0.00    +0.058 S 
ATOM     28  O   UNL     1      -2.702   1.379  -0.208  0.00  0.00    -0.153 OA
ATOM     29  O   UNL     1      -1.437   3.318   0.710  0.00  0.00    -0.153 OA
BRANCH  27  30
ATOM     30  N   UNL     1      -0.245   1.263   0.028  0.00  0.00    -0.193 NA
ATOM     31  C   UNL     1       1.098   1.848   0.054  0.00  0.00    +0.127 C 
ATOM     32  H   UNL     1      -0.368   0.171  -0.005  0.00  0.00    +0.148 HD
ENDBRANCH  27  30
ENDBRANCH  22  27
ENDBRANCH  18  20
ENDBRANCH  17  18
ENDBRANCH   1  17
TORSDOF 7
