REMARK  Name = ZINC21526089
REMARK  13 active torsions:
REMARK  status: ('A' for Active; 'I' for Inactive)
REMARK    1  A    between atoms: C_1  and  C_2
REMARK    2  A    between atoms: C_2  and  C_3
REMARK    3  A    between atoms: C_12  and  C_23
REMARK    4  A    between atoms: C_12  and  C_24
REMARK    5  A    between atoms: N_13  and  C_16
REMARK    6  A    between atoms: C_16  and  C_17
REMARK    7  A    between atoms: C_17  and  N_18
REMARK    8  A    between atoms: N_18  and  C_19
REMARK    9  A    between atoms: N_18  and  C_21
REMARK   10  A    between atoms: C_19  and  C_20
REMARK   11  A    between atoms: C_21  and  C_22
REMARK   12  A    between atoms: N_26  and  C_27
REMARK   13  A    between atoms: C_30  and  C_33
REMARK                            x       y       z     vdW  Elec       q    Type
REMARK                         _______ _______ _______ _____ _____    ______ ____
ROOT
ATOM      1  C   UNL     1      -2.434   3.541  -6.825  0.00  0.00    -0.008 A 
ATOM      2  C   UNL     1      -2.441   2.728  -5.748  0.00  0.00    +0.037 A 
ATOM      3  C   UNL     1      -1.425   2.822  -4.786  0.00  0.00    +0.057 A 
ATOM      4  C   UNL     1      -0.443   3.794  -5.034  0.00  0.00    +0.038 A 
ATOM      5  S   UNL     1      -0.967   4.523  -6.564  0.00  0.00    -0.092 S 
ATOM      6  C   UNL     1       0.497   3.775  -4.011  0.00  0.00    +0.048 A 
ATOM      7  C   UNL     1       0.117   2.804  -3.132  0.00  0.00    +0.106 A 
ATOM      8  N   UNL     1      -1.061   2.225  -3.593  0.00  0.00    -0.333 N 
ATOM      9  C   UNL     1      -1.742   1.160  -2.852  0.00  0.00    +0.157 C 
ATOM     10  C   UNL     1      -0.702   0.361  -2.060  0.00  0.00    +0.128 C 
ATOM     11  N   UNL     1       0.229   1.219  -1.337  0.00  0.00    -0.282 N 
ATOM     12  C   UNL     1       0.742   2.345  -1.886  0.00  0.00    +0.264 C 
ATOM     13  O   UNL     1       1.671   2.943  -1.375  0.00  0.00    -0.268 OA
ATOM     14  C   UNL     1      -1.429  -0.536  -1.056  0.00  0.00    +0.043 C 
ENDROOT
BRANCH  10  15
ATOM     15  C   UNL     1       0.077  -0.510  -3.011  0.00  0.00    +0.238 C 
ATOM     16  O   UNL     1      -0.287  -1.646  -3.230  0.00  0.00    -0.273 OA
ATOM     17  N   UNL     1       1.179  -0.028  -3.618  0.00  0.00    -0.311 N 
ATOM     18  H   UNL     1       1.510   1.003  -3.419  0.00  0.00    +0.149 HD
BRANCH  17  19
ATOM     19  C   UNL     1       1.937  -0.874  -4.542  0.00  0.00    +0.073 C 
ATOM     20  C   UNL     1       2.927  -1.733  -3.752  0.00  0.00    +0.022 C 
ATOM     21  C   UNL     1       3.719  -2.618  -4.718  0.00  0.00    +0.005 C 
ATOM     22  C   UNL     1       4.484  -1.736  -5.706  0.00  0.00    -0.014 C 
ATOM     23  C   UNL     1       3.494  -0.877  -6.496  0.00  0.00    +0.005 C 
ATOM     24  C   UNL     1       2.703   0.007  -5.531  0.00  0.00    +0.022 C 
ATOM     25  C   UNL     1       5.275  -2.620  -6.672  0.00  0.00    +0.007 C 
ENDBRANCH  17  19
ENDBRANCH  10  15
BRANCH   1  27
ATOM     26  C   UNL     1      -4.532   4.597  -7.620  0.00  0.00    +0.009 C 
ATOM     27  C   UNL     1      -3.420   3.605  -7.963  0.00  0.00    +0.039 C 
ENDBRANCH   1  27
BRANCH  11  28
ATOM     28  C   UNL     1       0.625   0.849   0.024  0.00  0.00    +0.091 C 
BRANCH  28  29
ATOM     29  C   UNL     1      -0.341   1.482   1.027  0.00  0.00    -0.060 C 
BRANCH  29  30
ATOM     30  N   UNL     1       0.057   1.111   2.392  0.00  0.00    +0.380 N 
ATOM     31  H   UNL     1       1.123   1.353   2.510  0.00  0.00    -0.082 HD
BRANCH  30  32
ATOM     32  C   UNL     1      -0.696   1.884   3.388  0.00  0.00    -0.082 C 
ATOM     33  C   UNL     1      -0.141   3.308   3.454  0.00  0.00    -0.017 C 
ENDBRANCH  30  32
BRANCH  30  34
ATOM     34  C   UNL     1      -0.106  -0.333   2.613  0.00  0.00    -0.082 C 
ATOM     35  C   UNL     1       0.671  -0.747   3.864  0.00  0.00    -0.017 C 
ENDBRANCH  30  34
ENDBRANCH  29  30
ENDBRANCH  28  29
ENDBRANCH  11  28
TORSDOF 8
