REMARK  Name = ZINC21650356
REMARK  9 active torsions:
REMARK  status: ('A' for Active; 'I' for Inactive)
REMARK    1  A    between atoms: C_1  and  C_2
REMARK    2  A    between atoms: C_5  and  C_33
REMARK    3  A    between atoms: C_6  and  N_8
REMARK    4  A    between atoms: C_9  and  C_11
REMARK    5  A    between atoms: N_14  and  C_17
REMARK    6  A    between atoms: C_18  and  N_29
REMARK    7  A    between atoms: C_19  and  C_28
REMARK    8  A    between atoms: N_21  and  C_22
REMARK    9  A    between atoms: C_30  and  C_32
REMARK                            x       y       z     vdW  Elec       q    Type
REMARK                         _______ _______ _______ _____ _____    ______ ____
ROOT
ATOM      1  C   UNL     1      -4.446   5.854  -0.677  0.00  0.00    +0.078 C 
ATOM      2  C   UNL     1      -5.587   4.857  -0.454  0.00  0.00    +0.032 C 
ATOM      3  C   UNL     1      -5.093   3.444  -0.773  0.00  0.00    +0.107 C 
ATOM      4  N   UNL     1      -3.955   3.115   0.094  0.00  0.00    -0.314 N 
ATOM      5  C   UNL     1      -2.829   4.030  -0.137  0.00  0.00    +0.107 C 
ATOM      6  C   UNL     1      -3.255   5.460   0.201  0.00  0.00    +0.032 C 
ENDROOT
BRANCH   4   7
ATOM      7  C   UNL     1      -3.563   1.787  -0.078  0.00  0.00    +0.147 A 
ATOM      8  C   UNL     1      -2.329   1.352  -0.467  0.00  0.00    +0.097 A 
ATOM      9  C   UNL     1      -2.365  -0.047  -0.518  0.00  0.00    +0.083 A 
ATOM     10  N   UNL     1      -3.563  -0.444  -0.169  0.00  0.00    -0.168 NA
ATOM     11  N   UNL     1      -4.342   0.685   0.111  0.00  0.00    -0.216 N 
ATOM     12  C   UNL     1      -1.218  -0.944  -0.906  0.00  0.00    +0.069 C 
BRANCH  11  13
ATOM     13  C   UNL     1      -5.684   0.683   0.514  0.00  0.00    +0.067 A 
ATOM     14  C   UNL     1      -6.141   1.634   1.416  0.00  0.00    +0.028 A 
ATOM     15  C   UNL     1      -7.466   1.632   1.808  0.00  0.00    +0.002 A 
ATOM     16  C   UNL     1      -8.334   0.677   1.312  0.00  0.00    +0.000 A 
ATOM     17  C   UNL     1      -7.880  -0.275   0.417  0.00  0.00    +0.002 A 
ATOM     18  C   UNL     1      -6.558  -0.275   0.017  0.00  0.00    +0.028 A 
ENDBRANCH  11  13
BRANCH   8  19
ATOM     19  N   UNL     1      -1.217   2.167  -0.768  0.00  0.00    -0.282 N 
ATOM     20  C   UNL     1       0.027   1.752  -0.455  0.00  0.00    +0.214 C 
ATOM     21  O   UNL     1       0.185   0.722   0.166  0.00  0.00    -0.276 OA
ATOM     22  C   UNL     1       1.222   2.565  -0.883  0.00  0.00    +0.109 C 
ATOM     23  H   UNL     1      -1.365   3.141  -1.258  0.00  0.00    +0.155 HD
ENDBRANCH   8  19
ENDBRANCH   4   7
BRANCH   1  25
ATOM     24  N   UNL     1      -4.065   8.285  -0.425  0.00  0.00    -0.285 N 
ATOM     25  C   UNL     1      -4.908   7.240  -0.308  0.00  0.00    +0.220 C 
ATOM     26  O   UNL     1      -6.038   7.415   0.095  0.00  0.00    -0.275 OA
ATOM     27  H   UNL     1      -3.064   8.139  -0.857  0.00  0.00    +0.155 HD
BRANCH  24  33
ATOM     28  C   UNL     1      -7.660  11.517   0.468  0.00  0.00    +0.044 C 
ATOM     29  C   UNL     1      -6.199  11.149   0.447  0.00  0.00    -0.049 A 
ATOM     30  C   UNL     1      -5.249  12.069   0.853  0.00  0.00    +0.004 A 
ATOM     31  C   UNL     1      -3.908  11.736   0.835  0.00  0.00    +0.005 A 
ATOM     32  C   UNL     1      -3.512  10.480   0.418  0.00  0.00    -0.029 A 
ATOM     33  C   UNL     1      -4.463   9.556   0.004  0.00  0.00    +0.037 A 
ATOM     34  C   UNL     1      -5.810   9.894   0.023  0.00  0.00    +0.027 A 
ATOM     35  C   UNL     1      -2.050  10.115   0.405  0.00  0.00    +0.045 C 
ENDBRANCH  24  33
ENDBRANCH   1  25
TORSDOF 5
