REMARK  Name = ZINC39777268
REMARK  4 active torsions:
REMARK  status: ('A' for Active; 'I' for Inactive)
REMARK    1  A    between atoms: C_8  and  C_13
REMARK    2  A    between atoms: C_18  and  N_19
REMARK    3  A    between atoms: N_19  and  C_20
REMARK    4  A    between atoms: C_20  and  C_21
REMARK                            x       y       z     vdW  Elec       q    Type
REMARK                         _______ _______ _______ _____ _____    ______ ____
ROOT
ATOM      1  C   UNL     1       2.751  -3.520  -1.260  0.00  0.00    +0.007 A 
ATOM      2  C   UNL     1       2.095  -3.148  -2.417  0.00  0.00    +0.046 A 
ATOM      3  C   UNL     1       2.158  -3.956  -3.540  0.00  0.00    +0.124 A 
ATOM      4  C   UNL     1       2.877  -5.138  -3.505  0.00  0.00    +0.040 A 
ATOM      5  C   UNL     1       3.534  -5.514  -2.350  0.00  0.00    +0.026 A 
ATOM      6  C   UNL     1       3.478  -4.702  -1.224  0.00  0.00    +0.033 A 
ATOM      7  F   UNL     1       1.515  -3.590  -4.670  0.00  0.00    -0.205 F 
ENDROOT
BRANCH   1  15
ATOM      8  C   UNL     1      -0.016   1.347   0.009  0.00  0.00    +0.002 A 
ATOM      9  C   UNL     1       1.169   2.101   0.002  0.00  0.00    +0.002 A 
ATOM     10  C   UNL     1       2.398   1.533  -0.013  0.00  0.00    +0.025 A 
ATOM     11  C   UNL     1       2.536   0.127  -0.022  0.00  0.00    +0.057 A 
ATOM     12  N   UNL     1       3.739  -0.422  -0.036  0.00  0.00    -0.282 N 
ATOM     13  C   UNL     1       3.903  -1.747  -0.045  0.00  0.00    +0.244 C 
ATOM     14  O   UNL     1       5.019  -2.228  -0.058  0.00  0.00    -0.273 OA
ATOM     15  C   UNL     1       2.683  -2.640  -0.038  0.00  0.00    +0.199 C 
ATOM     16  N   UNL     1       1.360  -1.997  -0.022  0.00  0.00    -0.369 N 
ATOM     17  C   UNL     1       1.301  -0.697  -0.014  0.00  0.00    +0.058 A 
ATOM     18  C   UNL     1       0.002  -0.004   0.002  0.00  0.00    +0.027 A 
ATOM     19  H   UNL     1       4.521   0.152  -0.041  0.00  0.00    +0.155 HD
ATOM     20  H   UNL     1       0.550  -2.531  -0.017  0.00  0.00    +0.161 HD
ENDBRANCH   1  15
BRANCH   6  21
ATOM     21  N   UNL     1       4.148  -5.078  -0.056  0.00  0.00    -0.339 N 
ATOM     22  H   UNL     1       4.105  -4.512   0.731  0.00  0.00    +0.146 HD
BRANCH  21  23
ATOM     23  C   UNL     1       4.915  -6.326  -0.020  0.00  0.00    +0.140 C 
BRANCH  23  24
ATOM     24  C   UNL     1       5.534  -6.496   1.343  0.00  0.00    +0.013 A 
ATOM     25  C   UNL     1       6.861  -6.169   1.545  0.00  0.00    +0.028 A 
ATOM     26  C   UNL     1       7.430  -6.326   2.796  0.00  0.00    +0.042 A 
ATOM     27  C   UNL     1       6.672  -6.811   3.846  0.00  0.00    +0.029 A 
ATOM     28  C   UNL     1       5.344  -7.139   3.649  0.00  0.00    +0.022 A 
ATOM     29  C   UNL     1       4.769  -6.975   2.398  0.00  0.00    +0.134 A 
ATOM     30  O   UNL     1       3.460  -7.281   2.193  0.00  0.00    -0.466 OA
ATOM     31  C   UNL     1       2.824  -8.094   3.184  0.00  0.00    +0.394 C 
ATOM     32  O   UNL     1       3.134  -7.565   4.478  0.00  0.00    -0.339 OA
ATOM     33  C   UNL     1       4.528  -7.671   4.800  0.00  0.00    +0.202 C 
ATOM     34 CL   UNL     1       9.098  -5.914   3.048  0.00  0.00    -0.084 Cl
ENDBRANCH  23  24
ENDBRANCH  21  23
ENDBRANCH   6  21
TORSDOF 4
