REMARK  Name = ZINC09691216
REMARK  5 active torsions:
REMARK  status: ('A' for Active; 'I' for Inactive)
REMARK    1  A    between atoms: C_4  and  C_7
REMARK    2  A    between atoms: C_7  and  C_9
REMARK    3  A    between atoms: C_14  and  N_15
REMARK    4  A    between atoms: C_16  and  C_18
REMARK    5  A    between atoms: C_18  and  N_19
REMARK                            x       y       z     vdW  Elec       q    Type
REMARK                         _______ _______ _______ _____ _____    ______ ____
ROOT
ATOM      1  N   UNL     1       1.778  -3.649  -1.722  0.00  0.00    -0.284 N 
ATOM      2  C   UNL     1       1.427  -2.365  -1.508  0.00  0.00    +0.235 C 
ATOM      3  O   UNL     1       1.257  -1.619  -2.448  0.00  0.00    -0.274 OA
ATOM      4  H   UNL     1       1.982  -4.227  -0.970  0.00  0.00    +0.155 HD
ENDROOT
BRANCH   1  10
ATOM      5  C   UNL     1       1.495  -5.476  -3.288  0.00  0.00    +0.043 A 
ATOM      6  C   UNL     1       1.569  -5.961  -4.598  0.00  0.00    +0.013 A 
ATOM      7  C   UNL     1       1.988  -5.131  -5.614  0.00  0.00    +0.001 A 
ATOM      8  C   UNL     1       2.337  -3.817  -5.347  0.00  0.00    +0.002 A 
ATOM      9  C   UNL     1       2.263  -3.322  -4.060  0.00  0.00    +0.024 A 
ATOM     10  C   UNL     1       1.849  -4.144  -3.021  0.00  0.00    +0.044 A 
BRANCH   5  11
ATOM     11  C   UNL     1       1.047  -6.359  -2.196  0.00  0.00    +0.195 C 
ATOM     12  O   UNL     1       1.798  -7.206  -1.752  0.00  0.00    -0.287 OA
BRANCH  11  16
ATOM     13  C   UNL     1      -2.865  -5.941  -0.596  0.00  0.00    +0.000 A 
ATOM     14  C   UNL     1      -2.050  -6.970  -0.160  0.00  0.00    +0.001 A 
ATOM     15  C   UNL     1      -0.778  -7.111  -0.675  0.00  0.00    +0.012 A 
ATOM     16  C   UNL     1      -0.314  -6.213  -1.639  0.00  0.00    +0.022 A 
ATOM     17  C   UNL     1      -1.141  -5.173  -2.070  0.00  0.00    +0.012 A 
ATOM     18  C   UNL     1      -2.413  -5.047  -1.551  0.00  0.00    +0.001 A 
ENDBRANCH  11  16
ENDBRANCH   5  11
ENDBRANCH   1  10
BRANCH   2  19
ATOM     19  C   UNL     1       1.246  -1.858  -0.101  0.00  0.00    +0.214 C 
BRANCH  19  20
ATOM     20  N   UNL     1       0.867  -0.443  -0.136  0.00  0.00    -0.215 N 
ATOM     21  C   UNL     1       1.748   0.578  -0.120  0.00  0.00    +0.252 C 
ATOM     22  O   UNL     1       2.958   0.503  -0.075  0.00  0.00    -0.272 OA
ATOM     23  C   UNL     1       0.910   1.835  -0.169  0.00  0.00    +0.144 C 
ATOM     24  C   UNL     1       1.139   2.675   1.084  0.00  0.00    +0.081 C 
ATOM     25  C   UNL     1       0.480   4.046   0.871  0.00  0.00    +0.232 C 
ATOM     26  O   UNL     1       1.141   4.702  -0.211  0.00  0.00    -0.492 OA
ATOM     27  C   UNL     1       1.320   4.009  -1.366  0.00  0.00    +0.126 A 
ATOM     28  C   UNL     1       1.225   2.627  -1.406  0.00  0.00    +0.027 A 
ATOM     29  C   UNL     1       1.422   1.960  -2.603  0.00  0.00    +0.010 A 
ATOM     30  C   UNL     1       1.709   2.664  -3.756  0.00  0.00    +0.001 A 
ATOM     31  C   UNL     1       1.801   4.043  -3.719  0.00  0.00    +0.004 A 
ATOM     32  C   UNL     1       1.607   4.715  -2.529  0.00  0.00    +0.046 A 
ATOM     33  N   UNL     1      -0.472   1.341  -0.212  0.00  0.00    -0.281 N 
ATOM     34  C   UNL     1      -0.396  -0.004  -0.189  0.00  0.00    +0.310 C 
ATOM     35  O   UNL     1      -1.366  -0.736  -0.213  0.00  0.00    -0.252 OA
ATOM     36  H   UNL     1      -1.279   1.877  -0.253  0.00  0.00    +0.152 HD
ENDBRANCH  19  20
ENDBRANCH   2  19
TORSDOF 5
