REMARK  Name = ZINC06600901
REMARK  11 active torsions:
REMARK  status: ('A' for Active; 'I' for Inactive)
REMARK    1  A    between atoms: C_1  and  C_2
REMARK    2  A    between atoms: C_2  and  O_3
REMARK    3  A    between atoms: O_3  and  C_4
REMARK    4  A    between atoms: C_7  and  N_10
REMARK    5  A    between atoms: N_10  and  C_11
REMARK    6  A    between atoms: C_11  and  C_12
REMARK    7  A    between atoms: N_14  and  C_15
REMARK    8  A    between atoms: C_21  and  C_23
REMARK    9  A    between atoms: C_24  and  N_37
REMARK   10  A    between atoms: C_25  and  C_28
REMARK   11  A    between atoms: N_30  and  C_31
REMARK                            x       y       z     vdW  Elec       q    Type
REMARK                         _______ _______ _______ _____ _____    ______ ____
ROOT
ATOM      1  N   UNL     1      -3.571   1.697  -0.021  0.00  0.00    -0.258 N 
ATOM      2  C   UNL     1      -3.666   2.560   1.010  0.00  0.00    +0.261 C 
ATOM      3  O   UNL     1      -3.133   2.300   2.073  0.00  0.00    -0.269 OA
ENDROOT
BRANCH   1   7
ATOM      4  C   UNL     1      -5.095   2.738  -3.760  0.00  0.00    +0.121 A 
ATOM      5  C   UNL     1      -3.796   3.088  -3.418  0.00  0.00    +0.047 A 
ATOM      6  C   UNL     1      -3.291   2.743  -2.180  0.00  0.00    +0.027 A 
ATOM      7  C   UNL     1      -4.083   2.047  -1.276  0.00  0.00    +0.037 A 
ATOM      8  C   UNL     1      -5.381   1.693  -1.621  0.00  0.00    +0.027 A 
ATOM      9  C   UNL     1      -5.886   2.042  -2.857  0.00  0.00    +0.047 A 
BRANCH   4  10
ATOM     10  O   UNL     1      -5.591   3.077  -4.979  0.00  0.00    -0.492 OA
BRANCH  10  12
ATOM     11  C   UNL     1      -7.315   3.150  -6.671  0.00  0.00    +0.048 C 
ATOM     12  C   UNL     1      -6.935   2.684  -5.264  0.00  0.00    +0.225 C 
ENDBRANCH  10  12
ENDBRANCH   4  10
ENDBRANCH   1   7
BRANCH   2  13
ATOM     13  C   UNL     1      -4.409   3.812   0.851  0.00  0.00    +0.116 A 
ATOM     14  C   UNL     1      -4.547   4.878   1.741  0.00  0.00    +0.076 A 
ATOM     15  C   UNL     1      -5.340   5.904   1.227  0.00  0.00    +0.156 A 
ATOM     16  N   UNL     1      -5.854   5.778   0.024  0.00  0.00    -0.203 NA
ATOM     17  S   UNL     1      -5.371   4.385  -0.533  0.00  0.00    +0.019 S 
BRANCH  15  18
ATOM     18  C   UNL     1      -5.601   7.116   2.026  0.00  0.00    +0.265 C 
ATOM     19  O   UNL     1      -5.123   7.225   3.139  0.00  0.00    -0.268 OA
ATOM     20  N   UNL     1      -6.369   8.102   1.522  0.00  0.00    -0.307 N 
ATOM     21  H   UNL     1      -6.750   8.015   0.634  0.00  0.00    +0.149 HD
BRANCH  20  22
ATOM     22  C   UNL     1      -6.628   9.306   2.315  0.00  0.00    +0.073 C 
ATOM     23  C   UNL     1      -7.815   9.057   3.247  0.00  0.00    +0.022 C 
ATOM     24  C   UNL     1      -8.086  10.315   4.076  0.00  0.00    +0.002 C 
ATOM     25  C   UNL     1      -8.407  11.482   3.141  0.00  0.00    +0.000 C 
ATOM     26  C   UNL     1      -7.220  11.731   2.209  0.00  0.00    +0.002 C 
ATOM     27  C   UNL     1      -6.949  10.474   1.380  0.00  0.00    +0.022 C 
ENDBRANCH  20  22
ENDBRANCH  15  18
BRANCH  14  28
ATOM     28  N   UNL     1      -3.959   4.914   2.999  0.00  0.00    -0.355 N 
ATOM     29  H   UNL     1      -3.416   4.170   3.302  0.00  0.00    +0.142 HD
ATOM     30  H   UNL     1      -4.091   5.684   3.574  0.00  0.00    +0.142 HD
ENDBRANCH  14  28
ENDBRANCH   2  13
BRANCH   1  31
ATOM     31  C   UNL     1      -2.934   0.392   0.173  0.00  0.00    +0.209 C 
BRANCH  31  32
ATOM     32  C   UNL     1      -1.459   0.506  -0.117  0.00  0.00    +0.231 C 
ATOM     33  O   UNL     1      -0.987   1.572  -0.451  0.00  0.00    -0.274 OA
ATOM     34  N   UNL     1      -0.664  -0.576  -0.003  0.00  0.00    -0.311 N 
ATOM     35  H   UNL     1      -1.042  -1.429   0.264  0.00  0.00    +0.149 HD
BRANCH  34  36
ATOM     36  C   UNL     1       0.768  -0.467  -0.290  0.00  0.00    +0.073 C 
ATOM     37  C   UNL     1       1.001  -0.628  -1.794  0.00  0.00    +0.022 C 
ATOM     38  C   UNL     1       2.497  -0.514  -2.093  0.00  0.00    +0.002 C 
ATOM     39  C   UNL     1       3.253  -1.610  -1.340  0.00  0.00    +0.000 C 
ATOM     40  C   UNL     1       3.020  -1.449   0.164  0.00  0.00    +0.002 C 
ATOM     41  C   UNL     1       1.524  -1.563   0.463  0.00  0.00    +0.022 C 
ENDBRANCH  34  36
ENDBRANCH  31  32
ENDBRANCH   1  31
TORSDOF 10
