REMARK  Name = ZINC35935436
REMARK  6 active torsions:
REMARK  status: ('A' for Active; 'I' for Inactive)
REMARK    1  A    between atoms: C_1  and  C_2
REMARK    2  A    between atoms: C_2  and  C_3
REMARK    3  A    between atoms: C_4  and  N_21
REMARK    4  A    between atoms: C_5  and  C_9
REMARK    5  A    between atoms: C_12  and  N_15
REMARK    6  A    between atoms: C_22  and  C_24
REMARK                            x       y       z     vdW  Elec       q    Type
REMARK                         _______ _______ _______ _____ _____    ______ ____
ROOT
ATOM      1  C   UNL     1       0.750  -1.433  -1.333  0.00  0.00    +0.058 A 
ATOM      2  C   UNL     1       1.905  -0.749  -1.516  0.00  0.00    +0.082 A 
ATOM      3  C   UNL     1       1.877  -0.195  -2.815  0.00  0.00    +0.114 A 
ATOM      4  N   UNL     1       0.740  -0.541  -3.381  0.00  0.00    -0.172 NA
ATOM      5  N   UNL     1       0.017  -1.324  -2.472  0.00  0.00    -0.279 N 
ATOM      6  H   UNL     1      -0.856  -1.718  -2.628  0.00  0.00    +0.189 HD
ENDROOT
BRANCH   3   7
ATOM      7  C   UNL     1       2.941   0.632  -3.433  0.00  0.00    +0.004 A 
ATOM      8  C   UNL     1       3.605   1.596  -2.675  0.00  0.00    +0.012 A 
ATOM      9  C   UNL     1       4.594   2.364  -3.252  0.00  0.00    +0.024 A 
ATOM     10  C   UNL     1       4.930   2.178  -4.588  0.00  0.00    +0.030 A 
ATOM     11  C   UNL     1       4.270   1.218  -5.345  0.00  0.00    +0.024 A 
ATOM     12  C   UNL     1       3.284   0.444  -4.771  0.00  0.00    +0.012 A 
BRANCH  10  13
ATOM     13  N   UNL     1       5.933   2.957  -5.170  0.00  0.00    -0.330 N 
ATOM     14  C   UNL     1       6.209   2.867  -6.610  0.00  0.00    +0.105 C 
ATOM     15  C   UNL     1       6.147   4.274  -7.212  0.00  0.00    +0.019 C 
ATOM     16  C   UNL     1       7.099   5.195  -6.446  0.00  0.00    +0.003 C 
ATOM     17  C   UNL     1       6.663   5.278  -4.981  0.00  0.00    +0.019 C 
ATOM     18  C   UNL     1       6.726   3.886  -4.354  0.00  0.00    +0.105 C 
ENDBRANCH  10  13
ENDBRANCH   3   7
BRANCH   2  19
ATOM     19  N   UNL     1       2.946  -0.614  -0.581  0.00  0.00    -0.282 N 
ATOM     20  C   UNL     1       2.718  -0.004   0.599  0.00  0.00    +0.220 C 
ATOM     21  O   UNL     1       1.594   0.346   0.892  0.00  0.00    -0.275 OA
ATOM     22  H   UNL     1       3.829  -0.961  -0.784  0.00  0.00    +0.155 HD
BRANCH  20  23
ATOM     23  C   UNL     1       3.858   0.243   1.553  0.00  0.00    +0.075 C 
ATOM     24  C   UNL     1       4.493  -1.092   1.945  0.00  0.00    +0.013 C 
ATOM     25  C   UNL     1       5.651  -0.841   2.914  0.00  0.00    +0.001 C 
ATOM     26  C   UNL     1       5.124  -0.140   4.167  0.00  0.00    +0.000 C 
ATOM     27  C   UNL     1       4.488   1.196   3.775  0.00  0.00    +0.001 C 
ATOM     28  C   UNL     1       3.331   0.945   2.806  0.00  0.00    +0.013 C 
ENDBRANCH  20  23
ENDBRANCH   2  19
BRANCH   1  30
ATOM     29  C   UNL     1      -1.174  -2.194   0.035  0.00  0.00    +0.010 C 
ATOM     30  C   UNL     1       0.351  -2.186  -0.090  0.00  0.00    +0.053 C 
ENDBRANCH   1  30
TORSDOF 5
