REMARK  Name = ZINC36016825
REMARK  11 active torsions:
REMARK  status: ('A' for Active; 'I' for Inactive)
REMARK    1  A    between atoms: C_1  and  C_2
REMARK    2  A    between atoms: C_2  and  O_3
REMARK    3  A    between atoms: O_3  and  C_4
REMARK    4  A    between atoms: C_4  and  C_6
REMARK    5  A    between atoms: C_7  and  C_22
REMARK    6  A    between atoms: N_8  and  C_19
REMARK    7  A    between atoms: C_12  and  C_14
REMARK    8  A    between atoms: C_19  and  C_20
REMARK    9  A    between atoms: C_22  and  N_23
REMARK   10  A    between atoms: C_27  and  C_30
REMARK   11  A    between atoms: C_31  and  C_33
REMARK                            x       y       z     vdW  Elec       q    Type
REMARK                         _______ _______ _______ _____ _____    ______ ____
ROOT
ATOM      1  C   UNL     1       0.937  -2.100   0.061  0.00  0.00    +0.080 C 
ATOM      2  C   UNL     1       1.349  -3.272  -0.470  0.00  0.00    +0.041 C 
ATOM      3  N   UNL     1       2.178  -3.301  -1.554  0.00  0.00    -0.254 N 
ATOM      4  C   UNL     1       2.641  -2.203  -2.165  0.00  0.00    +0.307 C 
ATOM      5  O   UNL     1       3.376  -2.330  -3.125  0.00  0.00    -0.252 OA
ATOM      6  N   UNL     1       2.318  -0.962  -1.751  0.00  0.00    -0.288 N 
ATOM      7  C   UNL     1       1.423  -0.821  -0.590  0.00  0.00    +0.144 C 
ATOM      8  H   UNL     1       2.666  -0.180  -2.208  0.00  0.00    +0.151 HD
ENDROOT
BRANCH   7   9
ATOM      9  C   UNL     1       2.147  -0.013   0.455  0.00  0.00    -0.015 A 
ATOM     10  C   UNL     1       1.514   1.036   1.094  0.00  0.00    +0.013 A 
ATOM     11  C   UNL     1       2.195   1.742   2.030  0.00  0.00    +0.045 A 
ATOM     12  S   UNL     1       3.781   0.924   2.029  0.00  0.00    -0.105 S 
ATOM     13  C   UNL     1       3.428  -0.308   0.786  0.00  0.00    +0.051 A 
ENDBRANCH   7   9
BRANCH   1  14
ATOM     14  C   UNL     1       0.078  -2.068   1.184  0.00  0.00    +0.339 C 
ATOM     15  O   UNL     1      -1.109  -1.842   1.036  0.00  0.00    -0.245 OA
BRANCH  14  16
ATOM     16  O   UNL     1       0.573  -2.289   2.420  0.00  0.00    -0.462 OA
BRANCH  16  18
ATOM     17  C   UNL     1       0.389  -2.513   4.819  0.00  0.00    +0.048 C 
ATOM     18  C   UNL     1      -0.352  -2.242   3.508  0.00  0.00    +0.229 C 
ENDBRANCH  16  18
ENDBRANCH  14  16
ENDBRANCH   1  14
BRANCH   3  19
ATOM     19  C   UNL     1       2.585  -4.607  -2.079  0.00  0.00    +0.141 C 
BRANCH  19  20
ATOM     20  C   UNL     1       1.596  -5.060  -3.122  0.00  0.00    -0.015 C 
ATOM     21  C   UNL     1       2.011  -5.382  -4.322  0.00  0.00    +0.005 C 
ENDBRANCH  19  20
ENDBRANCH   3  19
BRANCH   2  22
ATOM     22  C   UNL     1       0.885  -4.568   0.144  0.00  0.00    +0.136 C 
BRANCH  22  23
ATOM     23  N   UNL     1      -0.004  -5.264  -0.795  0.00  0.00    -0.294 NA
ATOM     24  C   UNL     1      -1.245  -4.505  -1.005  0.00  0.00    +0.104 C 
ATOM     25  C   UNL     1      -2.061  -5.167  -2.120  0.00  0.00    +0.124 C 
ATOM     26  N   UNL     1      -2.250  -6.586  -1.782  0.00  0.00    -0.292 N 
ATOM     27  C   UNL     1      -1.064  -7.380  -1.425  0.00  0.00    +0.087 C 
ATOM     28  C   UNL     1      -0.287  -6.631  -0.337  0.00  0.00    +0.107 C 
ATOM     29  C   UNL     1      -1.502  -8.749  -0.899  0.00  0.00    +0.029 C 
ATOM     30  C   UNL     1      -3.477  -7.144  -1.800  0.00  0.00    +0.250 C 
ATOM     31  O   UNL     1      -3.626  -8.295  -1.435  0.00  0.00    -0.270 OA
BRANCH  30  32
ATOM     32  C   UNL     1      -4.639  -6.359  -2.261  0.00  0.00    +0.072 A 
ATOM     33  C   UNL     1      -4.471  -5.348  -3.210  0.00  0.00    +0.016 A 
ATOM     34  C   UNL     1      -5.560  -4.619  -3.637  0.00  0.00    +0.001 A 
ATOM     35  C   UNL     1      -6.819  -4.885  -3.128  0.00  0.00    +0.003 A 
ATOM     36  C   UNL     1      -6.996  -5.883  -2.189  0.00  0.00    +0.039 A 
ATOM     37  C   UNL     1      -5.914  -6.627  -1.755  0.00  0.00    +0.135 A 
ATOM     38  F   UNL     1      -6.088  -7.607  -0.841  0.00  0.00    -0.205 F 
ENDBRANCH  30  32
ENDBRANCH  22  23
ENDBRANCH   2  22
TORSDOF 9
