REMARK  Name = ZINC66977385
REMARK  7 active torsions:
REMARK  status: ('A' for Active; 'I' for Inactive)
REMARK    1  A    between atoms: C_1  and  C_2
REMARK    2  A    between atoms: C_2  and  C_3
REMARK    3  A    between atoms: C_3  and  C_5
REMARK    4  A    between atoms: C_3  and  N_10
REMARK    5  A    between atoms: N_13  and  N_14
REMARK    6  A    between atoms: C_15  and  C_17
REMARK    7  A    between atoms: C_17  and  C_18
REMARK                            x       y       z     vdW  Elec       q    Type
REMARK                         _______ _______ _______ _____ _____    ______ ____
ROOT
ATOM      1  N   UNL     1      -0.008  -0.140   2.444  0.00  0.00    -0.291 N 
ATOM      2  C   UNL     1       0.164   1.077   2.997  0.00  0.00    +0.316 C 
ATOM      3  O   UNL     1       0.943   1.867   2.499  0.00  0.00    -0.251 OA
ATOM      4  N   UNL     1      -0.526   1.418   4.104  0.00  0.00    -0.218 N 
ATOM      5  H   UNL     1      -0.629  -0.770   2.842  0.00  0.00    +0.151 HD
ATOM      6  H   UNL     1      -0.402   2.293   4.502  0.00  0.00    +0.174 HD
ENDROOT
BRANCH   4   7
ATOM      7  N   UNL     1      -1.423   0.508   4.678  0.00  0.00    -0.233 N 
ATOM      8  C   UNL     1      -2.113   0.849   5.784  0.00  0.00    +0.234 C 
ATOM      9  O   UNL     1      -1.958   1.944   6.282  0.00  0.00    -0.274 OA
ATOM     10  H   UNL     1      -1.547  -0.368   4.280  0.00  0.00    +0.173 HD
BRANCH   8  11
ATOM     11  C   UNL     1      -3.078  -0.130   6.402  0.00  0.00    +0.135 C 
BRANCH  11  12
ATOM     12  C   UNL     1      -3.715   0.492   7.618  0.00  0.00    -0.003 A 
ATOM     13  C   UNL     1      -3.182   0.260   8.872  0.00  0.00    +0.007 A 
ATOM     14  C   UNL     1      -3.766   0.831   9.988  0.00  0.00    +0.000 A 
ATOM     15  C   UNL     1      -4.883   1.633   9.851  0.00  0.00    +0.003 A 
ATOM     16  C   UNL     1      -5.418   1.866   8.598  0.00  0.00    +0.038 A 
ATOM     17  C   UNL     1      -4.830   1.299   7.479  0.00  0.00    +0.127 A 
ATOM     18  F   UNL     1      -5.349   1.530   6.253  0.00  0.00    -0.205 F 
ENDBRANCH  11  12
ENDBRANCH   8  11
ENDBRANCH   4   7
BRANCH   1  19
ATOM     19  C   UNL     1       0.742  -0.511   1.242  0.00  0.00    +0.111 C 
BRANCH  19  20
ATOM     20  C   UNL     1       0.870  -2.011   1.172  0.00  0.00    +0.010 A 
ATOM     21  C   UNL     1       1.936  -2.760   0.799  0.00  0.00    +0.013 A 
ATOM     22  C   UNL     1       1.825  -4.138   0.813  0.00  0.00    +0.008 A 
ATOM     23  C   UNL     1       0.653  -4.699   1.199  0.00  0.00    +0.045 A 
ATOM     24  S   UNL     1      -0.341  -3.262   1.566  0.00  0.00    -0.100 S 
ENDBRANCH  19  20
BRANCH  19  26
ATOM     25  C   UNL     1      -0.019   1.526   0.010  0.00  0.00    +0.006 C 
ATOM     26  C   UNL     1       0.002  -0.004   0.002  0.00  0.00    +0.024 C 
ENDBRANCH  19  26
ENDBRANCH   1  19
TORSDOF 6
