REMARK  Name = ZINC20705743
REMARK  7 active torsions:
REMARK  status: ('A' for Active; 'I' for Inactive)
REMARK    1  A    between atoms: C_4  and  C_7
REMARK    2  A    between atoms: C_7  and  C_8
REMARK    3  A    between atoms: C_8  and  N_9
REMARK    4  A    between atoms: N_9  and  S_10
REMARK    5  A    between atoms: S_10  and  C_13
REMARK    6  A    between atoms: C_26  and  C_29
REMARK    7  A    between atoms: C_31  and  N_36
REMARK                            x       y       z     vdW  Elec       q    Type
REMARK                         _______ _______ _______ _____ _____    ______ ____
ROOT
ATOM      1  C   UNL     1       3.882  -0.520   0.243  0.00  0.00    +0.106 A 
ATOM      2  C   UNL     1       2.502  -0.558   0.323  0.00  0.00    +0.030 A 
ATOM      3  C   UNL     1       1.781   0.618   0.282  0.00  0.00    +0.025 A 
ATOM      4  C   UNL     1       2.442   1.834   0.161  0.00  0.00    +0.031 A 
ATOM      5  C   UNL     1       3.825   1.878   0.083  0.00  0.00    -0.018 A 
ATOM      6  C   UNL     1       4.539   0.688   0.125  0.00  0.00    +0.034 A 
ATOM      7  C   UNL     1       4.580   3.163  -0.043  0.00  0.00    +0.049 C 
ATOM      8  C   UNL     1       5.099   3.362  -1.448  0.00  0.00    -0.023 C 
ATOM      9  C   UNL     1       5.043   4.629  -1.777  0.00  0.00    -0.030 C 
ATOM     10  C   UNL     1       4.482   5.452  -0.633  0.00  0.00    +0.033 C 
ATOM     11  C   UNL     1       3.702   4.404   0.215  0.00  0.00    +0.029 C 
ATOM     12  C   UNL     1       2.323   4.210  -0.423  0.00  0.00    +0.106 C 
ATOM     13  N   UNL     1       1.699   3.013   0.150  0.00  0.00    -0.336 N 
ATOM     14  H   UNL     1       0.677   3.064   0.552  0.00  0.00    +0.147 HD
ENDROOT
BRANCH  12  15
ATOM     15  C   UNL     1       2.476   4.037  -1.912  0.00  0.00    -0.007 A 
ATOM     16  C   UNL     1       2.727   2.784  -2.440  0.00  0.00    +0.039 A 
ATOM     17  C   UNL     1       2.866   2.624  -3.806  0.00  0.00    +0.127 A 
ATOM     18  C   UNL     1       2.756   3.717  -4.645  0.00  0.00    +0.034 A 
ATOM     19  C   UNL     1       2.505   4.970  -4.118  0.00  0.00    +0.022 A 
ATOM     20  C   UNL     1       2.360   5.130  -2.752  0.00  0.00    +0.046 A 
ATOM     21 CL   UNL     1       2.039   6.702  -2.090  0.00  0.00    -0.083 Cl
BRANCH  17  22
ATOM     22  N   UNL     1       3.135   1.283  -4.370  0.00  0.00    +0.056 N 
ATOM     23  O   UNL     1       3.233   0.319  -3.631  0.00  0.00    -0.126 OA
ATOM     24  O   UNL     1       3.258   1.142  -5.574  0.00  0.00    -0.126 OA
ENDBRANCH  17  22
ENDBRANCH  12  15
BRANCH   1  25
ATOM     25  S   UNL     1       4.806  -2.019   0.294  0.00  0.00    +0.058 S 
ATOM     26  O   UNL     1       6.108  -1.679   0.751  0.00  0.00    -0.153 OA
ATOM     27  O   UNL     1       3.991  -2.976   0.957  0.00  0.00    -0.153 OA
BRANCH  25  28
ATOM     28  N   UNL     1       4.975  -2.543  -1.268  0.00  0.00    -0.190 NA
ATOM     29  H   UNL     1       4.371  -3.393  -1.618  0.00  0.00    +0.148 HD
BRANCH  28  30
ATOM     30  C   UNL     1       5.749  -1.750  -2.227  0.00  0.00    +0.110 C 
BRANCH  30  31
ATOM     31  C   UNL     1       6.067  -2.605  -3.456  0.00  0.00    +0.052 C 
BRANCH  31  35
ATOM     32  C   UNL     1       8.324  -0.295  -6.251  0.00  0.00    +0.000 A 
ATOM     33  C   UNL     1       8.975  -1.035  -5.281  0.00  0.00    +0.000 A 
ATOM     34  C   UNL     1       8.244  -1.782  -4.377  0.00  0.00    +0.003 A 
ATOM     35  C   UNL     1       6.863  -1.790  -4.442  0.00  0.00    -0.046 A 
ATOM     36  C   UNL     1       6.213  -1.054  -5.415  0.00  0.00    +0.003 A 
ATOM     37  C   UNL     1       6.944  -0.303  -6.316  0.00  0.00    +0.000 A 
ENDBRANCH  31  35
ENDBRANCH  30  31
ENDBRANCH  28  30
ENDBRANCH  25  28
ENDBRANCH   1  25
TORSDOF 7
