REMARK  Name = ZINC02162864
REMARK  10 active torsions:
REMARK  status: ('A' for Active; 'I' for Inactive)
REMARK    1  A    between atoms: C_1  and  C_2
REMARK    2  A    between atoms: C_4  and  C_15
REMARK    3  A    between atoms: C_5  and  C_14
REMARK    4  A    between atoms: N_6  and  C_7
REMARK    5  A    between atoms: N_16  and  N_17
REMARK    6  A    between atoms: C_18  and  C_20
REMARK    7  A    between atoms: C_20  and  N_21
REMARK    8  A    between atoms: N_21  and  C_22
REMARK    9  A    between atoms: N_21  and  S_29
REMARK   10  A    between atoms: S_29  and  C_32
REMARK                            x       y       z     vdW  Elec       q    Type
REMARK                         _______ _______ _______ _____ _____    ______ ____
ROOT
ATOM      1  N   UNL     1      -0.947  -2.256  -0.271  0.00  0.00    -0.206 N 
ATOM      2  C   UNL     1      -2.142  -2.873  -0.194  0.00  0.00    +0.251 C 
ATOM      3  O   UNL     1      -3.165  -2.226  -0.281  0.00  0.00    -0.272 OA
ATOM      4  H   UNL     1      -0.129  -2.773  -0.203  0.00  0.00    +0.177 HD
ENDROOT
BRANCH   1   6
ATOM      5  C   UNL     1       0.267  -0.274  -0.525  0.00  0.00    +0.140 C 
ATOM      6  N   UNL     1      -0.885  -0.868  -0.451  0.00  0.00    -0.188 NA
BRANCH   5  10
ATOM      7  C   UNL     1       2.033   4.477  -1.136  0.00  0.00    +0.064 C 
ATOM      8  C   UNL     1       1.132   3.278  -0.983  0.00  0.00    +0.022 A 
ATOM      9  C   UNL     1       1.542   2.007  -0.818  0.00  0.00    +0.032 A 
ATOM     10  C   UNL     1       0.332   1.187  -0.714  0.00  0.00    +0.016 A 
ATOM     11  C   UNL     1      -0.724   2.045  -0.833  0.00  0.00    +0.030 A 
ATOM     12  N   UNL     1      -0.233   3.305  -0.989  0.00  0.00    -0.317 N 
ATOM     13  C   UNL     1      -2.181   1.664  -0.795  0.00  0.00    +0.064 C 
BRANCH  12  14
ATOM     14  C   UNL     1      -1.014   4.459  -1.141  0.00  0.00    +0.047 A 
ATOM     15  C   UNL     1      -1.830   4.887  -0.102  0.00  0.00    +0.027 A 
ATOM     16  C   UNL     1      -2.594   6.028  -0.252  0.00  0.00    +0.022 A 
ATOM     17  C   UNL     1      -2.556   6.737  -1.440  0.00  0.00    +0.041 A 
ATOM     18  C   UNL     1      -1.748   6.309  -2.478  0.00  0.00    +0.022 A 
ATOM     19  C   UNL     1      -0.977   5.172  -2.331  0.00  0.00    +0.027 A 
ATOM     20 CL   UNL     1      -3.523   8.166  -1.627  0.00  0.00    -0.084 Cl
ENDBRANCH  12  14
ENDBRANCH   5  10
ENDBRANCH   1   6
BRANCH   2  21
ATOM     21  C   UNL     1      -2.209  -4.366  -0.001  0.00  0.00    +0.228 C 
BRANCH  21  22
ATOM     22  N   UNL     1      -3.608  -4.780   0.125  0.00  0.00    -0.197 N 
BRANCH  22  23
ATOM     23  C   UNL     1      -4.366  -5.040  -1.020  0.00  0.00    +0.070 A 
ATOM     24  C   UNL     1      -5.011  -4.002  -1.679  0.00  0.00    +0.026 A 
ATOM     25  C   UNL     1      -5.755  -4.262  -2.814  0.00  0.00    +0.002 A 
ATOM     26  C   UNL     1      -5.866  -5.556  -3.288  0.00  0.00    +0.002 A 
ATOM     27  C   UNL     1      -5.229  -6.594  -2.633  0.00  0.00    +0.022 A 
ATOM     28  C   UNL     1      -4.480  -6.340  -1.500  0.00  0.00    +0.064 A 
ATOM     29 CL   UNL     1      -3.682  -7.643  -0.676  0.00  0.00    -0.082 Cl
ENDBRANCH  22  23
BRANCH  22  30
ATOM     30  S   UNL     1      -4.293  -4.940   1.624  0.00  0.00    +0.043 S 
ATOM     31  O   UNL     1      -5.365  -5.854   1.438  0.00  0.00    -0.155 OA
ATOM     32  O   UNL     1      -3.209  -5.260   2.485  0.00  0.00    -0.155 OA
ATOM     33  C   UNL     1      -4.940  -3.292   2.019  0.00  0.00    +0.218 C 
ENDBRANCH  22  30
ENDBRANCH  21  22
ENDBRANCH   2  21
TORSDOF 7
