REMARK  Name = ZINC57391866
REMARK  5 active torsions:
REMARK  status: ('A' for Active; 'I' for Inactive)
REMARK    1  A    between atoms: C_1  and  N_2
REMARK    2  A    between atoms: N_2  and  C_3
REMARK    3  A    between atoms: N_15  and  C_16
REMARK    4  A    between atoms: C_16  and  C_18
REMARK    5  A    between atoms: C_16  and  C_28
REMARK                            x       y       z     vdW  Elec       q    Type
REMARK                         _______ _______ _______ _____ _____    ______ ____
ROOT
ATOM      1  C   UNL     1      -0.006   1.461   0.009  0.00  0.00    +0.134 C 
ATOM      2  N   UNL     1       0.002  -0.004   0.002  0.00  0.00    -0.282 N 
ATOM      3  C   UNL     1      -0.113  -0.673  -1.162  0.00  0.00    +0.303 C 
ATOM      4  O   UNL     1      -0.106  -1.889  -1.168  0.00  0.00    -0.253 OA
ATOM      5  N   UNL     1      -0.235   0.005  -2.320  0.00  0.00    -0.292 N 
ATOM      6  H   UNL     1      -0.240   0.976  -2.316  0.00  0.00    +0.151 HD
ENDROOT
BRANCH   2   7
ATOM      7  C   UNL     1       0.135  -0.742   1.261  0.00  0.00    +0.108 C 
ATOM      8  C   UNL     1      -1.049  -0.420   2.197  0.00  0.00    +0.032 C 
ATOM      9  C   UNL     1      -0.500   0.754   3.035  0.00  0.00    +0.037 C 
ATOM     10  C   UNL     1       1.003   0.575   3.030  0.00  0.00    -0.042 A 
ATOM     11  C   UNL     1       1.369  -0.286   2.009  0.00  0.00    -0.024 A 
ATOM     12  C   UNL     1       2.704  -0.600   1.813  0.00  0.00    +0.006 A 
ATOM     13  C   UNL     1       3.673  -0.056   2.633  0.00  0.00    +0.000 A 
ATOM     14  C   UNL     1       3.311   0.804   3.653  0.00  0.00    +0.000 A 
ATOM     15  C   UNL     1       1.975   1.120   3.852  0.00  0.00    +0.004 A 
ENDBRANCH   2   7
BRANCH   5  16
ATOM     16  C   UNL     1      -0.359  -0.722  -3.586  0.00  0.00    +0.108 C 
BRANCH  16  17
ATOM     17  C   UNL     1      -1.071   0.143  -4.594  0.00  0.00    -0.023 A 
ATOM     18  C   UNL     1      -0.786   1.494  -4.667  0.00  0.00    +0.009 A 
ATOM     19  C   UNL     1      -1.438   2.291  -5.590  0.00  0.00    +0.050 A 
ATOM     20  C   UNL     1      -2.378   1.737  -6.445  0.00  0.00    +0.162 A 
ATOM     21  C   UNL     1      -2.663   0.378  -6.373  0.00  0.00    +0.162 A 
ATOM     22  C   UNL     1      -2.002  -0.416  -5.448  0.00  0.00    +0.055 A 
ATOM     23  O   UNL     1      -3.576  -0.187  -7.209  0.00  0.00    -0.485 OA
ATOM     24  C   UNL     1      -4.481   0.704  -7.870  0.00  0.00    +0.270 C 
ATOM     25  C   UNL     1      -3.672   1.879  -8.435  0.00  0.00    +0.270 C 
ATOM     26  O   UNL     1      -3.015   2.535  -7.346  0.00  0.00    -0.485 OA
ENDBRANCH  16  17
BRANCH  16  27
ATOM     27  C   UNL     1       1.034  -1.076  -4.110  0.00  0.00    +0.014 C 
ATOM     28  C   UNL     1       1.294  -2.533  -4.495  0.00  0.00    +0.006 C 
ATOM     29  C   UNL     1       1.919  -1.954  -3.225  0.00  0.00    +0.006 C 
ENDBRANCH  16  27
ENDBRANCH   5  16
TORSDOF 4
