REMARK  Name = ZINC38683872
REMARK  16 active torsions:
REMARK  status: ('A' for Active; 'I' for Inactive)
REMARK    1  A    between atoms: C_1  and  C_2
REMARK    2  A    between atoms: C_2  and  C_3
REMARK    3  A    between atoms: C_3  and  O_4
REMARK    4  A    between atoms: O_4  and  C_5
REMARK    5  A    between atoms: C_8  and  C_14
REMARK    6  A    between atoms: C_10  and  O_11
REMARK    7  A    between atoms: O_11  and  C_12
REMARK    8  A    between atoms: C_12  and  C_13
REMARK    9  A    between atoms: C_19  and  O_28
REMARK   10  A    between atoms: C_23  and  N_27
REMARK   11  A    between atoms: C_24  and  C_25
REMARK   12  A    between atoms: O_28  and  C_29
REMARK   13  A    between atoms: C_29  and  C_31
REMARK   14  A    between atoms: C_34  and  O_37
REMARK   15  A    between atoms: O_37  and  C_38
REMARK   16  A    between atoms: C_38  and  C_39
REMARK                            x       y       z     vdW  Elec       q    Type
REMARK                         _______ _______ _______ _____ _____    ______ ____
ROOT
ATOM      1  C   UNL     1       3.333  -4.428   5.576  0.00  0.00    +0.098 C 
ATOM      2  C   UNL     1       4.780  -4.015   5.603  0.00  0.00    +0.008 A 
ATOM      3  C   UNL     1       5.682  -4.637   4.759  0.00  0.00    +0.012 A 
ATOM      4  C   UNL     1       7.014  -4.272   4.771  0.00  0.00    +0.047 A 
ATOM      5  C   UNL     1       7.452  -3.276   5.632  0.00  0.00    +0.135 A 
ATOM      6  C   UNL     1       6.551  -2.650   6.479  0.00  0.00    +0.093 A 
ATOM      7  C   UNL     1       5.212  -3.019   6.466  0.00  0.00    +0.138 A 
ATOM      8  O   UNL     1       4.344  -2.397   7.301  0.00  0.00    -0.441 OA
ATOM      9  C   UNL     1       3.165  -2.973   7.591  0.00  0.00    +0.199 C 
ATOM     10  C   UNL     1       2.632  -3.940   6.812  0.00  0.00    +0.098 C 
ENDROOT
BRANCH   1  14
ATOM     11  C   UNL     1       1.448  -2.744   2.126  0.00  0.00    +0.162 A 
ATOM     12  C   UNL     1       2.016  -1.917   3.082  0.00  0.00    +0.050 A 
ATOM     13  C   UNL     1       2.624  -2.465   4.196  0.00  0.00    +0.008 A 
ATOM     14  C   UNL     1       2.668  -3.837   4.359  0.00  0.00    -0.031 A 
ATOM     15  C   UNL     1       2.104  -4.667   3.409  0.00  0.00    +0.054 A 
ATOM     16  C   UNL     1       1.487  -4.125   2.293  0.00  0.00    +0.162 A 
BRANCH  11  17
ATOM     17  O   UNL     1       0.849  -2.207   1.029  0.00  0.00    -0.488 OA
BRANCH  17  18
ATOM     18  C   UNL     1       0.847  -0.782   0.924  0.00  0.00    +0.229 C 
BRANCH  18  20
ATOM     19  C   UNL     1       0.132   1.158  -0.478  0.00  0.00    +0.007 C 
ATOM     20  C   UNL     1       0.134  -0.367  -0.365  0.00  0.00    +0.038 C 
ENDBRANCH  18  20
ENDBRANCH  17  18
ENDBRANCH  11  17
BRANCH  16  21
ATOM     21  O   UNL     1       0.926  -4.941   1.361  0.00  0.00    -0.489 OA
BRANCH  21  22
ATOM     22  C   UNL     1       1.004  -6.348   1.598  0.00  0.00    +0.226 C 
ATOM     23  C   UNL     1       0.324  -7.097   0.451  0.00  0.00    +0.048 C 
ENDBRANCH  21  22
ENDBRANCH  16  21
ENDBRANCH   1  14
BRANCH   9  24
ATOM     24  N   UNL     1       2.482  -2.565   8.710  0.00  0.00    -0.328 N 
ATOM     25  H   UNL     1       2.853  -1.871   9.278  0.00  0.00    +0.145 HD
ATOM     26  H   UNL     1       1.630  -2.971   8.933  0.00  0.00    +0.145 HD
ENDBRANCH   9  24
BRANCH  10  27
ATOM     27  C   UNL     1       1.371  -4.512   7.177  0.00  0.00    +0.101 C 
ATOM     28  N   UNL     1       0.371  -4.966   7.465  0.00  0.00    -0.191 NA
ENDBRANCH  10  27
BRANCH   5  29
ATOM     29  O   UNL     1       8.762  -2.914   5.645  0.00  0.00    -0.422 OA
BRANCH  29  30
ATOM     30  C   UNL     1       9.494  -3.228   6.732  0.00  0.00    +0.344 C 
ATOM     31  O   UNL     1       9.009  -3.907   7.616  0.00  0.00    -0.245 OA
BRANCH  30  32
ATOM     32  C   UNL     1      10.883  -2.748   6.849  0.00  0.00    +0.060 A 
ATOM     33  C   UNL     1      11.441  -1.962   5.836  0.00  0.00    +0.018 A 
ATOM     34  C   UNL     1      12.739  -1.516   5.949  0.00  0.00    +0.046 A 
ATOM     35  C   UNL     1      13.494  -1.845   7.069  0.00  0.00    +0.121 A 
ATOM     36  C   UNL     1      12.943  -2.626   8.078  0.00  0.00    +0.046 A 
ATOM     37  C   UNL     1      11.645  -3.072   7.976  0.00  0.00    +0.018 A 
BRANCH  35  38
ATOM     38  O   UNL     1      14.772  -1.403   7.176  0.00  0.00    -0.492 OA
BRANCH  38  39
ATOM     39  C   UNL     1      15.492  -1.778   8.352  0.00  0.00    +0.225 C 
ATOM     40  C   UNL     1      16.904  -1.191   8.296  0.00  0.00    +0.048 C 
ENDBRANCH  38  39
ENDBRANCH  35  38
ENDBRANCH  30  32
ENDBRANCH  29  30
ENDBRANCH   5  29
TORSDOF 13
