REMARK  Name = ZINC21255500
REMARK  8 active torsions:
REMARK  status: ('A' for Active; 'I' for Inactive)
REMARK    1  A    between atoms: C_1  and  C_2
REMARK    2  A    between atoms: C_2  and  C_3
REMARK    3  A    between atoms: C_2  and  O_4
REMARK    4  A    between atoms: O_4  and  C_5
REMARK    5  A    between atoms: C_8  and  C_11
REMARK    6  A    between atoms: C_16  and  C_26
REMARK    7  A    between atoms: C_30  and  O_32
REMARK    8  A    between atoms: O_32  and  C_33
REMARK                            x       y       z     vdW  Elec       q    Type
REMARK                         _______ _______ _______ _____ _____    ______ ____
ROOT
ATOM      1  C   UNL     1      -0.117   1.288  -0.617  0.00  0.00    +0.032 C 
ATOM      2  C   UNL     1      -1.637   1.248  -0.468  0.00  0.00    +0.059 C 
ATOM      3  C   UNL     1      -2.042   1.858   0.864  0.00  0.00    +0.017 C 
ATOM      4  C   UNL     1      -1.247   1.731   1.939  0.00  0.00    +0.036 C 
ATOM      5  C   UNL     1      -1.535   2.265   3.322  0.00  0.00    +0.136 C 
ATOM      6  N   UNL     1      -2.649   3.188   3.388  0.00  0.00    -0.331 N 
ATOM      7  C   UNL     1      -3.946   2.771   3.096  0.00  0.00    +0.049 A 
ATOM      8  C   UNL     1      -4.938   2.758   4.064  0.00  0.00    +0.025 A 
ATOM      9  C   UNL     1      -6.200   2.293   3.738  0.00  0.00    +0.002 A 
ATOM     10  C   UNL     1      -6.471   1.842   2.459  0.00  0.00    +0.002 A 
ATOM     11  C   UNL     1      -5.487   1.870   1.485  0.00  0.00    +0.025 A 
ATOM     12  C   UNL     1      -4.231   2.354   1.804  0.00  0.00    +0.052 A 
ATOM     13  N   UNL     1      -3.233   2.509   0.851  0.00  0.00    -0.316 N 
ATOM     14  C   UNL     1      -0.004   1.055   1.835  0.00  0.00    +0.163 C 
ATOM     15  O   UNL     1       0.688   0.937   2.827  0.00  0.00    -0.292 OA
ATOM     16  C   UNL     1       0.486   0.482   0.540  0.00  0.00    +0.088 C 
ATOM     17  H   UNL     1      -2.478   4.236   3.673  0.00  0.00    +0.147 HD
ATOM     18  H   UNL     1      -3.462   3.220   0.043  0.00  0.00    +0.152 HD
ENDROOT
BRANCH   1  22
ATOM     19  C   UNL     1       1.024  -0.456  -4.347  0.00  0.00    +0.121 A 
ATOM     20  C   UNL     1       1.377   0.854  -4.056  0.00  0.00    +0.046 A 
ATOM     21  C   UNL     1       1.007   1.415  -2.849  0.00  0.00    +0.007 A 
ATOM     22  C   UNL     1       0.285   0.673  -1.932  0.00  0.00    -0.043 A 
ATOM     23  C   UNL     1      -0.063  -0.634  -2.218  0.00  0.00    +0.007 A 
ATOM     24  C   UNL     1       0.300  -1.198  -3.426  0.00  0.00    +0.046 A 
BRANCH  19  25
ATOM     25  O   UNL     1       1.386  -1.010  -5.534  0.00  0.00    -0.489 OA
BRANCH  25  27
ATOM     26  C   UNL     1       3.523  -0.089  -6.187  0.00  0.00    +0.051 C 
ATOM     27  C   UNL     1       2.023  -0.153  -6.483  0.00  0.00    +0.167 C 
ATOM     28  C   UNL     1       1.804  -0.702  -7.894  0.00  0.00    +0.051 C 
ENDBRANCH  25  27
ENDBRANCH  19  25
ENDBRANCH   1  22
BRANCH   5  29
ATOM     29  C   UNL     1      -1.824   1.100   4.234  0.00  0.00    -0.019 A 
ATOM     30  C   UNL     1      -0.972   0.818   5.286  0.00  0.00    +0.006 A 
ATOM     31  C   UNL     1      -1.237  -0.247   6.127  0.00  0.00    +0.004 A 
ATOM     32  C   UNL     1      -2.349  -1.038   5.912  0.00  0.00    +0.045 A 
ATOM     33  C   UNL     1      -3.203  -0.760   4.854  0.00  0.00    +0.120 A 
ATOM     34  C   UNL     1      -2.937   0.312   4.014  0.00  0.00    +0.051 A 
BRANCH  33  35
ATOM     35  O   UNL     1      -4.297  -1.537   4.641  0.00  0.00    -0.495 OA
ATOM     36  C   UNL     1      -4.508  -2.623   5.544  0.00  0.00    +0.277 C 
ENDBRANCH  33  35
ENDBRANCH   5  29
TORSDOF 5
