REMARK  Name = ZINC64942414
REMARK  5 active torsions:
REMARK  status: ('A' for Active; 'I' for Inactive)
REMARK    1  A    between atoms: C_1  and  C_2
REMARK    2  A    between atoms: C_4  and  C_7
REMARK    3  A    between atoms: C_7  and  N_8
REMARK    4  A    between atoms: C_9  and  C_11
REMARK    5  A    between atoms: C_24  and  C_25
REMARK                            x       y       z     vdW  Elec       q    Type
REMARK                         _______ _______ _______ _____ _____    ______ ____
ROOT
ATOM      1  C   UNL     1       3.079  -5.133  -3.017  0.00  0.00    +0.051 A 
ATOM      2  C   UNL     1       3.809  -6.076  -2.168  0.00  0.00    +0.013 A 
ATOM      3  C   UNL     1       3.218  -6.657  -1.042  0.00  0.00    +0.011 A 
ATOM      4  C   UNL     1       3.937  -7.531  -0.279  0.00  0.00    +0.001 A 
ATOM      5  C   UNL     1       5.252  -7.850  -0.609  0.00  0.00    +0.002 A 
ATOM      6  C   UNL     1       5.857  -7.302  -1.698  0.00  0.00    +0.028 A 
ATOM      7  C   UNL     1       5.147  -6.396  -2.510  0.00  0.00    +0.072 A 
ATOM      8  N   UNL     1       5.712  -5.845  -3.581  0.00  0.00    -0.247 NA
ATOM      9  C   UNL     1       5.075  -4.986  -4.372  0.00  0.00    +0.072 A 
ATOM     10  C   UNL     1       3.744  -4.612  -4.116  0.00  0.00    -0.009 A 
ATOM     11  C   UNL     1       3.276  -3.640  -5.170  0.00  0.00    +0.043 C 
ATOM     12  C   UNL     1       4.458  -3.442  -6.128  0.00  0.00    +0.042 C 
ATOM     13  C   UNL     1       5.570  -4.302  -5.580  0.00  0.00    -0.018 C 
ATOM     14  C   UNL     1       6.803  -4.435  -6.115  0.00  0.00    +0.052 C 
ENDROOT
BRANCH  14  15
ATOM     15  C   UNL     1       7.160  -3.692  -7.323  0.00  0.00    +0.128 A 
ATOM     16  C   UNL     1       8.364  -3.738  -7.968  0.00  0.00    +0.049 A 
ATOM     17  C   UNL     1       8.265  -2.873  -9.071  0.00  0.00    +0.042 A 
ATOM     18  C   UNL     1       7.023  -2.345  -9.052  0.00  0.00    +0.195 A 
ATOM     19  O   UNL     1       6.357  -2.845  -8.000  0.00  0.00    -0.464 OA
ENDBRANCH  14  15
BRANCH   1  21
ATOM     20  N   UNL     1       1.424  -3.694  -1.928  0.00  0.00    -0.304 N 
ATOM     21  C   UNL     1       1.681  -4.756  -2.717  0.00  0.00    +0.245 C 
ATOM     22  O   UNL     1       0.763  -5.403  -3.182  0.00  0.00    -0.270 OA
ATOM     23  H   UNL     1       2.156  -3.177  -1.557  0.00  0.00    +0.149 HD
BRANCH  20  24
ATOM     24  C   UNL     1       0.039  -3.320  -1.631  0.00  0.00    +0.181 C 
BRANCH  24  28
ATOM     25  C   UNL     1      -0.018   1.503   0.010  0.00  0.00    +0.069 C 
ATOM     26  C   UNL     1       0.002  -0.004   0.002  0.00  0.00    +0.081 A 
ATOM     27  C   UNL     1       0.008  -0.824  -1.141  0.00  0.00    +0.072 A 
ATOM     28  C   UNL     1       0.027  -2.108  -0.735  0.00  0.00    +0.154 A 
ATOM     29  O   UNL     1       0.034  -2.119   0.606  0.00  0.00    -0.358 OA
ATOM     30  N   UNL     1       0.023  -0.775   1.052  0.00  0.00    -0.083 NA
ENDBRANCH  24  28
ENDBRANCH  20  24
ENDBRANCH   1  21
TORSDOF 4
