REMARK  Name = ZINC33113218
REMARK  7 active torsions:
REMARK  status: ('A' for Active; 'I' for Inactive)
REMARK    1  A    between atoms: C_1  and  C_2
REMARK    2  A    between atoms: C_2  and  C_3
REMARK    3  A    between atoms: C_6  and  N_9
REMARK    4  A    between atoms: C_16  and  C_19
REMARK    5  A    between atoms: C_22  and  C_24
REMARK    6  A    between atoms: N_26  and  C_27
REMARK    7  A    between atoms: C_32  and  C_33
REMARK                            x       y       z     vdW  Elec       q    Type
REMARK                         _______ _______ _______ _____ _____    ______ ____
ROOT
ATOM      1  N   UNL     1     -11.118  -3.733   3.100  0.00  0.00    -0.269 N 
ATOM      2  C   UNL     1      -9.784  -3.545   3.124  0.00  0.00    +0.306 C 
ATOM      3  O   UNL     1      -9.250  -3.096   4.120  0.00  0.00    -0.252 OA
ATOM      4  N   UNL     1      -9.040  -3.853   2.042  0.00  0.00    -0.285 N 
ATOM      5  C   UNL     1      -9.682  -4.232   0.776  0.00  0.00    +0.109 C 
ATOM      6  C   UNL     1      -9.137  -3.336  -0.340  0.00  0.00    +0.020 C 
ATOM      7  C   UNL     1      -7.610  -3.424  -0.359  0.00  0.00    +0.013 C 
ATOM      8  C   UNL     1      -7.052  -2.925   0.976  0.00  0.00    +0.064 C 
ATOM      9  C   UNL     1      -7.573  -3.816   2.107  0.00  0.00    +0.119 C 
ATOM     10  H   UNL     1     -11.618  -4.012   2.161  0.00  0.00    +0.156 HD
ENDROOT
BRANCH   1  14
ATOM     11  C   UNL     1     -13.349  -3.262   6.587  0.00  0.00    -0.048 A 
ATOM     12  C   UNL     1     -13.846  -4.027   5.548  0.00  0.00    +0.005 A 
ATOM     13  C   UNL     1     -13.109  -4.185   4.391  0.00  0.00    +0.023 A 
ATOM     14  C   UNL     1     -11.867  -3.575   4.272  0.00  0.00    +0.035 A 
ATOM     15  C   UNL     1     -11.369  -2.812   5.319  0.00  0.00    +0.023 A 
ATOM     16  C   UNL     1     -12.113  -2.653   6.471  0.00  0.00    +0.005 A 
BRANCH  11  18
ATOM     17  C   UNL     1     -13.800  -4.204   8.836  0.00  0.00    +0.009 C 
ATOM     18  C   UNL     1     -14.156  -3.091   7.848  0.00  0.00    +0.032 C 
ENDBRANCH  11  18
ENDBRANCH   1  14
BRANCH   8  19
ATOM     19  C   UNL     1      -5.546  -2.981   0.944  0.00  0.00    +0.107 A 
ATOM     20  N   UNL     1      -4.747  -4.019   0.768  0.00  0.00    -0.145 NA
ATOM     21  N   UNL     1      -3.490  -3.903   0.761  0.00  0.00    -0.136 NA
ATOM     22  C   UNL     1      -2.926  -2.712   0.946  0.00  0.00    +0.187 A 
ATOM     23  S   UNL     1      -4.388  -1.697   1.129  0.00  0.00    -0.046 S 
BRANCH  22  24
ATOM     24  C   UNL     1      -1.503  -2.336   0.984  0.00  0.00    +0.275 C 
ATOM     25  O   UNL     1      -1.185  -1.175   1.162  0.00  0.00    -0.268 OA
ATOM     26  N   UNL     1      -0.552  -3.277   0.821  0.00  0.00    -0.280 N 
ATOM     27  H   UNL     1      -0.840  -4.326   0.655  0.00  0.00    +0.155 HD
BRANCH  26  28
ATOM     28  C   UNL     1       0.799  -2.921   0.861  0.00  0.00    +0.037 A 
ATOM     29  C   UNL     1       1.202  -1.669   0.415  0.00  0.00    +0.023 A 
ATOM     30  C   UNL     1       2.538  -1.320   0.456  0.00  0.00    +0.002 A 
ATOM     31  C   UNL     1       3.474  -2.216   0.940  0.00  0.00    +0.000 A 
ATOM     32  C   UNL     1       3.076  -3.463   1.384  0.00  0.00    +0.005 A 
ATOM     33  C   UNL     1       1.741  -3.819   1.346  0.00  0.00    -0.029 A 
ATOM     34  C   UNL     1       1.308  -5.178   1.831  0.00  0.00    +0.045 C 
ENDBRANCH  26  28
ENDBRANCH  22  24
ENDBRANCH   8  19
TORSDOF 5
