REMARK  Name = ZINC08652691
REMARK  6 active torsions:
REMARK  status: ('A' for Active; 'I' for Inactive)
REMARK    1  A    between atoms: C_4  and  C_7
REMARK    2  A    between atoms: C_7  and  C_9
REMARK    3  A    between atoms: C_7  and  O_24
REMARK    4  A    between atoms: C_12  and  C_15
REMARK    5  A    between atoms: C_15  and  C_17
REMARK    6  A    between atoms: C_15  and  O_23
REMARK                            x       y       z     vdW  Elec       q    Type
REMARK                         _______ _______ _______ _____ _____    ______ ____
ROOT
ATOM      1  C   UNL     1      -1.643   2.567   1.423  0.00  0.00    +0.166 C 
ATOM      2  N   UNL     1      -0.721   2.562   2.329  0.00  0.00    -0.166 NA
ATOM      3  N   UNL     1      -1.028   2.991   3.628  0.00  0.00    -0.219 N 
ATOM      4  C   UNL     1      -2.367   3.121   4.012  0.00  0.00    +0.166 C 
ATOM      5  N   UNL     1      -3.290   3.120   3.107  0.00  0.00    -0.166 NA
ATOM      6  N   UNL     1      -2.933   2.990   1.757  0.00  0.00    -0.219 N 
ATOM      7  H   UNL     1      -0.220   3.223   4.337  0.00  0.00    +0.176 HD
ATOM      8  H   UNL     1      -3.667   3.219   0.970  0.00  0.00    +0.176 HD
ENDROOT
BRANCH   1   9
ATOM      9  C   UNL     1      -1.332   2.114   0.020  0.00  0.00    +0.211 C 
BRANCH   9  13
ATOM     10  C   UNL     1       2.396   0.029  -0.022  0.00  0.00    +0.000 A 
ATOM     11  C   UNL     1       1.208  -0.679  -0.013  0.00  0.00    +0.000 A 
ATOM     12  C   UNL     1       0.002  -0.004   0.002  0.00  0.00    +0.006 A 
ATOM     13  C   UNL     1      -0.017   1.378   0.010  0.00  0.00    -0.012 A 
ATOM     14  C   UNL     1       1.171   2.086   0.002  0.00  0.00    +0.006 A 
ATOM     15  C   UNL     1       2.377   1.411  -0.015  0.00  0.00    +0.000 A 
ENDBRANCH   9  13
BRANCH   9  16
ATOM     16  O   UNL     1      -1.248   3.252  -0.840  0.00  0.00    -0.380 OA
ATOM     17  H   UNL     1      -2.117   3.915  -0.962  0.00  0.00    +0.211 HD
ENDBRANCH   9  16
ENDBRANCH   1   9
BRANCH   4  18
ATOM     18  C   UNL     1      -2.730   3.261   5.468  0.00  0.00    +0.211 C 
BRANCH  18  19
ATOM     19  C   UNL     1      -4.206   3.015   5.643  0.00  0.00    -0.012 A 
ATOM     20  C   UNL     1      -5.112   4.021   5.362  0.00  0.00    +0.006 A 
ATOM     21  C   UNL     1      -6.467   3.794   5.519  0.00  0.00    +0.000 A 
ATOM     22  C   UNL     1      -6.915   2.565   5.966  0.00  0.00    +0.000 A 
ATOM     23  C   UNL     1      -6.008   1.562   6.252  0.00  0.00    +0.000 A 
ATOM     24  C   UNL     1      -4.654   1.787   6.091  0.00  0.00    +0.006 A 
ENDBRANCH  18  19
BRANCH  18  25
ATOM     25  O   UNL     1      -2.410   4.580   5.914  0.00  0.00    -0.380 OA
ATOM     26  H   UNL     1      -2.606   4.871   6.956  0.00  0.00    +0.211 HD
ENDBRANCH  18  25
ENDBRANCH   4  18
TORSDOF 6
