REMARK  Name = ZINC01781454
REMARK  13 active torsions:
REMARK  status: ('A' for Active; 'I' for Inactive)
REMARK    1  A    between atoms: C_1  and  C_2
REMARK    2  A    between atoms: C_13  and  C_14
REMARK    3  A    between atoms: C_13  and  O_16
REMARK    4  A    between atoms: C_21  and  N_26
REMARK    5  A    between atoms: C_24  and  C_25
REMARK    6  A    between atoms: N_26  and  O_27
REMARK    7  A    between atoms: O_27  and  C_28
REMARK    8  A    between atoms: C_28  and  C_29
REMARK    9  A    between atoms: N_31  and  C_32
REMARK   10  A    between atoms: C_32  and  C_34
REMARK   11  A    between atoms: C_32  and  C_40
REMARK   12  A    between atoms: C_40  and  O_42
REMARK   13  A    between atoms: O_42  and  C_43
REMARK                            x       y       z     vdW  Elec       q    Type
REMARK                         _______ _______ _______ _____ _____    ______ ____
ROOT
ATOM      1  C   UNL     1      -0.019   1.526   0.010  0.00  0.00    +0.015 C 
ATOM      2  C   UNL     1       0.002  -0.004   0.002  0.00  0.00    +0.011 C 
ATOM      3  C   UNL     1      -1.413  -0.585  -0.001  0.00  0.00    +0.011 C 
ATOM      4  C   UNL     1      -2.070  -0.463   1.373  0.00  0.00    +0.005 C 
ATOM      5  C   UNL     1      -1.212  -1.237   2.376  0.00  0.00    +0.003 C 
ATOM      6  C   UNL     1       0.137  -0.542   2.488  0.00  0.00    -0.003 C 
ATOM      7  C   UNL     1       0.842  -0.566   1.163  0.00  0.00    +0.002 C 
ATOM      8  C   UNL     1       1.152  -2.006   0.716  0.00  0.00    +0.008 C 
ATOM      9  C   UNL     1       1.437  -1.856  -0.797  0.00  0.00    +0.049 C 
ATOM     10  C   UNL     1       0.733  -0.563  -1.250  0.00  0.00    +0.132 C 
ATOM     11  C   UNL     1       0.003   0.916   2.913  0.00  0.00    +0.008 C 
ATOM     12  C   UNL     1      -1.216   1.161   3.790  0.00  0.00    +0.031 C 
ATOM     13  C   UNL     1      -1.589  -0.097   4.528  0.00  0.00    -0.061 C 
ATOM     14  C   UNL     1      -1.657  -0.119   5.849  0.00  0.00    +0.027 C 
ATOM     15  C   UNL     1      -1.999  -1.374   6.546  0.00  0.00    +0.057 C 
ATOM     16  C   UNL     1      -1.908  -2.537   5.898  0.00  0.00    +0.001 C 
ATOM     17  C   UNL     1      -1.432  -2.577   4.470  0.00  0.00    +0.040 C 
ATOM     18  C   UNL     1      -1.895  -1.331   3.733  0.00  0.00    -0.004 C 
ATOM     19  C   UNL     1      -3.411  -1.400   3.539  0.00  0.00    +0.016 C 
ENDROOT
BRANCH  10  20
ATOM     20  C   UNL     1      -0.241  -0.863  -2.312  0.00  0.00    -0.070 C 
ATOM     21  C   UNL     1      -1.018  -1.102  -3.159  0.00  0.00    +0.007 C 
ENDBRANCH  10  20
BRANCH  10  22
ATOM     22  O   UNL     1       1.697   0.382  -1.718  0.00  0.00    -0.376 OA
ATOM     23  H   UNL     1       2.187   0.090  -2.499  0.00  0.00    +0.211 HD
ENDBRANCH  10  22
BRANCH  15  24
ATOM     24  N   UNL     1      -2.416  -1.344   7.878  0.00  0.00    -0.266 N 
ATOM     25  H   UNL     1      -2.482  -0.497   8.347  0.00  0.00    +0.194 HD
BRANCH  24  26
ATOM     26  O   UNL     1      -2.743  -2.550   8.545  0.00  0.00    -0.265 OA
BRANCH  26  27
ATOM     27  C   UNL     1      -3.154  -2.370   9.902  0.00  0.00    +0.288 C 
BRANCH  27  28
ATOM     28  C   UNL     1      -3.475  -3.711  10.510  0.00  0.00    +0.242 C 
ATOM     29  O   UNL     1      -3.364  -4.720   9.847  0.00  0.00    -0.273 OA
ATOM     30  N   UNL     1      -3.887  -3.788  11.791  0.00  0.00    -0.297 N 
ATOM     31  H   UNL     1      -3.976  -2.981  12.322  0.00  0.00    +0.150 HD
BRANCH  30  32
ATOM     32  C   UNL     1      -4.200  -5.091  12.383  0.00  0.00    +0.213 C 
BRANCH  32  33
ATOM     33  C   UNL     1      -5.173  -4.907  13.519  0.00  0.00    -0.017 A 
ATOM     34  C   UNL     1      -5.036  -3.833  14.378  0.00  0.00    +0.006 A 
ATOM     35  C   UNL     1      -5.928  -3.663  15.421  0.00  0.00    +0.000 A 
ATOM     36  C   UNL     1      -6.957  -4.568  15.603  0.00  0.00    +0.000 A 
ATOM     37  C   UNL     1      -7.095  -5.641  14.743  0.00  0.00    +0.000 A 
ATOM     38  C   UNL     1      -6.205  -5.808  13.698  0.00  0.00    +0.006 A 
ENDBRANCH  32  33
BRANCH  32  39
ATOM     39  C   UNL     1      -2.935  -5.724  12.902  0.00  0.00    +0.332 C 
ATOM     40  O   UNL     1      -1.880  -5.146  12.790  0.00  0.00    -0.248 OA
BRANCH  39  41
ATOM     41  O   UNL     1      -2.980  -6.930  13.490  0.00  0.00    -0.466 OA
ATOM     42  C   UNL     1      -1.742  -7.470  13.959  0.00  0.00    +0.280 C 
ENDBRANCH  39  41
ENDBRANCH  32  39
ENDBRANCH  30  32
ENDBRANCH  27  28
ENDBRANCH  26  27
ENDBRANCH  24  26
ENDBRANCH  15  24
TORSDOF 10
