REMARK  Name = ZINC67382827
REMARK  11 active torsions:
REMARK  status: ('A' for Active; 'I' for Inactive)
REMARK    1  A    between atoms: C_1  and  C_2
REMARK    2  A    between atoms: C_2  and  C_3
REMARK    3  A    between atoms: C_6  and  C_9
REMARK    4  A    between atoms: C_9  and  C_11
REMARK    5  A    between atoms: C_9  and  N_25
REMARK    6  A    between atoms: C_11  and  N_12
REMARK    7  A    between atoms: N_15  and  N_16
REMARK    8  A    between atoms: C_17  and  C_19
REMARK    9  A    between atoms: C_20  and  C_24
REMARK   10  A    between atoms: N_25  and  C_26
REMARK   11  A    between atoms: N_25  and  C_27
REMARK                            x       y       z     vdW  Elec       q    Type
REMARK                         _______ _______ _______ _____ _____    ______ ____
ROOT
ATOM      1  N   UNL     1      -6.027  -0.323   1.480  0.00  0.00    -0.299 N 
ATOM      2  C   UNL     1      -6.768   0.769   1.756  0.00  0.00    +0.316 C 
ATOM      3  O   UNL     1      -7.529   1.214   0.918  0.00  0.00    -0.251 OA
ATOM      4  N   UNL     1      -6.667   1.366   2.959  0.00  0.00    -0.218 N 
ATOM      5  H   UNL     1      -5.420  -0.678   2.149  0.00  0.00    +0.150 HD
ATOM      6  H   UNL     1      -7.201   2.152   3.157  0.00  0.00    +0.174 HD
ENDROOT
BRANCH   4   7
ATOM      7  N   UNL     1      -5.791   0.853   3.925  0.00  0.00    -0.229 N 
ATOM      8  C   UNL     1      -5.690   1.451   5.128  0.00  0.00    +0.267 C 
ATOM      9  O   UNL     1      -6.359   2.436   5.377  0.00  0.00    -0.268 OA
ATOM     10  H   UNL     1      -5.257   0.068   3.727  0.00  0.00    +0.173 HD
BRANCH   8  11
ATOM     11  C   UNL     1      -4.773   0.914   6.138  0.00  0.00    +0.078 A 
ATOM     12  C   UNL     1      -4.526   1.370   7.425  0.00  0.00    -0.031 A 
ATOM     13  C   UNL     1      -3.602   0.651   8.145  0.00  0.00    +0.011 A 
ATOM     14  C   UNL     1      -3.009  -0.424   7.570  0.00  0.00    +0.046 A 
ATOM     15  S   UNL     1      -3.691  -0.499   6.036  0.00  0.00    -0.092 S 
ATOM     16  C   UNL     1      -5.225   2.576   7.996  0.00  0.00    +0.045 C 
ENDBRANCH   8  11
ENDBRANCH   4   7
BRANCH   1  17
ATOM     17  C   UNL     1      -6.137  -0.972   0.172  0.00  0.00    +0.095 C 
BRANCH  17  18
ATOM     18  C   UNL     1      -5.268  -2.232   0.153  0.00  0.00    -0.021 C 
BRANCH  18  22
ATOM     19  C   UNL     1      -1.160  -1.137   0.569  0.00  0.00    -0.048 A 
ATOM     20  C   UNL     1      -1.867  -1.597   1.664  0.00  0.00    +0.004 A 
ATOM     21  C   UNL     1      -3.196  -1.952   1.530  0.00  0.00    +0.002 A 
ATOM     22  C   UNL     1      -3.819  -1.845   0.300  0.00  0.00    -0.059 A 
ATOM     23  C   UNL     1      -3.112  -1.383  -0.795  0.00  0.00    +0.002 A 
ATOM     24  C   UNL     1      -1.784  -1.025  -0.659  0.00  0.00    +0.004 A 
BRANCH  19  26
ATOM     25  C   UNL     1       0.388   0.730   1.088  0.00  0.00    +0.009 C 
ATOM     26  C   UNL     1       0.289  -0.751   0.716  0.00  0.00    +0.032 C 
ENDBRANCH  19  26
ENDBRANCH  18  22
BRANCH  18  27
ATOM     27  N   UNL     1      -5.459  -2.939  -1.120  0.00  0.00    +0.382 N 
ATOM     28  C   UNL     1      -4.591  -4.124  -1.156  0.00  0.00    -0.096 C 
ATOM     29  C   UNL     1      -6.862  -3.356  -1.242  0.00  0.00    -0.096 C 
ATOM     30  H   UNL     1      -5.223  -2.325  -1.885  0.00  0.00    -0.082 HD
ENDBRANCH  18  27
ENDBRANCH  17  18
ENDBRANCH   1  17
TORSDOF 7
