REMARK  Name = ZINC21705443
REMARK  9 active torsions:
REMARK  status: ('A' for Active; 'I' for Inactive)
REMARK    1  A    between atoms: C_1  and  C_2
REMARK    2  A    between atoms: C_2  and  N_3
REMARK    3  A    between atoms: N_3  and  C_4
REMARK    4  A    between atoms: C_14  and  C_16
REMARK    5  A    between atoms: C_16  and  N_17
REMARK    6  A    between atoms: C_20  and  C_24
REMARK    7  A    between atoms: C_20  and  C_25
REMARK    8  A    between atoms: C_28  and  O_31
REMARK    9  A    between atoms: O_31  and  C_32
REMARK                            x       y       z     vdW  Elec       q    Type
REMARK                         _______ _______ _______ _____ _____    ______ ____
ROOT
ATOM      1  N   UNL     1       1.304  -0.351  -0.012  0.00  0.00    -0.215 N 
ATOM      2  C   UNL     1       0.002  -0.004   0.002  0.00  0.00    +0.251 C 
ATOM      3  O   UNL     1      -0.954  -0.749   0.008  0.00  0.00    -0.272 OA
ATOM      4  C   UNL     1      -0.018   1.512   0.010  0.00  0.00    +0.135 C 
ATOM      5  N   UNL     1       1.409   1.877  -0.001  0.00  0.00    -0.281 N 
ATOM      6  C   UNL     1       2.101   0.724  -0.014  0.00  0.00    +0.310 C 
ATOM      7  O   UNL     1       3.315   0.665  -0.026  0.00  0.00    -0.252 OA
ATOM      8  C   UNL     1      -0.698   2.034   1.278  0.00  0.00    +0.047 C 
ATOM      9  H   UNL     1       1.705   2.937   0.002  0.00  0.00    +0.152 HD
ENDROOT
BRANCH   4  10
ATOM     10  C   UNL     1      -0.711   2.039  -1.220  0.00  0.00    -0.015 A 
ATOM     11  C   UNL     1      -1.712   1.298  -1.820  0.00  0.00    +0.010 A 
ATOM     12  C   UNL     1      -2.353   1.782  -2.944  0.00  0.00    +0.046 A 
ATOM     13  C   UNL     1      -1.982   3.008  -3.478  0.00  0.00    +0.120 A 
ATOM     14  C   UNL     1      -0.974   3.747  -2.877  0.00  0.00    +0.046 A 
ATOM     15  C   UNL     1      -0.341   3.261  -1.750  0.00  0.00    +0.010 A 
BRANCH  13  16
ATOM     16  O   UNL     1      -2.606   3.483  -4.588  0.00  0.00    -0.495 OA
ATOM     17  C   UNL     1      -3.635   2.668  -5.152  0.00  0.00    +0.277 C 
ENDBRANCH  13  16
ENDBRANCH   4  10
BRANCH   1  18
ATOM     18  C   UNL     1       1.788  -1.734  -0.025  0.00  0.00    +0.214 C 
BRANCH  18  20
ATOM     19  N   UNL     1       2.375  -3.449  -1.708  0.00  0.00    -0.270 N 
ATOM     20  C   UNL     1       1.940  -2.199  -1.450  0.00  0.00    +0.238 C 
ATOM     21  O   UNL     1       1.671  -1.450  -2.365  0.00  0.00    -0.274 OA
BRANCH  19  22
ATOM     22  C   UNL     1       2.516  -3.880  -3.028  0.00  0.00    +0.044 A 
ATOM     23  C   UNL     1       3.708  -3.697  -3.696  0.00  0.00    +0.024 A 
ATOM     24  C   UNL     1       3.861  -4.127  -5.011  0.00  0.00    +0.002 A 
ATOM     25  C   UNL     1       2.837  -4.730  -5.676  0.00  0.00    +0.008 A 
ATOM     26  C   UNL     1       1.604  -4.931  -5.033  0.00  0.00    -0.016 A 
ATOM     27  C   UNL     1       1.438  -4.502  -3.693  0.00  0.00    +0.004 A 
ATOM     28  C   UNL     1       0.206  -4.703  -3.052  0.00  0.00    +0.010 A 
ATOM     29  C   UNL     1      -0.813  -5.306  -3.725  0.00  0.00    +0.001 A 
ATOM     30  C   UNL     1      -0.651  -5.729  -5.043  0.00  0.00    +0.001 A 
ATOM     31  C   UNL     1       0.530  -5.551  -5.695  0.00  0.00    +0.008 A 
ENDBRANCH  19  22
BRANCH  19  33
ATOM     32  C   UNL     1       1.451  -5.145  -0.208  0.00  0.00    +0.025 C 
ATOM     33  C   UNL     1       2.700  -4.354  -0.603  0.00  0.00    +0.110 C 
ENDBRANCH  19  33
ENDBRANCH  18  20
ENDBRANCH   1  18
TORSDOF 6
