REMARK  Name = ZINC24515599
REMARK  8 active torsions:
REMARK  status: ('A' for Active; 'I' for Inactive)
REMARK    1  A    between atoms: C_1  and  C_2
REMARK    2  A    between atoms: C_5  and  N_9
REMARK    3  A    between atoms: C_7  and  C_8
REMARK    4  A    between atoms: C_10  and  S_14
REMARK    5  A    between atoms: S_14  and  C_15
REMARK    6  A    between atoms: C_15  and  C_17
REMARK    7  A    between atoms: C_15  and  C_18
REMARK    8  A    between atoms: N_20  and  C_21
REMARK                            x       y       z     vdW  Elec       q    Type
REMARK                         _______ _______ _______ _____ _____    ______ ____
ROOT
ATOM      1  S   UNL     1      -1.511  -4.507  -2.307  0.00  0.00    -0.072 S 
ENDROOT
BRANCH   1   3
ATOM      2  N   UNL     1       0.091  -4.156  -0.049  0.00  0.00    -0.187 N 
ATOM      3  C   UNL     1      -0.522  -4.986  -0.930  0.00  0.00    +0.215 A 
ATOM      4  N   UNL     1      -0.238  -6.217  -0.561  0.00  0.00    -0.101 NA
ATOM      5  N   UNL     1       0.507  -6.213   0.485  0.00  0.00    -0.022 NA
ATOM      6  N   UNL     1       0.756  -5.003   0.855  0.00  0.00    -0.038 NA
BRANCH   2  11
ATOM      7  C   UNL     1       0.005   1.520  -0.029  0.00  0.00    +0.044 C 
ATOM      8  C   UNL     1       0.028   0.013  -0.035  0.00  0.00    -0.047 A 
ATOM      9  C   UNL     1       0.024  -0.673  -1.235  0.00  0.00    +0.006 A 
ATOM     10  C   UNL     1       0.045  -2.054  -1.243  0.00  0.00    +0.028 A 
ATOM     11  C   UNL     1       0.070  -2.754  -0.044  0.00  0.00    +0.070 A 
ATOM     12  C   UNL     1       0.075  -2.062   1.160  0.00  0.00    +0.031 A 
ATOM     13  C   UNL     1       0.059  -0.681   1.161  0.00  0.00    -0.046 A 
ATOM     14  C   UNL     1       0.070   0.071   2.467  0.00  0.00    +0.044 C 
ENDBRANCH   2  11
ENDBRANCH   1   3
BRANCH   1  15
ATOM     15  C   UNL     1      -2.015  -6.081  -3.054  0.00  0.00    +0.137 C 
ATOM     16  C   UNL     1      -2.911  -6.846  -2.077  0.00  0.00    +0.029 C 
BRANCH  15  17
ATOM     17  C   UNL     1      -2.775  -5.812  -4.327  0.00  0.00    +0.230 C 
ATOM     18  O   UNL     1      -3.273  -4.723  -4.518  0.00  0.00    -0.274 OA
ATOM     19  N   UNL     1      -2.901  -6.782  -5.255  0.00  0.00    -0.283 N 
ATOM     20  H   UNL     1      -2.448  -7.631  -5.133  0.00  0.00    +0.155 HD
BRANCH  19  21
ATOM     21  C   UNL     1      -3.684  -6.564  -6.394  0.00  0.00    +0.053 A 
ATOM     22  C   UNL     1      -3.740  -5.302  -6.969  0.00  0.00    +0.044 A 
ATOM     23  C   UNL     1      -4.514  -5.090  -8.094  0.00  0.00    +0.043 A 
ATOM     24  C   UNL     1      -5.234  -6.134  -8.647  0.00  0.00    +0.021 A 
ATOM     25  C   UNL     1      -5.181  -7.392  -8.077  0.00  0.00    +0.023 A 
ATOM     26  C   UNL     1      -4.404  -7.612  -6.955  0.00  0.00    +0.062 A 
ATOM     27 CL   UNL     1      -4.333  -9.194  -6.243  0.00  0.00    -0.082 Cl
ATOM     28 CL   UNL     1      -4.584  -3.511  -8.813  0.00  0.00    -0.083 Cl
ENDBRANCH  19  21
ENDBRANCH  15  17
ENDBRANCH   1  15
TORSDOF 5
