REMARK  Name = ZINC05311593
REMARK  7 active torsions:
REMARK  status: ('A' for Active; 'I' for Inactive)
REMARK    1  A    between atoms: C_1  and  C_2
REMARK    2  A    between atoms: C_7  and  C_8
REMARK    3  A    between atoms: C_8  and  O_9
REMARK    4  A    between atoms: O_9  and  C_10
REMARK    5  A    between atoms: C_10  and  C_12
REMARK    6  A    between atoms: C_13  and  C_24
REMARK    7  A    between atoms: C_19  and  C_23
REMARK                            x       y       z     vdW  Elec       q    Type
REMARK                         _______ _______ _______ _____ _____    ______ ____
ROOT
ATOM      1  C   UNL     1      -1.476   3.850   2.548  0.00  0.00    +0.102 A 
ATOM      2  C   UNL     1      -1.675   5.157   2.888  0.00  0.00    -0.015 A 
ATOM      3  C   UNL     1      -2.351   5.472   4.069  0.00  0.00    +0.076 A 
ATOM      4  C   UNL     1      -2.682   6.801   4.632  0.00  0.00    +0.260 A 
ATOM      5  O   UNL     1      -2.365   7.823   4.049  0.00  0.00    -0.267 OA
ATOM      6  N   UNL     1      -3.344   6.851   5.804  0.00  0.00    -0.311 N 
ATOM      7  H   UNL     1      -3.576   7.740   6.198  0.00  0.00    +0.170 HD
ATOM      8  C   UNL     1      -3.703   5.720   6.460  0.00  0.00    +0.108 A 
ATOM      9  N   UNL     1      -3.426   4.533   5.992  0.00  0.00    -0.227 NA
ATOM     10  C   UNL     1      -2.778   4.371   4.846  0.00  0.00    +0.116 A 
ATOM     11  S   UNL     1      -2.232   2.970   3.904  0.00  0.00    -0.062 S 
ATOM     12  C   UNL     1      -4.441   5.837   7.769  0.00  0.00    +0.086 C 
ATOM     13  C   UNL     1      -1.172   6.257   1.990  0.00  0.00    +0.046 C 
ENDROOT
BRANCH   1  14
ATOM     14  C   UNL     1      -0.803   3.306   1.366  0.00  0.00    +0.347 C 
ATOM     15  O   UNL     1      -0.339   4.058   0.530  0.00  0.00    -0.244 OA
BRANCH  14  16
ATOM     16  O   UNL     1      -0.698   1.971   1.205  0.00  0.00    -0.456 OA
BRANCH  16  17
ATOM     17  C   UNL     1      -0.018   1.503   0.010  0.00  0.00    +0.268 C 
BRANCH  17  24
ATOM     18  C   UNL     1       1.231   0.087  -2.176  0.00  0.00    +0.044 C 
ATOM     19  C   UNL     1       0.600  -0.681  -1.044  0.00  0.00    -0.044 A 
ATOM     20  C   UNL     1       0.619  -2.064  -1.051  0.00  0.00    +0.004 A 
ATOM     21  C   UNL     1       0.040  -2.768  -0.013  0.00  0.00    +0.000 A 
ATOM     22  C   UNL     1      -0.558  -2.091   1.034  0.00  0.00    +0.000 A 
ATOM     23  C   UNL     1      -0.572  -0.709   1.044  0.00  0.00    +0.007 A 
ATOM     24  C   UNL     1       0.002  -0.004   0.002  0.00  0.00    -0.007 A 
ENDBRANCH  17  24
ENDBRANCH  16  17
ENDBRANCH  14  16
ENDBRANCH   1  14
TORSDOF 4
