REMARK  Name = ZINC20522077
REMARK  7 active torsions:
REMARK  status: ('A' for Active; 'I' for Inactive)
REMARK    1  A    between atoms: C_4  and  C_7
REMARK    2  A    between atoms: C_7  and  C_8
REMARK    3  A    between atoms: C_8  and  C_9
REMARK    4  A    between atoms: C_9  and  S_10
REMARK    5  A    between atoms: S_10  and  C_11
REMARK    6  A    between atoms: C_14  and  C_22
REMARK    7  A    between atoms: N_15  and  C_16
REMARK                            x       y       z     vdW  Elec       q    Type
REMARK                         _______ _______ _______ _____ _____    ______ ____
ROOT
ATOM      1  C   UNL     1       0.198   0.947   5.234  0.00  0.00    +0.196 A 
ATOM      2  N   UNL     1       1.268   0.212   5.029  0.00  0.00    -0.122 NA
ATOM      3  N   UNL     1       1.784  -0.141   6.152  0.00  0.00    -0.128 NA
ATOM      4  C   UNL     1       1.076   0.346   7.144  0.00  0.00    +0.169 A 
ATOM      5  N   UNL     1       0.040   1.064   6.588  0.00  0.00    -0.270 N 
ENDROOT
BRANCH   5   6
ATOM      6  C   UNL     1      -0.966   1.765   7.266  0.00  0.00    +0.051 A 
ATOM      7  C   UNL     1      -0.641   2.866   8.047  0.00  0.00    +0.026 A 
ATOM      8  C   UNL     1      -1.636   3.558   8.710  0.00  0.00    +0.002 A 
ATOM      9  C   UNL     1      -2.952   3.148   8.607  0.00  0.00    +0.000 A 
ATOM     10  C   UNL     1      -3.278   2.048   7.835  0.00  0.00    +0.002 A 
ATOM     11  C   UNL     1      -2.289   1.356   7.164  0.00  0.00    +0.026 A 
ENDBRANCH   5   6
BRANCH   4  12
ATOM     12  C   UNL     1       1.344   0.164   8.586  0.00  0.00    +0.020 A 
ATOM     13  C   UNL     1       0.358   0.469   9.526  0.00  0.00    +0.011 A 
ATOM     14  C   UNL     1       0.612   0.292  10.870  0.00  0.00    +0.001 A 
ATOM     15  C   UNL     1       1.845  -0.178  11.289  0.00  0.00    +0.000 A 
ATOM     16  C   UNL     1       2.828  -0.478  10.362  0.00  0.00    +0.001 A 
ATOM     17  C   UNL     1       2.585  -0.310   9.015  0.00  0.00    +0.011 A 
ENDBRANCH   4  12
BRANCH   1  18
ATOM     18  S   UNL     1      -0.836   1.656   3.995  0.00  0.00    -0.086 S 
BRANCH  18  19
ATOM     19  C   UNL     1       0.011   1.072   2.506  0.00  0.00    +0.078 C 
BRANCH  19  20
ATOM     20  C   UNL     1      -0.729   1.579   1.267  0.00  0.00    +0.016 C 
BRANCH  20  21
ATOM     21  C   UNL     1      -0.013   1.086   0.008  0.00  0.00    +0.036 C 
BRANCH  21  25
ATOM     22  C   UNL     1      -2.079   2.501  -3.453  0.00  0.00    +0.000 A 
ATOM     23  C   UNL     1      -1.066   3.259  -2.894  0.00  0.00    +0.000 A 
ATOM     24  C   UNL     1      -0.398   2.801  -1.774  0.00  0.00    +0.003 A 
ATOM     25  C   UNL     1      -0.742   1.585  -1.213  0.00  0.00    -0.047 A 
ATOM     26  C   UNL     1      -1.750   0.825  -1.775  0.00  0.00    +0.003 A 
ATOM     27  C   UNL     1      -2.422   1.285  -2.892  0.00  0.00    +0.000 A 
ENDBRANCH  21  25
ENDBRANCH  20  21
ENDBRANCH  19  20
ENDBRANCH  18  19
ENDBRANCH   1  18
TORSDOF 7
