REMARK  Name = ZINC08536106
REMARK  7 active torsions:
REMARK  status: ('A' for Active; 'I' for Inactive)
REMARK    1  A    between atoms: C_1  and  C_2
REMARK    2  A    between atoms: C_3  and  C_8
REMARK    3  A    between atoms: C_4  and  C_7
REMARK    4  A    between atoms: C_11  and  C_13
REMARK    5  A    between atoms: N_15  and  C_16
REMARK    6  A    between atoms: C_19  and  N_22
REMARK    7  A    between atoms: N_23  and  C_24
REMARK                            x       y       z     vdW  Elec       q    Type
REMARK                         _______ _______ _______ _____ _____    ______ ____
ROOT
ATOM      1  C   UNL     1      -3.746  -1.341  -8.354  0.00  0.00    +0.255 C 
ATOM      2  O   UNL     1      -2.652  -0.823  -8.227  0.00  0.00    -0.269 OA
ATOM      3  N   UNL     1      -4.705  -0.723  -9.071  0.00  0.00    -0.281 N 
ATOM      4  H   UNL     1      -5.537  -1.183  -9.267  0.00  0.00    +0.155 HD
ENDROOT
BRANCH   3   5
ATOM      5  C   UNL     1      -4.503   0.578  -9.530  0.00  0.00    +0.034 A 
ATOM      6  C   UNL     1      -5.591   1.424  -9.721  0.00  0.00    +0.025 A 
ATOM      7  C   UNL     1      -5.396   2.709 -10.174  0.00  0.00    +0.031 A 
ATOM      8  C   UNL     1      -4.101   3.165 -10.443  0.00  0.00    +0.086 A 
ATOM      9  C   UNL     1      -3.009   2.311 -10.250  0.00  0.00    +0.031 A 
ATOM     10  C   UNL     1      -3.213   1.029  -9.792  0.00  0.00    +0.025 A 
BRANCH   8  11
ATOM     11  N   UNL     1      -3.902   4.438 -10.893  0.00  0.00    -0.149 NA
ATOM     12  N   UNL     1      -4.839   5.317 -10.774  0.00  0.00    -0.149 NA
BRANCH  12  13
ATOM     13  C   UNL     1      -5.619   5.337  -9.652  0.00  0.00    +0.086 A 
ATOM     14  C   UNL     1      -6.828   6.039  -9.649  0.00  0.00    +0.029 A 
ATOM     15  C   UNL     1      -7.610   6.055  -8.513  0.00  0.00    +0.002 A 
ATOM     16  C   UNL     1      -7.200   5.378  -7.377  0.00  0.00    +0.000 A 
ATOM     17  C   UNL     1      -6.004   4.681  -7.372  0.00  0.00    +0.002 A 
ATOM     18  C   UNL     1      -5.215   4.651  -8.503  0.00  0.00    +0.029 A 
ENDBRANCH  12  13
ENDBRANCH   8  11
ENDBRANCH   3   5
BRANCH   1  22
ATOM     19  C   UNL     1      -4.960  -4.976  -6.771  0.00  0.00    +0.025 A 
ATOM     20  C   UNL     1      -3.656  -4.612  -6.476  0.00  0.00    +0.017 A 
ATOM     21  C   UNL     1      -3.178  -3.427  -6.960  0.00  0.00    +0.021 A 
ATOM     22  C   UNL     1      -4.019  -2.635  -7.730  0.00  0.00    +0.075 A 
ATOM     23  S   UNL     1      -5.518  -3.604  -7.767  0.00  0.00    -0.084 S 
BRANCH  19  26
ATOM     24  C   UNL     1      -7.513  -5.057  -4.882  0.00  0.00    +0.070 C 
ATOM     25  C   UNL     1      -6.838  -6.240  -5.527  0.00  0.00    +0.089 A 
ATOM     26  C   UNL     1      -5.697  -6.192  -6.369  0.00  0.00    +0.053 A 
ATOM     27  C   UNL     1      -5.405  -7.470  -6.740  0.00  0.00    +0.143 A 
ATOM     28  O   UNL     1      -6.307  -8.280  -6.168  0.00  0.00    -0.359 OA
ATOM     29  N   UNL     1      -7.195  -7.484  -5.405  0.00  0.00    -0.083 NA
ATOM     30  C   UNL     1      -4.271  -7.896  -7.636  0.00  0.00    +0.090 C 
ENDBRANCH  19  26
ENDBRANCH   1  22
TORSDOF 5
