REMARK  Name = ZINC07347473
REMARK  6 active torsions:
REMARK  status: ('A' for Active; 'I' for Inactive)
REMARK    1  A    between atoms: C_4  and  C_7
REMARK    2  A    between atoms: C_7  and  C_9
REMARK    3  A    between atoms: C_7  and  N_14
REMARK    4  A    between atoms: C_15  and  C_17
REMARK    5  A    between atoms: C_17  and  N_53
REMARK    6  A    between atoms: N_20  and  C_23
REMARK                            x       y       z     vdW  Elec       q    Type
REMARK                         _______ _______ _______ _____ _____    ______ ____
ROOT
ATOM      1  N   UNL     1       5.185  -0.213   3.273  0.00  0.00    -0.306 N 
ATOM      2  C   UNL     1       4.255   0.181   2.380  0.00  0.00    +0.197 C 
ATOM      3  O   UNL     1       4.505   1.075   1.600  0.00  0.00    -0.278 OA
ATOM      4  H   UNL     1       4.985  -0.928   3.897  0.00  0.00    +0.150 HD
ENDROOT
BRANCH   1   5
ATOM      5  C   UNL     1       6.497   0.437   3.300  0.00  0.00    +0.140 C 
BRANCH   5   9
ATOM      6  C   UNL     1       9.381  -2.241   4.961  0.00  0.00    +0.000 A 
ATOM      7  C   UNL     1       9.717  -1.446   3.881  0.00  0.00    +0.000 A 
ATOM      8  C   UNL     1       8.784  -0.580   3.343  0.00  0.00    +0.006 A 
ATOM      9  C   UNL     1       7.514  -0.508   3.886  0.00  0.00    -0.022 A 
ATOM     10  C   UNL     1       7.180  -1.298   4.969  0.00  0.00    +0.006 A 
ATOM     11  C   UNL     1       8.112  -2.168   5.504  0.00  0.00    +0.000 A 
ENDBRANCH   5   9
BRANCH   5  12
ATOM     12  C   UNL     1       6.423   1.683   4.145  0.00  0.00    +0.014 A 
ATOM     13  C   UNL     1       6.998   2.892   3.936  0.00  0.00    +0.013 A 
ATOM     14  C   UNL     1       6.787   3.903   4.855  0.00  0.00    +0.008 A 
ATOM     15  C   UNL     1       6.020   3.651   5.944  0.00  0.00    +0.045 A 
ATOM     16  S   UNL     1       5.561   1.945   5.687  0.00  0.00    -0.099 S 
ENDBRANCH   5  12
ENDBRANCH   1   5
BRANCH   2  17
ATOM     17  C   UNL     1       2.905  -0.488   2.352  0.00  0.00    +0.019 C 
BRANCH  17  23
ATOM     18  C   UNL     1       2.749  -0.403  -0.063  0.00  0.00    -0.059 C 
ATOM     19  C   UNL     1       1.964   0.203  -1.229  0.00  0.00    +0.086 C 
ATOM     20  N   UNL     1       0.565  -0.240  -1.156  0.00  0.00    -0.333 N 
ATOM     21  C   UNL     1      -0.050   0.175   0.113  0.00  0.00    +0.086 C 
ATOM     22  C   UNL     1       0.735  -0.430   1.279  0.00  0.00    -0.059 C 
ATOM     23  N   UNL     1       2.135   0.040   1.206  0.00  0.00    +0.387 N 
ATOM     24  H   UNL     1       2.144   1.066   1.242  0.00  0.00    -0.081 HD
BRANCH  20  25
ATOM     25  C   UNL     1      -0.169   0.236  -2.247  0.00  0.00    +0.030 A 
ATOM     26  C   UNL     1       0.449   1.022  -3.211  0.00  0.00    +0.026 A 
ATOM     27  C   UNL     1      -0.276   1.486  -4.290  0.00  0.00    +0.040 A 
ATOM     28  C   UNL     1      -1.621   1.178  -4.406  0.00  0.00    +0.124 A 
ATOM     29  C   UNL     1      -2.241   0.399  -3.444  0.00  0.00    +0.040 A 
ATOM     30  C   UNL     1      -1.518  -0.072  -2.365  0.00  0.00    +0.026 A 
ATOM     31  F   UNL     1      -2.330   1.638  -5.461  0.00  0.00    -0.205 F 
ENDBRANCH  20  25
ENDBRANCH  17  23
ENDBRANCH   2  17
TORSDOF 6
