REMARK  Name = ZINC08413599
REMARK  6 active torsions:
REMARK  status: ('A' for Active; 'I' for Inactive)
REMARK    1  A    between atoms: C_1  and  C_2
REMARK    2  A    between atoms: C_9  and  C_11
REMARK    3  A    between atoms: C_12  and  C_36
REMARK    4  A    between atoms: C_16  and  C_18
REMARK    5  A    between atoms: C_22  and  O_24
REMARK    6  A    between atoms: O_24  and  C_25
REMARK                            x       y       z     vdW  Elec       q    Type
REMARK                         _______ _______ _______ _____ _____    ______ ____
ROOT
ATOM      1  C   UNL     1      -2.067  -3.645   1.069  0.00  0.00    +0.043 C 
ATOM      2  C   UNL     1      -1.787  -4.939   0.839  0.00  0.00    +0.014 C 
ATOM      3  N   UNL     1      -1.534  -5.378  -0.431  0.00  0.00    -0.321 N 
ATOM      4  C   UNL     1      -1.938  -4.646  -1.515  0.00  0.00    +0.015 C 
ATOM      5  C   UNL     1      -2.222  -3.333  -1.386  0.00  0.00    +0.024 C 
ATOM      6  C   UNL     1      -2.102  -2.645  -0.050  0.00  0.00    +0.090 C 
ATOM      7  C   UNL     1      -2.638  -2.568  -2.491  0.00  0.00    +0.162 C 
ATOM      8  O   UNL     1      -2.899  -1.391  -2.338  0.00  0.00    -0.292 OA
ATOM      9  C   UNL     1      -2.763  -3.182  -3.859  0.00  0.00    +0.080 C 
ATOM     10  C   UNL     1      -1.774  -4.346  -3.975  0.00  0.00    +0.014 C 
ATOM     11  C   UNL     1      -2.061  -5.341  -2.848  0.00  0.00    +0.051 C 
ATOM     12  C   UNL     1      -1.752  -5.913   1.989  0.00  0.00    +0.061 C 
ATOM     13  H   UNL     1      -1.000  -6.327  -0.589  0.00  0.00    +0.152 HD
ENDROOT
BRANCH   1  22
ATOM     14  C   UNL     1      -3.320  -0.201   7.933  0.00  0.00    +0.045 C 
ATOM     15  C   UNL     1      -3.177  -0.637   6.497  0.00  0.00    -0.032 A 
ATOM     16  C   UNL     1      -3.555   0.212   5.465  0.00  0.00    +0.008 A 
ATOM     17  C   UNL     1      -3.408  -0.227   4.162  0.00  0.00    +0.044 A 
ATOM     18  C   UNL     1      -2.889  -1.496   3.930  0.00  0.00    +0.125 A 
ATOM     19  N   UNL     1      -2.544  -2.278   4.941  0.00  0.00    -0.240 NA
ATOM     20  C   UNL     1      -2.669  -1.884   6.194  0.00  0.00    +0.116 A 
ATOM     21  N   UNL     1      -2.735  -1.951   2.623  0.00  0.00    -0.267 N 
ATOM     22  C   UNL     1      -2.334  -3.217   2.392  0.00  0.00    +0.248 C 
ATOM     23  O   UNL     1      -2.202  -3.992   3.321  0.00  0.00    -0.270 OA
ATOM     24  H   UNL     1      -2.940  -1.276   1.778  0.00  0.00    +0.157 HD
ENDBRANCH   1  22
BRANCH   6  25
ATOM     25  C   UNL     1      -0.835  -1.831  -0.024  0.00  0.00    -0.032 A 
ATOM     26  C   UNL     1       0.390  -2.454  -0.182  0.00  0.00    +0.005 A 
ATOM     27  C   UNL     1       1.555  -1.710  -0.159  0.00  0.00    +0.004 A 
ATOM     28  C   UNL     1       1.498  -0.341   0.021  0.00  0.00    +0.046 A 
ATOM     29  C   UNL     1       0.271   0.286   0.179  0.00  0.00    +0.129 A 
ATOM     30  C   UNL     1      -0.896  -0.464   0.161  0.00  0.00    +0.050 A 
BRANCH  29  31
ATOM     31  O   UNL     1       0.213   1.632   0.356  0.00  0.00    -0.456 OA
BRANCH  31  32
ATOM     32  C   UNL     1       0.583   2.429  -0.680  0.00  0.00    +0.128 A 
ATOM     33  C   UNL     1       0.892   1.869  -1.912  0.00  0.00    +0.046 A 
ATOM     34  C   UNL     1       1.262   2.682  -2.965  0.00  0.00    +0.004 A 
ATOM     35  C   UNL     1       1.337   4.052  -2.791  0.00  0.00    +0.000 A 
ATOM     36  C   UNL     1       1.035   4.612  -1.563  0.00  0.00    +0.004 A 
ATOM     37  C   UNL     1       0.658   3.804  -0.508  0.00  0.00    +0.046 A 
ENDBRANCH  31  32
ENDBRANCH  29  31
ENDBRANCH   6  25
TORSDOF 4
