REMARK  Name = ZINC52213570
REMARK  4 active torsions:
REMARK  status: ('A' for Active; 'I' for Inactive)
REMARK    1  A    between atoms: C_5  and  C_8
REMARK    2  A    between atoms: C_5  and  C_12
REMARK    3  A    between atoms: N_9  and  O_10
REMARK    4  A    between atoms: N_14  and  C_15
REMARK                            x       y       z     vdW  Elec       q    Type
REMARK                         _______ _______ _______ _____ _____    ______ ____
ROOT
ATOM      1  C   UNL     1      -0.143   1.431   0.179  0.00  0.00    +0.000 C 
ATOM      2  C   UNL     1       1.258   2.021  -0.075  0.00  0.00    +0.000 C 
ATOM      3  C   UNL     1       2.001   2.069   1.233  0.00  0.00    +0.001 C 
ATOM      4  C   UNL     1       2.880   0.824   1.458  0.00  0.00    +0.024 C 
ATOM      5  C   UNL     1       2.182  -0.484   1.038  0.00  0.00    +0.105 C 
ATOM      6  C   UNL     1       0.736  -0.523   1.452  0.00  0.00    +0.024 C 
ATOM      7  C   UNL     1      -0.125  -0.022   0.274  0.00  0.00    +0.001 C 
ENDROOT
BRANCH   5   8
ATOM      8  C   UNL     1       2.902  -1.646   1.672  0.00  0.00    +0.147 C 
ATOM      9  N   UNL     1       2.921  -1.770   2.958  0.00  0.00    -0.076 NA
ATOM     10  N   UNL     1       3.540  -2.575   0.881  0.00  0.00    -0.343 N 
ATOM     11  H   UNL     1       3.467  -2.522  -0.085  0.00  0.00    +0.144 HD
ATOM     12  H   UNL     1       4.062  -3.283   1.289  0.00  0.00    +0.144 HD
BRANCH   9  13
ATOM     13  O   UNL     1       2.176  -0.878   3.767  0.00  0.00    -0.408 OA
ATOM     14  H   UNL     1       2.252  -1.050   4.715  0.00  0.00    +0.328 HD
ENDBRANCH   9  13
ENDBRANCH   5   8
BRANCH   5  15
ATOM     15  C   UNL     1       2.264  -0.621  -0.460  0.00  0.00    +0.227 C 
ATOM     16  O   UNL     1       2.951   0.144  -1.103  0.00  0.00    -0.275 OA
ATOM     17  N   UNL     1       1.575  -1.595  -1.087  0.00  0.00    -0.312 N 
ATOM     18  H   UNL     1       0.965  -2.158  -0.584  0.00  0.00    +0.149 HD
BRANCH  17  19
ATOM     19  C   UNL     1       1.745  -1.803  -2.527  0.00  0.00    +0.073 C 
ATOM     20  C   UNL     1       0.538  -1.345  -3.362  0.00  0.00    +0.022 C 
ATOM     21  C   UNL     1       0.753  -2.604  -4.219  0.00  0.00    +0.004 C 
ATOM     22  C   UNL     1       1.419  -3.235  -2.985  0.00  0.00    +0.022 C 
ENDBRANCH  17  19
ENDBRANCH   5  15
TORSDOF 4
