REMARK  Name = ZINC20663050
REMARK  8 active torsions:
REMARK  status: ('A' for Active; 'I' for Inactive)
REMARK    1  A    between atoms: C_1  and  C_2
REMARK    2  A    between atoms: C_2  and  C_3
REMARK    3  A    between atoms: C_2  and  C_4
REMARK    4  A    between atoms: C_2  and  C_5
REMARK    5  A    between atoms: C_8  and  C_11
REMARK    6  A    between atoms: N_13  and  C_14
REMARK    7  A    between atoms: C_14  and  C_23
REMARK    8  A    between atoms: C_15  and  C_16
REMARK                            x       y       z     vdW  Elec       q    Type
REMARK                         _______ _______ _______ _____ _____    ______ ____
ROOT
ATOM      1  C   UNL     1       0.138   1.868  -4.660  0.00  0.00    +0.097 C 
ATOM      2  C   UNL     1       0.222   0.563  -5.009  0.00  0.00    +0.036 C 
ENDROOT
BRANCH   1   3
ATOM      3  C   UNL     1      -0.278   2.239  -3.299  0.00  0.00    +0.261 C 
ATOM      4  O   UNL     1      -1.458   2.377  -3.040  0.00  0.00    -0.269 OA
ATOM      5  N   UNL     1       0.649   2.428  -2.339  0.00  0.00    -0.296 N 
ATOM      6  C   UNL     1       2.069   2.167  -2.605  0.00  0.00    +0.113 C 
ATOM      7  C   UNL     1       2.654   1.277  -1.518  0.00  0.00    +0.027 C 
ATOM      8  C   UNL     1       2.325   1.820  -0.127  0.00  0.00    +0.018 C 
ATOM      9  C   UNL     1       0.802   1.882   0.019  0.00  0.00    +0.054 C 
ATOM     10  C   UNL     1       0.260   2.899  -1.000  0.00  0.00    +0.117 C 
ATOM     11  C   UNL     1       0.203   0.535  -0.312  0.00  0.00    +0.027 A 
ATOM     12  C   UNL     1      -0.985   0.218   0.269  0.00  0.00    +0.022 A 
ATOM     13  C   UNL     1      -1.631  -0.983  -0.041  0.00  0.00    +0.007 A 
ATOM     14  C   UNL     1      -1.063  -1.819  -0.957  0.00  0.00    +0.070 A 
ATOM     15  C   UNL     1       0.160  -1.461  -1.542  0.00  0.00    +0.251 A 
ATOM     16  O   UNL     1       0.646  -2.170  -2.408  0.00  0.00    -0.268 OA
ATOM     17  N   UNL     1       0.807  -0.335  -1.154  0.00  0.00    -0.312 N 
ATOM     18  C   UNL     1       2.177  -0.159  -1.637  0.00  0.00    +0.130 C 
ENDBRANCH   1   3
BRANCH   2  19
ATOM     19  C   UNL     1       0.491   0.192  -6.407  0.00  0.00    -0.022 A 
ATOM     20  C   UNL     1       1.010  -1.071  -6.711  0.00  0.00    +0.008 A 
ATOM     21  C   UNL     1       1.260  -1.413  -8.023  0.00  0.00    +0.002 A 
ATOM     22  C   UNL     1       0.998  -0.510  -9.039  0.00  0.00    +0.020 A 
ATOM     23  C   UNL     1       0.485   0.743  -8.746  0.00  0.00    +0.042 A 
ATOM     24  C   UNL     1       0.225   1.097  -7.438  0.00  0.00    +0.028 A 
ATOM     25 CL   UNL     1       0.161   1.867 -10.029  0.00  0.00    -0.084 Cl
ENDBRANCH   2  19
BRANCH   1  28
ATOM     26  C   UNL     1      -0.456   3.822  -5.878  0.00  0.00    +0.248 C 
ATOM     27  O   UNL     1      -1.499   3.879  -5.256  0.00  0.00    -0.270 OA
ATOM     28  N   UNL     1       0.446   2.862  -5.593  0.00  0.00    -0.277 N 
ATOM     29  H   UNL     1       1.425   2.861  -6.094  0.00  0.00    +0.155 HD
BRANCH  26  33
ATOM     30  C   UNL     1       0.345   6.645  -8.947  0.00  0.00    -0.042 A 
ATOM     31  C   UNL     1      -0.792   6.777  -8.170  0.00  0.00    +0.005 A 
ATOM     32  C   UNL     1      -1.059   5.863  -7.172  0.00  0.00    +0.013 A 
ATOM     33  C   UNL     1      -0.177   4.804  -6.946  0.00  0.00    +0.037 A 
ATOM     34  C   UNL     1       0.971   4.681  -7.729  0.00  0.00    +0.013 A 
ATOM     35  C   UNL     1       1.222   5.598  -8.729  0.00  0.00    +0.005 A 
BRANCH  30  37
ATOM     36  C   UNL     1       0.756   9.044  -9.425  0.00  0.00    +0.015 C 
ATOM     37  C   UNL     1       0.629   7.647 -10.037  0.00  0.00    -0.013 C 
ATOM     38  C   UNL     1       1.936   7.278 -10.742  0.00  0.00    +0.015 C 
ATOM     39  C   UNL     1      -0.517   7.637 -11.050  0.00  0.00    +0.015 C 
ENDBRANCH  30  37
ENDBRANCH  26  33
ENDBRANCH   1  28
TORSDOF 5
