REMARK  Name = ZINC36313743
REMARK  18 active torsions:
REMARK  status: ('A' for Active; 'I' for Inactive)
REMARK    1  A    between atoms: C_1  and  C_2
REMARK    2  A    between atoms: C_2  and  C_3
REMARK    3  A    between atoms: C_3  and  C_4
REMARK    4  A    between atoms: C_4  and  C_5
REMARK    5  A    between atoms: C_5  and  C_7
REMARK    6  A    between atoms: C_5  and  O_34
REMARK    7  A    between atoms: C_7  and  N_8
REMARK    8  A    between atoms: N_8  and  C_9
REMARK    9  A    between atoms: N_8  and  C_12
REMARK   10  A    between atoms: C_9  and  C_10
REMARK   11  A    between atoms: C_10  and  C_11
REMARK   12  A    between atoms: C_12  and  C_13
REMARK   13  A    between atoms: C_14  and  C_33
REMARK   14  A    between atoms: N_16  and  C_27
REMARK   15  A    between atoms: C_17  and  O_18
REMARK   16  A    between atoms: O_18  and  C_19
REMARK   17  A    between atoms: C_24  and  O_25
REMARK   18  A    between atoms: O_25  and  C_26
REMARK                            x       y       z     vdW  Elec       q    Type
REMARK                         _______ _______ _______ _____ _____    ______ ____
ROOT
ATOM      1  C   UNL     1       2.658  -6.534   5.833  0.00  0.00    +0.021 A 
ATOM      2  C   UNL     1       3.993  -6.330   6.194  0.00  0.00    +0.065 A 
ATOM      3  N   UNL     1       4.064  -6.261   7.499  0.00  0.00    -0.168 NA
ATOM      4  N   UNL     1       2.774  -6.418   8.020  0.00  0.00    -0.200 N 
ATOM      5  C   UNL     1       1.919  -6.580   6.974  0.00  0.00    +0.225 A 
ATOM      6  C   UNL     1       5.155  -6.210   5.241  0.00  0.00    +0.068 C 
ENDROOT
BRANCH   4   7
ATOM      7  C   UNL     1       2.424  -6.406   9.378  0.00  0.00    +0.069 A 
ATOM      8  C   UNL     1       1.268  -5.757   9.793  0.00  0.00    +0.028 A 
ATOM      9  C   UNL     1       0.927  -5.747  11.131  0.00  0.00    +0.002 A 
ATOM     10  C   UNL     1       1.734  -6.381  12.057  0.00  0.00    +0.000 A 
ATOM     11  C   UNL     1       2.886  -7.027  11.647  0.00  0.00    +0.002 A 
ATOM     12  C   UNL     1       3.230  -7.047  10.309  0.00  0.00    +0.028 A 
ENDBRANCH   4   7
BRANCH   1  13
ATOM     13  C   UNL     1       2.130  -6.671   4.429  0.00  0.00    -0.036 C 
BRANCH  13  14
ATOM     14  N   UNL     1       1.773  -5.345   3.907  0.00  0.00    +0.384 N 
ATOM     15  H   UNL     1       1.125  -4.899   4.539  0.00  0.00    -0.081 HD
BRANCH  14  16
ATOM     16  C   UNL     1       1.147  -5.490   2.586  0.00  0.00    -0.047 C 
BRANCH  16  17
ATOM     17  C   UNL     1      -0.190  -6.220   2.732  0.00  0.00    +0.098 C 
BRANCH  17  18
ATOM     18  O   UNL     1      -1.056  -5.463   3.580  0.00  0.00    -0.394 OA
ATOM     19  H   UNL     1      -1.310  -4.604   3.216  0.00  0.00    +0.210 HD
ENDBRANCH  17  18
BRANCH  17  20
ATOM     20  C   UNL     1      -0.836  -6.380   1.355  0.00  0.00    +0.029 C 
BRANCH  20  21
ATOM     21  C   UNL     1      -2.110  -7.218   1.484  0.00  0.00    +0.002 C 
BRANCH  21  23
ATOM     22  C   UNL     1      -4.031  -8.215   0.235  0.00  0.00    +0.004 C 
ATOM     23  C   UNL     1      -2.757  -7.378   0.106  0.00  0.00    -0.003 C 
ENDBRANCH  21  23
ENDBRANCH  20  21
ENDBRANCH  17  20
ENDBRANCH  16  17
ENDBRANCH  14  16
BRANCH  14  24
ATOM     24  C   UNL     1       2.984  -4.524   3.788  0.00  0.00    -0.079 C 
BRANCH  24  25
ATOM     25  C   UNL     1       2.600  -3.108   3.354  0.00  0.00    -0.022 C 
ATOM     26  C   UNL     1       3.865  -2.262   3.192  0.00  0.00    +0.002 C 
ENDBRANCH  24  25
ENDBRANCH  14  24
ENDBRANCH  13  14
ENDBRANCH   1  13
BRANCH   5  27
ATOM     27  O   UNL     1       0.576  -6.757   7.054  0.00  0.00    -0.434 OA
BRANCH  27  28
ATOM     28  C   UNL     1       0.109  -8.023   7.225  0.00  0.00    +0.172 A 
ATOM     29  C   UNL     1       0.996  -9.070   7.422  0.00  0.00    +0.050 A 
ATOM     30  C   UNL     1       0.519 -10.356   7.596  0.00  0.00    +0.004 A 
ATOM     31  C   UNL     1      -0.842 -10.601   7.573  0.00  0.00    +0.004 A 
ATOM     32  C   UNL     1      -1.732  -9.561   7.377  0.00  0.00    +0.049 A 
ATOM     33  C   UNL     1      -1.261  -8.269   7.208  0.00  0.00    +0.162 A 
BRANCH  33  34
ATOM     34  O   UNL     1      -2.135  -7.244   7.020  0.00  0.00    -0.491 OA
ATOM     35  C   UNL     1      -3.526  -7.571   7.014  0.00  0.00    +0.277 C 
ENDBRANCH  33  34
ENDBRANCH  27  28
ENDBRANCH   5  27
TORSDOF 14
