REMARK  Name = ZINC05224182
REMARK  6 active torsions:
REMARK  status: ('A' for Active; 'I' for Inactive)
REMARK    1  A    between atoms: C_1  and  C_2
REMARK    2  A    between atoms: C_5  and  C_8
REMARK    3  A    between atoms: C_11  and  S_18
REMARK    4  A    between atoms: N_12  and  N_13
REMARK    5  A    between atoms: S_18  and  C_19
REMARK    6  A    between atoms: C_19  and  C_20
REMARK                            x       y       z     vdW  Elec       q    Type
REMARK                         _______ _______ _______ _____ _____    ______ ____
ROOT
ATOM      1  C   UNL     1      -2.500   0.984  -0.123  0.00  0.00    +0.184 A 
ATOM      2  N   UNL     1      -2.643  -0.299   0.113  0.00  0.00    -0.127 NA
ATOM      3  N   UNL     1      -3.890  -0.589   0.222  0.00  0.00    -0.120 NA
ATOM      4  C   UNL     1      -4.621   0.492   0.061  0.00  0.00    +0.212 A 
ATOM      5  N   UNL     1      -3.762   1.531  -0.159  0.00  0.00    -0.203 N 
ENDROOT
BRANCH   1  10
ATOM      6  C   UNL     1       2.466   3.801  -0.841  0.00  0.00    +0.044 C 
ATOM      7  C   UNL     1       1.166   3.062  -0.655  0.00  0.00    -0.050 A 
ATOM      8  C   UNL     1      -0.021   3.643  -1.067  0.00  0.00    +0.004 A 
ATOM      9  C   UNL     1      -1.214   2.971  -0.901  0.00  0.00    +0.012 A 
ATOM     10  C   UNL     1      -1.224   1.707  -0.310  0.00  0.00    +0.021 A 
ATOM     11  C   UNL     1      -0.023   1.125   0.099  0.00  0.00    +0.012 A 
ATOM     12  C   UNL     1       1.164   1.807  -0.073  0.00  0.00    +0.004 A 
ENDBRANCH   1  10
BRANCH   5  13
ATOM     13  N   UNL     1      -4.097   2.874  -0.377  0.00  0.00    -0.259 N 
ATOM     14  C   UNL     1      -3.834   3.907   0.473  0.00  0.00    +0.111 A 
ATOM     15  C   UNL     1      -4.303   5.042  -0.085  0.00  0.00    +0.021 A 
ATOM     16  C   UNL     1      -4.886   4.695  -1.319  0.00  0.00    +0.021 A 
ATOM     17  C   UNL     1      -4.745   3.363  -1.472  0.00  0.00    +0.111 A 
ENDBRANCH   5  13
BRANCH   4  18
ATOM     18  S   UNL     1      -6.379   0.585   0.125  0.00  0.00    -0.075 S 
BRANCH  18  19
ATOM     19  C   UNL     1      -6.773  -1.151   0.455  0.00  0.00    +0.173 C 
BRANCH  19  20
ATOM     20  C   UNL     1      -8.268  -1.317   0.553  0.00  0.00    +0.229 C 
ATOM     21  O   UNL     1      -8.995  -0.356   0.414  0.00  0.00    -0.275 OA
ATOM     22  N   UNL     1      -8.797  -2.533   0.795  0.00  0.00    -0.264 N 
ATOM     23  C   UNL     1     -10.175  -2.686   0.886  0.00  0.00    +0.164 A 
ATOM     24  N   UNL     1     -11.120  -1.772   0.771  0.00  0.00    -0.233 NA
ATOM     25  C   UNL     1     -12.395  -2.090   0.880  0.00  0.00    +0.120 A 
ATOM     26  C   UNL     1     -12.719  -3.383   1.127  0.00  0.00    +0.068 A 
ATOM     27  S   UNL     1     -11.096  -4.127   1.186  0.00  0.00    -0.061 S 
ATOM     28  H   UNL     1      -8.215  -3.301   0.906  0.00  0.00    +0.157 HD
ENDBRANCH  19  20
ENDBRANCH  18  19
ENDBRANCH   4  18
TORSDOF 5
