REMARK  Name = ZINC40140307
REMARK  7 active torsions:
REMARK  status: ('A' for Active; 'I' for Inactive)
REMARK    1  A    between atoms: C_1  and  C_2
REMARK    2  A    between atoms: C_5  and  O_9
REMARK    3  A    between atoms: O_9  and  C_10
REMARK    4  A    between atoms: C_10  and  C_12
REMARK    5  A    between atoms: C_10  and  C_13
REMARK    6  A    between atoms: N_15  and  N_16
REMARK    7  A    between atoms: C_17  and  C_19
REMARK                            x       y       z     vdW  Elec       q    Type
REMARK                         _______ _______ _______ _____ _____    ______ ____
ROOT
ATOM      1  C   UNL     1      -0.840  -6.049  -1.146  0.00  0.00    +0.270 C 
ATOM      2  O   UNL     1      -1.266  -6.376  -0.059  0.00  0.00    -0.270 OA
ATOM      3  N   UNL     1      -1.071  -6.827  -2.222  0.00  0.00    -0.231 N 
ATOM      4  H   UNL     1      -0.731  -6.565  -3.092  0.00  0.00    +0.173 HD
ENDROOT
BRANCH   3   5
ATOM      5  N   UNL     1      -1.803  -8.013  -2.084  0.00  0.00    -0.230 N 
ATOM      6  C   UNL     1      -2.034  -8.791  -3.160  0.00  0.00    +0.260 C 
ATOM      7  O   UNL     1      -1.608  -8.463  -4.251  0.00  0.00    -0.269 OA
ATOM      8  H   UNL     1      -2.144  -8.275  -1.215  0.00  0.00    +0.173 HD
BRANCH   6   9
ATOM      9  C   UNL     1      -2.806 -10.041  -3.015  0.00  0.00    +0.042 A 
ATOM     10  C   UNL     1      -3.302 -10.417  -1.765  0.00  0.00    +0.017 A 
ATOM     11  C   UNL     1      -4.022 -11.584  -1.631  0.00  0.00    +0.050 A 
ATOM     12  C   UNL     1      -4.256 -12.391  -2.736  0.00  0.00    +0.166 A 
ATOM     13  C   UNL     1      -3.764 -12.021  -3.989  0.00  0.00    +0.167 A 
ATOM     14  C   UNL     1      -3.047 -10.849  -4.130  0.00  0.00    +0.062 A 
ATOM     15  O   UNL     1      -4.126 -12.973  -4.898  0.00  0.00    -0.453 OA
ATOM     16  C   UNL     1      -4.491 -14.128  -4.119  0.00  0.00    +0.466 C 
ATOM     17  O   UNL     1      -4.926 -13.571  -2.864  0.00  0.00    -0.453 OA
ENDBRANCH   6   9
ENDBRANCH   3   5
BRANCH   1  18
ATOM     18  C   UNL     1      -0.052  -4.772  -1.294  0.00  0.00    +0.257 C 
ATOM     19  C   UNL     1       1.346  -5.095  -1.824  0.00  0.00    +0.062 C 
BRANCH  18  20
ATOM     20  O   UNL     1       0.057  -4.130  -0.022  0.00  0.00    -0.479 OA
BRANCH  20  25
ATOM     21  C   UNL     1       0.865   1.445  -0.036  0.00  0.00    +0.044 C 
ATOM     22  C   UNL     1       0.649  -0.046  -0.032  0.00  0.00    -0.049 A 
ATOM     23  C   UNL     1       0.648  -0.747  -1.224  0.00  0.00    +0.007 A 
ATOM     24  C   UNL     1       0.450  -2.114  -1.224  0.00  0.00    +0.047 A 
ATOM     25  C   UNL     1       0.252  -2.785  -0.025  0.00  0.00    +0.136 A 
ATOM     26  C   UNL     1       0.254  -2.080   1.170  0.00  0.00    +0.060 A 
ATOM     27  C   UNL     1       0.458  -0.713   1.164  0.00  0.00    +0.022 A 
ATOM     28 BR   UNL     1      -0.015  -2.990   2.806  0.00  0.00    -0.047 Br
ENDBRANCH  20  25
ENDBRANCH  18  20
ENDBRANCH   1  18
TORSDOF 5
