REMARK  Name = ZINC14458903
REMARK  6 active torsions:
REMARK  status: ('A' for Active; 'I' for Inactive)
REMARK    1  A    between atoms: C_1  and  C_2
REMARK    2  A    between atoms: C_2  and  C_4
REMARK    3  A    between atoms: C_17  and  C_20
REMARK    4  A    between atoms: C_23  and  O_28
REMARK    5  A    between atoms: C_24  and  O_26
REMARK    6  A    between atoms: O_26  and  C_27
REMARK                            x       y       z     vdW  Elec       q    Type
REMARK                         _______ _______ _______ _____ _____    ______ ____
ROOT
ATOM      1  C   UNL     1       7.371   4.512  -0.883  0.00  0.00    +0.017 A 
ATOM      2  C   UNL     1       6.856   3.816  -1.985  0.00  0.00    +0.013 A 
ATOM      3  C   UNL     1       5.553   3.412  -1.977  0.00  0.00    +0.024 A 
ATOM      4  C   UNL     1       4.738   3.689  -0.880  0.00  0.00    +0.031 A 
ATOM      5  C   UNL     1       5.238   4.378   0.220  0.00  0.00    -0.019 A 
ATOM      6  C   UNL     1       6.549   4.785   0.214  0.00  0.00    +0.017 A 
ATOM      7  C   UNL     1       4.398   4.690   1.418  0.00  0.00    +0.049 C 
ATOM      8  C   UNL     1       4.003   6.147   1.448  0.00  0.00    -0.023 C 
ATOM      9  C   UNL     1       2.786   6.277   1.919  0.00  0.00    -0.030 C 
ATOM     10  C   UNL     1       2.205   4.922   2.273  0.00  0.00    +0.033 C 
ATOM     11  C   UNL     1       3.055   3.933   1.423  0.00  0.00    +0.029 C 
ATOM     12  C   UNL     1       2.462   3.918   0.011  0.00  0.00    +0.105 C 
ATOM     13  N   UNL     1       3.412   3.269  -0.897  0.00  0.00    -0.336 N 
ATOM     14  H   UNL     1       3.123   2.563  -1.496  0.00  0.00    +0.147 HD
ENDROOT
BRANCH  12  15
ATOM     15  C   UNL     1       1.165   3.150   0.018  0.00  0.00    -0.023 A 
ATOM     16  C   UNL     1       1.182   1.768  -0.000  0.00  0.00    +0.009 A 
ATOM     17  C   UNL     1      -0.005   1.059   0.006  0.00  0.00    +0.049 A 
ATOM     18  C   UNL     1      -1.215   1.734   0.024  0.00  0.00    +0.158 A 
ATOM     19  C   UNL     1      -1.232   3.125   0.048  0.00  0.00    +0.162 A 
ATOM     20  C   UNL     1      -0.039   3.829   0.042  0.00  0.00    +0.054 A 
BRANCH  19  21
ATOM     21  O   UNL     1      -2.417   3.792   0.070  0.00  0.00    -0.491 OA
ATOM     22  C   UNL     1      -2.358   5.219   0.087  0.00  0.00    +0.277 C 
ENDBRANCH  19  21
BRANCH  18  23
ATOM     23  O   UNL     1      -2.384   1.038   0.024  0.00  0.00    -0.503 OA
ATOM     24  H   UNL     1      -2.715   0.825   0.907  0.00  0.00    +0.292 HD
ENDBRANCH  18  23
ENDBRANCH  12  15
BRANCH   1  26
ATOM     25  C   UNL     1       9.689   4.551  -2.006  0.00  0.00    +0.091 C 
ATOM     26  C   UNL     1       8.771   4.952  -0.881  0.00  0.00    +0.160 C 
ATOM     27  O   UNL     1       9.189   5.639   0.027  0.00  0.00    -0.292 OA
ENDBRANCH   1  26
TORSDOF 4
