REMARK  Name = ZINC39440765
REMARK  10 active torsions:
REMARK  status: ('A' for Active; 'I' for Inactive)
REMARK    1  A    between atoms: C_1  and  C_2
REMARK    2  A    between atoms: C_5  and  C_8
REMARK    3  A    between atoms: C_8  and  S_9
REMARK    4  A    between atoms: S_9  and  C_10
REMARK    5  A    between atoms: C_10  and  C_11
REMARK    6  A    between atoms: C_11  and  N_12
REMARK    7  A    between atoms: C_13  and  C_15
REMARK    8  A    between atoms: C_20  and  N_21
REMARK    9  A    between atoms: N_21  and  S_22
REMARK   10  A    between atoms: S_22  and  C_25
REMARK                            x       y       z     vdW  Elec       q    Type
REMARK                         _______ _______ _______ _____ _____    ______ ____
ROOT
ATOM      1  C   UNL     1       3.927 -10.799  -0.346  0.00  0.00    +0.059 A 
ATOM      2  C   UNL     1       2.632 -11.298  -0.516  0.00  0.00    +0.015 A 
ATOM      3  C   UNL     1       2.424 -12.658  -0.589  0.00  0.00    +0.001 A 
ATOM      4  C   UNL     1       3.491 -13.536  -0.494  0.00  0.00    +0.002 A 
ATOM      5  C   UNL     1       4.775 -13.060  -0.326  0.00  0.00    +0.025 A 
ATOM      6  C   UNL     1       5.006 -11.691  -0.257  0.00  0.00    +0.060 A 
ENDROOT
BRANCH   1   8
ATOM      7  N   UNL     1       3.117  -8.492  -0.354  0.00  0.00    -0.311 N 
ATOM      8  C   UNL     1       4.157  -9.345  -0.268  0.00  0.00    +0.246 C 
ATOM      9  O   UNL     1       5.286  -8.915  -0.125  0.00  0.00    -0.270 OA
ATOM     10  H   UNL     1       2.217  -8.835  -0.468  0.00  0.00    +0.149 HD
BRANCH   7  11
ATOM     11  C   UNL     1       3.346  -7.048  -0.276  0.00  0.00    +0.115 C 
BRANCH  11  12
ATOM     12  C   UNL     1       2.010  -6.312  -0.400  0.00  0.00    +0.088 C 
BRANCH  12  13
ATOM     13  S   UNL     1       2.294  -4.523  -0.302  0.00  0.00    -0.155 S 
BRANCH  13  14
ATOM     14  C   UNL     1       0.635  -3.806  -0.464  0.00  0.00    +0.104 C 
BRANCH  14  19
ATOM     15  C   UNL     1       0.991   1.956  -0.214  0.00  0.00    +0.044 C 
ATOM     16  C   UNL     1       0.898   0.453  -0.279  0.00  0.00    -0.050 A 
ATOM     17  C   UNL     1       0.991  -0.193  -1.498  0.00  0.00    +0.003 A 
ATOM     18  C   UNL     1       0.906  -1.571  -1.557  0.00  0.00    +0.005 A 
ATOM     19  C   UNL     1       0.729  -2.304  -0.398  0.00  0.00    -0.038 A 
ATOM     20  C   UNL     1       0.637  -1.658   0.820  0.00  0.00    +0.005 A 
ATOM     21  C   UNL     1       0.727  -0.280   0.880  0.00  0.00    +0.003 A 
ENDBRANCH  14  19
ENDBRANCH  13  14
ENDBRANCH  12  13
ENDBRANCH  11  12
ENDBRANCH   7  11
ENDBRANCH   1   8
BRANCH   6  22
ATOM     22  N   UNL     1       6.298 -11.209  -0.094  0.00  0.00    -0.216 N 
ATOM     23  H   UNL     1       6.456 -10.417   0.443  0.00  0.00    +0.174 HD
BRANCH  22  24
ATOM     24  S   UNL     1       7.570 -11.987  -0.815  0.00  0.00    +0.072 S 
ATOM     25  O   UNL     1       8.722 -11.191  -0.575  0.00  0.00    -0.150 OA
ATOM     26  O   UNL     1       7.490 -13.350  -0.419  0.00  0.00    -0.150 OA
BRANCH  24  27
ATOM     27  C   UNL     1       7.285 -11.950  -2.554  0.00  0.00    +0.110 A 
ATOM     28  C   UNL     1       6.535 -13.037  -3.170  0.00  0.00    +0.031 A 
ATOM     29  C   UNL     1       6.281 -13.070  -4.497  0.00  0.00    +0.027 A 
ATOM     30  C   UNL     1       6.768 -11.988  -5.350  0.00  0.00    +0.056 A 
ATOM     31  N   UNL     1       6.700 -11.720  -6.630  0.00  0.00    -0.268 N 
ATOM     32  C   UNL     1       7.358 -10.535  -6.861  0.00  0.00    +0.308 C 
ATOM     33  O   UNL     1       7.479 -10.004  -7.944  0.00  0.00    -0.252 OA
ATOM     34  N   UNL     1       7.858 -10.042  -5.678  0.00  0.00    -0.267 N 
ATOM     35  C   UNL     1       7.538 -10.871  -4.717  0.00  0.00    +0.058 A 
ATOM     36  C   UNL     1       7.764 -10.912  -3.273  0.00  0.00    +0.054 A 
ATOM     37  H   UNL     1       8.361  -9.220  -5.574  0.00  0.00    +0.156 HD
ATOM     38  H   UNL     1       6.260 -12.265  -7.301  0.00  0.00    +0.156 HD
ENDBRANCH  24  27
ENDBRANCH  22  24
ENDBRANCH   6  22
TORSDOF 9
