REMARK  Name = ZINC36504540
REMARK  8 active torsions:
REMARK  status: ('A' for Active; 'I' for Inactive)
REMARK    1  A    between atoms: C_3  and  C_6
REMARK    2  A    between atoms: C_6  and  N_7
REMARK    3  A    between atoms: N_7  and  C_8
REMARK    4  A    between atoms: C_8  and  C_10
REMARK    5  A    between atoms: C_8  and  C_20
REMARK    6  A    between atoms: C_13  and  C_16
REMARK    7  A    between atoms: N_22  and  C_23
REMARK    8  A    between atoms: C_29  and  C_31
REMARK                            x       y       z     vdW  Elec       q    Type
REMARK                         _______ _______ _______ _____ _____    ______ ____
ROOT
ATOM      1  C   UNL     1       4.494  -0.557   1.943  0.00  0.00    +0.193 C 
ENDROOT
BRANCH   1   2
ATOM      2  C   UNL     1       5.644  -1.166   1.182  0.00  0.00    -0.018 A 
ATOM      3  C   UNL     1       5.627  -1.182  -0.200  0.00  0.00    +0.006 A 
ATOM      4  C   UNL     1       6.681  -1.741  -0.898  0.00  0.00    +0.013 A 
ATOM      5  C   UNL     1       7.753  -2.283  -0.213  0.00  0.00    +0.055 A 
ATOM      6  C   UNL     1       7.770  -2.267   1.169  0.00  0.00    +0.013 A 
ATOM      7  C   UNL     1       6.718  -1.704   1.867  0.00  0.00    +0.006 A 
BRANCH   5   8
ATOM      8  C   UNL     1       8.902  -2.893  -0.974  0.00  0.00    +0.417 C 
ATOM      9  F   UNL     1       9.864  -1.911  -1.232  0.00  0.00    -0.166 F 
ATOM     10  F   UNL     1       9.473  -3.918  -0.212  0.00  0.00    -0.166 F 
ATOM     11  F   UNL     1       8.434  -3.417  -2.184  0.00  0.00    -0.166 F 
ENDBRANCH   5   8
ENDBRANCH   1   2
BRANCH   1  12
ATOM     12  C   UNL     1       3.307  -1.484   1.887  0.00  0.00    +0.238 C 
ATOM     13  O   UNL     1       2.302  -1.146   1.299  0.00  0.00    -0.273 OA
ATOM     14  N   UNL     1       3.364  -2.688   2.489  0.00  0.00    -0.311 N 
ATOM     15  H   UNL     1       4.168  -2.958   2.959  0.00  0.00    +0.149 HD
BRANCH  14  16
ATOM     16  C   UNL     1       2.210  -3.589   2.435  0.00  0.00    +0.073 C 
ATOM     17  C   UNL     1       1.233  -3.235   3.558  0.00  0.00    +0.022 C 
ATOM     18  C   UNL     1       0.028  -4.176   3.501  0.00  0.00    +0.002 C 
ATOM     19  C   UNL     1       0.501  -5.621   3.672  0.00  0.00    +0.000 C 
ATOM     20  C   UNL     1       1.477  -5.975   2.548  0.00  0.00    +0.002 C 
ATOM     21  C   UNL     1       2.682  -5.034   2.605  0.00  0.00    +0.022 C 
ENDBRANCH  14  16
ENDBRANCH   1  12
BRANCH   1  22
ATOM     22  N   UNL     1       4.138   0.730   1.341  0.00  0.00    -0.277 N 
ATOM     23  C   UNL     1       4.889   1.821   1.589  0.00  0.00    +0.237 C 
ATOM     24  O   UNL     1       5.861   1.738   2.310  0.00  0.00    -0.274 OA
BRANCH  23  25
ATOM     25  C   UNL     1       4.523   3.145   0.969  0.00  0.00    +0.159 C 
ATOM     26  C   UNL     1       5.037   3.216  -0.486  0.00  0.00    +0.041 C 
ATOM     27  C   UNL     1       6.408   3.906  -0.303  0.00  0.00    +0.098 C 
ATOM     28  C   UNL     1       6.263   4.684   0.987  0.00  0.00    +0.214 C 
ATOM     29  O   UNL     1       7.000   5.577   1.346  0.00  0.00    -0.276 OA
ATOM     30  N   UNL     1       5.195   4.241   1.677  0.00  0.00    -0.304 N 
ATOM     31  H   UNL     1       4.907   4.599   2.532  0.00  0.00    +0.149 HD
ENDBRANCH  23  25
BRANCH  22  32
ATOM     32  C   UNL     1       2.965   0.832   0.469  0.00  0.00    +0.183 C 
BRANCH  32  35
ATOM     33  C   UNL     1       0.257   2.370   2.441  0.00  0.00    +0.041 A 
ATOM     34  C   UNL     1       1.464   2.463   1.710  0.00  0.00    +0.046 A 
ATOM     35  C   UNL     1       1.762   1.220   1.290  0.00  0.00    +0.122 A 
ATOM     36  O   UNL     1       0.805   0.384   1.726  0.00  0.00    -0.466 OA
ATOM     37  C   UNL     1      -0.110   1.076   2.424  0.00  0.00    +0.195 A 
ENDBRANCH  32  35
ENDBRANCH  22  32
ENDBRANCH   1  22
TORSDOF 8
