REMARK  Name = ZINC17444728
REMARK  10 active torsions:
REMARK  status: ('A' for Active; 'I' for Inactive)
REMARK    1  A    between atoms: C_1  and  C_2
REMARK    2  A    between atoms: C_4  and  C_15
REMARK    3  A    between atoms: C_5  and  C_14
REMARK    4  A    between atoms: N_6  and  C_7
REMARK    5  A    between atoms: N_17  and  N_18
REMARK    6  A    between atoms: C_19  and  C_21
REMARK    7  A    between atoms: C_21  and  C_23
REMARK    8  A    between atoms: C_21  and  S_24
REMARK    9  A    between atoms: S_24  and  C_25
REMARK   10  A    between atoms: C_28  and  N_31
REMARK                            x       y       z     vdW  Elec       q    Type
REMARK                         _______ _______ _______ _____ _____    ______ ____
ROOT
ATOM      1  C   UNL     1      -5.498   0.627  -0.194  0.00  0.00    +0.262 C 
ATOM      2  O   UNL     1      -5.409   1.647  -0.851  0.00  0.00    -0.269 OA
ATOM      3  N   UNL     1      -4.447   0.203   0.537  0.00  0.00    -0.230 N 
ATOM      4  H   UNL     1      -4.518  -0.610   1.060  0.00  0.00    +0.173 HD
ENDROOT
BRANCH   1   8
ATOM      5  C   UNL     1      -9.013  -2.945   0.762  0.00  0.00    +0.064 C 
ATOM      6  C   UNL     1      -8.290  -1.731   0.239  0.00  0.00    +0.022 A 
ATOM      7  C   UNL     1      -7.025  -1.386   0.536  0.00  0.00    +0.036 A 
ATOM      8  C   UNL     1      -6.752  -0.144  -0.196  0.00  0.00    +0.059 A 
ATOM      9  C   UNL     1      -7.900   0.157  -0.876  0.00  0.00    +0.033 A 
ATOM     10  N   UNL     1      -8.813  -0.800  -0.614  0.00  0.00    -0.317 N 
ATOM     11  C   UNL     1      -8.108   1.353  -1.769  0.00  0.00    +0.064 C 
BRANCH  10  12
ATOM     12  C   UNL     1     -10.114  -0.834  -1.138  0.00  0.00    +0.047 A 
ATOM     13  C   UNL     1     -10.309  -0.994  -2.503  0.00  0.00    +0.029 A 
ATOM     14  C   UNL     1     -11.591  -1.032  -3.016  0.00  0.00    +0.040 A 
ATOM     15  C   UNL     1     -12.680  -0.899  -2.171  0.00  0.00    +0.124 A 
ATOM     16  C   UNL     1     -12.487  -0.733  -0.810  0.00  0.00    +0.040 A 
ATOM     17  C   UNL     1     -11.207  -0.700  -0.292  0.00  0.00    +0.029 A 
ATOM     18  F   UNL     1     -13.933  -0.931  -2.675  0.00  0.00    -0.205 F 
ENDBRANCH  10  12
ENDBRANCH   1   8
BRANCH   3  19
ATOM     19  N   UNL     1      -3.254   0.936   0.539  0.00  0.00    -0.233 N 
ATOM     20  C   UNL     1      -2.203   0.512   1.269  0.00  0.00    +0.242 C 
ATOM     21  O   UNL     1      -2.291  -0.505   1.924  0.00  0.00    -0.273 OA
ATOM     22  H   UNL     1      -3.183   1.750   0.015  0.00  0.00    +0.173 HD
BRANCH  20  23
ATOM     23  C   UNL     1      -0.919   1.301   1.271  0.00  0.00    +0.135 C 
ATOM     24  C   UNL     1      -0.121   0.980   0.006  0.00  0.00    +0.029 C 
BRANCH  23  25
ATOM     25  S   UNL     1       0.060   0.859   2.733  0.00  0.00    -0.113 S 
BRANCH  25  26
ATOM     26  C   UNL     1      -0.867   1.514   4.081  0.00  0.00    +0.009 A 
ATOM     27  C   UNL     1      -1.988   2.298   3.839  0.00  0.00    +0.017 A 
ATOM     28  C   UNL     1      -2.715   2.805   4.898  0.00  0.00    +0.034 A 
ATOM     29  C   UNL     1      -2.321   2.543   6.198  0.00  0.00    +0.126 A 
ATOM     30  C   UNL     1      -1.202   1.769   6.442  0.00  0.00    +0.034 A 
ATOM     31  C   UNL     1      -0.474   1.253   5.388  0.00  0.00    +0.017 A 
BRANCH  29  32
ATOM     32  N   UNL     1      -3.100   3.094   7.330  0.00  0.00    +0.056 N 
ATOM     33  O   UNL     1      -2.754   2.864   8.475  0.00  0.00    -0.126 OA
ATOM     34  O   UNL     1      -4.086   3.776   7.117  0.00  0.00    -0.126 OA
ENDBRANCH  29  32
ENDBRANCH  25  26
ENDBRANCH  23  25
ENDBRANCH  20  23
ENDBRANCH   3  19
TORSDOF 7
