REMARK  Name = ZINC36538240
REMARK  12 active torsions:
REMARK  status: ('A' for Active; 'I' for Inactive)
REMARK    1  A    between atoms: C_1  and  C_2
REMARK    2  A    between atoms: C_5  and  S_8
REMARK    3  A    between atoms: S_8  and  C_11
REMARK    4  A    between atoms: C_11  and  N_12
REMARK    5  A    between atoms: C_13  and  C_15
REMARK    6  A    between atoms: C_15  and  C_17
REMARK    7  A    between atoms: C_15  and  N_27
REMARK    8  A    between atoms: C_19  and  N_24
REMARK    9  A    between atoms: N_27  and  C_28
REMARK   10  A    between atoms: C_29  and  C_31
REMARK   11  A    between atoms: C_31  and  O_32
REMARK   12  A    between atoms: O_32  and  C_33
REMARK                            x       y       z     vdW  Elec       q    Type
REMARK                         _______ _______ _______ _____ _____    ______ ____
ROOT
ATOM      1  C   UNL     1       3.305  -4.965   3.484  0.00  0.00    +0.193 C 
ENDROOT
BRANCH   1   2
ATOM      2  C   UNL     1       2.577  -3.814   4.130  0.00  0.00    +0.002 A 
ATOM      3  C   UNL     1       1.313  -4.003   4.655  0.00  0.00    +0.040 A 
ATOM      4  C   UNL     1       0.645  -2.947   5.247  0.00  0.00    +0.127 A 
ATOM      5  C   UNL     1       1.242  -1.702   5.314  0.00  0.00    +0.034 A 
ATOM      6  C   UNL     1       2.506  -1.512   4.790  0.00  0.00    +0.022 A 
ATOM      7  C   UNL     1       3.177  -2.570   4.202  0.00  0.00    +0.047 A 
ATOM      8 CL   UNL     1       4.769  -2.334   3.550  0.00  0.00    -0.083 Cl
BRANCH   4   9
ATOM      9  N   UNL     1      -0.709  -3.150   5.809  0.00  0.00    +0.056 N 
ATOM     10  O   UNL     1      -1.231  -4.239   5.750  0.00  0.00    -0.126 OA
ATOM     11  O   UNL     1      -1.293  -2.227   6.326  0.00  0.00    -0.126 OA
ENDBRANCH   4   9
ENDBRANCH   1   2
BRANCH   1  13
ATOM     12  N   UNL     1       1.663  -5.842   1.855  0.00  0.00    -0.294 N 
ATOM     13  C   UNL     1       2.307  -5.998   3.029  0.00  0.00    +0.239 C 
ATOM     14  O   UNL     1       2.083  -6.971   3.719  0.00  0.00    -0.273 OA
ATOM     15  H   UNL     1       1.795  -5.035   1.333  0.00  0.00    +0.150 HD
BRANCH  12  16
ATOM     16  C   UNL     1       0.763  -6.890   1.368  0.00  0.00    +0.278 C 
BRANCH  16  17
ATOM     17  S   UNL     1      -0.939  -6.502   1.858  0.00  0.00    +0.013 S 
ATOM     18  O   UNL     1      -0.983  -6.139   3.231  0.00  0.00    -0.168 OA
ATOM     19  O   UNL     1      -1.833  -7.477   1.338  0.00  0.00    -0.168 OA
BRANCH  17  24
ATOM     20  C   UNL     1      -2.296  -1.432  -1.119  0.00  0.00    +0.044 C 
ATOM     21  C   UNL     1      -1.957  -2.698  -0.375  0.00  0.00    -0.050 A 
ATOM     22  C   UNL     1      -2.213  -3.928  -0.952  0.00  0.00    +0.005 A 
ATOM     23  C   UNL     1      -1.902  -5.090  -0.270  0.00  0.00    +0.027 A 
ATOM     24  C   UNL     1      -1.335  -5.021   0.988  0.00  0.00    +0.090 A 
ATOM     25  C   UNL     1      -1.078  -3.792   1.565  0.00  0.00    +0.027 A 
ATOM     26  C   UNL     1      -1.385  -2.630   0.881  0.00  0.00    +0.005 A 
ENDBRANCH  17  24
ENDBRANCH  16  17
ENDBRANCH  12  16
ENDBRANCH   1  13
BRANCH   1  27
ATOM     27  N   UNL     1       4.223  -5.568   4.454  0.00  0.00    -0.287 N 
ATOM     28  C   UNL     1       3.716  -6.051   5.740  0.00  0.00    +0.133 C 
ATOM     29  C   UNL     1       5.535  -5.677   4.162  0.00  0.00    +0.242 C 
ATOM     30  O   UNL     1       5.954  -5.277   3.097  0.00  0.00    -0.273 OA
BRANCH  29  31
ATOM     31  C   UNL     1       6.479  -6.297   5.159  0.00  0.00    +0.255 C 
BRANCH  31  32
ATOM     32  O   UNL     1       7.804  -6.299   4.623  0.00  0.00    -0.374 OA
ATOM     33  C   UNL     1       8.783  -6.869   5.494  0.00  0.00    +0.194 C 
ENDBRANCH  31  32
ENDBRANCH  29  31
ENDBRANCH   1  27
TORSDOF 9
