REMARK  Name = ZINC38684805
REMARK  15 active torsions:
REMARK  status: ('A' for Active; 'I' for Inactive)
REMARK    1  A    between atoms: C_1  and  C_2
REMARK    2  A    between atoms: C_2  and  C_3
REMARK    3  A    between atoms: C_3  and  C_4
REMARK    4  A    between atoms: C_4  and  C_5
REMARK    5  A    between atoms: C_5  and  O_6
REMARK    6  A    between atoms: O_6  and  C_7
REMARK    7  A    between atoms: C_11  and  C_13
REMARK    8  A    between atoms: C_18  and  O_27
REMARK    9  A    between atoms: C_22  and  N_26
REMARK   10  A    between atoms: C_23  and  C_24
REMARK   11  A    between atoms: O_27  and  C_28
REMARK   12  A    between atoms: C_28  and  C_30
REMARK   13  A    between atoms: C_31  and  C_32
REMARK   14  A    between atoms: C_35  and  O_38
REMARK   15  A    between atoms: O_38  and  C_39
REMARK                            x       y       z     vdW  Elec       q    Type
REMARK                         _______ _______ _______ _____ _____    ______ ____
ROOT
ATOM      1  C   UNL     1       2.903  -8.119   4.611  0.00  0.00    +0.098 C 
ATOM      2  C   UNL     1       4.346  -8.549   4.629  0.00  0.00    +0.008 A 
ATOM      3  C   UNL     1       5.051  -8.617   3.440  0.00  0.00    +0.012 A 
ATOM      4  C   UNL     1       6.375  -9.009   3.438  0.00  0.00    +0.047 A 
ATOM      5  C   UNL     1       7.004  -9.337   4.631  0.00  0.00    +0.135 A 
ATOM      6  C   UNL     1       6.301  -9.270   5.823  0.00  0.00    +0.093 A 
ATOM      7  C   UNL     1       4.969  -8.874   5.824  0.00  0.00    +0.138 A 
ATOM      8  O   UNL     1       4.295  -8.814   6.999  0.00  0.00    -0.441 OA
ATOM      9  C   UNL     1       2.952  -8.820   7.001  0.00  0.00    +0.199 C 
ATOM     10  C   UNL     1       2.235  -8.499   5.902  0.00  0.00    +0.098 C 
ENDROOT
BRANCH   1  15
ATOM     11  C   UNL     1       2.113  -4.716   3.170  0.00  0.00    +0.121 A 
ATOM     12  C   UNL     1       2.699  -3.878   4.108  0.00  0.00    +0.045 A 
ATOM     13  C   UNL     1       3.348  -4.415   5.203  0.00  0.00    +0.004 A 
ATOM     14  C   UNL     1       3.413  -5.787   5.365  0.00  0.00    +0.005 A 
ATOM     15  C   UNL     1       2.830  -6.624   4.431  0.00  0.00    -0.031 A 
ATOM     16  C   UNL     1       2.175  -6.092   3.338  0.00  0.00    +0.050 A 
BRANCH  11  17
ATOM     17  O   UNL     1       1.474  -4.190   2.092  0.00  0.00    -0.492 OA
BRANCH  17  18
ATOM     18  C   UNL     1       1.449  -2.765   1.984  0.00  0.00    +0.229 C 
BRANCH  18  19
ATOM     19  C   UNL     1       0.692  -2.363   0.717  0.00  0.00    +0.041 C 
BRANCH  19  20
ATOM     20  C   UNL     1       0.665  -0.837   0.602  0.00  0.00    +0.003 C 
BRANCH  20  22
ATOM     21  C   UNL     1      -0.118   1.091  -0.781  0.00  0.00    +0.004 C 
ATOM     22  C   UNL     1      -0.092  -0.435  -0.665  0.00  0.00    -0.003 C 
ENDBRANCH  20  22
ENDBRANCH  19  20
ENDBRANCH  18  19
ENDBRANCH  17  18
ENDBRANCH  11  17
ENDBRANCH   1  15
BRANCH   9  23
ATOM     23  N   UNL     1       2.289  -9.160   8.154  0.00  0.00    -0.328 N 
ATOM     24  H   UNL     1       2.791  -9.392   8.951  0.00  0.00    +0.145 HD
ATOM     25  H   UNL     1       1.319  -9.168   8.172  0.00  0.00    +0.145 HD
ENDBRANCH   9  23
BRANCH  10  26
ATOM     26  C   UNL     1       0.805  -8.523   5.971  0.00  0.00    +0.101 C 
ATOM     27  N   UNL     1      -0.330  -8.541   6.026  0.00  0.00    -0.191 NA
ENDBRANCH  10  26
BRANCH   5  28
ATOM     28  O   UNL     1       8.306  -9.724   4.630  0.00  0.00    -0.423 OA
BRANCH  28  29
ATOM     29  C   UNL     1       9.242  -8.797   4.338  0.00  0.00    +0.337 C 
ATOM     30  O   UNL     1       8.920  -7.634   4.188  0.00  0.00    -0.245 OA
BRANCH  29  31
ATOM     31  C   UNL     1      10.601  -9.179   4.205  0.00  0.00    +0.092 C 
ATOM     32  C   UNL     1      11.538  -8.251   3.912  0.00  0.00    +0.015 C 
BRANCH  32  33
ATOM     33  C   UNL     1      12.947  -8.647   3.774  0.00  0.00    -0.025 A 
ATOM     34  C   UNL     1      13.319  -9.987   3.940  0.00  0.00    +0.011 A 
ATOM     35  C   UNL     1      14.640 -10.352   3.809  0.00  0.00    +0.046 A 
ATOM     36  C   UNL     1      15.603  -9.395   3.513  0.00  0.00    +0.120 A 
ATOM     37  C   UNL     1      15.238  -8.063   3.347  0.00  0.00    +0.046 A 
ATOM     38  C   UNL     1      13.920  -7.688   3.470  0.00  0.00    +0.011 A 
BRANCH  36  39
ATOM     39  O   UNL     1      16.904  -9.761   3.385  0.00  0.00    -0.495 OA
ATOM     40  C   UNL     1      17.842  -8.727   3.080  0.00  0.00    +0.277 C 
ENDBRANCH  36  39
ENDBRANCH  32  33
ENDBRANCH  29  31
ENDBRANCH  28  29
ENDBRANCH   5  28
TORSDOF 13
