REMARK  Name = ZINC15065991
REMARK  11 active torsions:
REMARK  status: ('A' for Active; 'I' for Inactive)
REMARK    1  A    between atoms: C_1  and  C_2
REMARK    2  A    between atoms: C_2  and  C_3
REMARK    3  A    between atoms: C_2  and  C_4
REMARK    4  A    between atoms: C_4  and  N_5
REMARK    5  A    between atoms: C_6  and  C_20
REMARK    6  A    between atoms: C_9  and  S_10
REMARK    7  A    between atoms: S_10  and  C_13
REMARK    8  A    between atoms: C_13  and  C_14
REMARK    9  A    between atoms: C_20  and  N_62
REMARK   10  A    between atoms: C_21  and  N_62
REMARK   11  A    between atoms: C_22  and  N_62
REMARK                            x       y       z     vdW  Elec       q    Type
REMARK                         _______ _______ _______ _____ _____    ______ ____
ROOT
ATOM      1  N   UNL     1       0.606   3.122  -0.220  0.00  0.00    -0.315 N 
ATOM      2  C   UNL     1       0.926   1.875   0.247  0.00  0.00    +0.023 A 
ATOM      3  C   UNL     1      -0.231   1.278   0.590  0.00  0.00    +0.133 A 
ATOM      4  N   UNL     1      -1.231   2.135   0.335  0.00  0.00    -0.220 NA
ATOM      5  C   UNL     1      -0.737   3.243  -0.146  0.00  0.00    +0.251 A 
ENDROOT
BRANCH   5   6
ATOM      6  S   UNL     1      -1.669   4.659  -0.625  0.00  0.00    +0.033 S 
ATOM      7  O   UNL     1      -2.852   4.597   0.159  0.00  0.00    -0.166 OA
ATOM      8  O   UNL     1      -0.767   5.749  -0.490  0.00  0.00    -0.166 OA
BRANCH   6   9
ATOM      9  C   UNL     1      -2.063   4.388  -2.375  0.00  0.00    +0.207 C 
BRANCH   9  10
ATOM     10  C   UNL     1      -2.880   5.569  -2.903  0.00  0.00    +0.140 C 
ATOM     11  C   UNL     1      -3.220   5.348  -4.389  0.00  0.00    +0.035 C 
ATOM     12  C   UNL     1      -4.767   5.380  -4.433  0.00  0.00    +0.031 C 
ATOM     13  C   UNL     1      -5.113   6.138  -3.126  0.00  0.00    +0.160 C 
ATOM     14  O   UNL     1      -4.124   5.662  -2.189  0.00  0.00    -0.375 OA
ENDBRANCH   9  10
ENDBRANCH   6   9
ENDBRANCH   5   6
BRANCH   1  15
ATOM     15  C   UNL     1       1.544   4.135  -0.709  0.00  0.00    +0.127 C 
BRANCH  15  17
ATOM     16  C   UNL     1       2.518   5.187  -2.755  0.00  0.00    +0.009 C 
ATOM     17  C   UNL     1       1.638   4.049  -2.234  0.00  0.00    +0.003 C 
ATOM     18  C   UNL     1       2.253   2.706  -2.632  0.00  0.00    +0.009 C 
ENDBRANCH  15  17
ENDBRANCH   1  15
BRANCH   2  19
ATOM     19  C   UNL     1       2.308   1.285   0.356  0.00  0.00    -0.023 C 
BRANCH  19  21
ATOM     20  C   UNL     1       2.367   0.992   2.759  0.00  0.00    -0.095 C 
ATOM     21  N   UNL     1       2.924   1.749   1.617  0.00  0.00    +0.383 N 
ATOM     22  H   UNL     1       2.714   2.746   1.744  0.00  0.00    -0.081 HD
BRANCH  21  23
ATOM     23  C   UNL     1       4.390   1.570   1.560  0.00  0.00    -0.068 C 
ATOM     24  C   UNL     1       4.745   0.086   1.447  0.00  0.00    -0.015 C 
ATOM     25  C   UNL     1       6.266  -0.071   1.391  0.00  0.00    -0.002 C 
ATOM     26  C   UNL     1       6.886   0.506   2.665  0.00  0.00    -0.000 C 
ATOM     27  C   UNL     1       6.530   1.990   2.778  0.00  0.00    -0.002 C 
ATOM     28  C   UNL     1       5.009   2.147   2.834  0.00  0.00    -0.015 C 
ENDBRANCH  21  23
ENDBRANCH  19  21
ENDBRANCH   2  19
TORSDOF 8
