REMARK  Name = ZINC65219188
REMARK  4 active torsions:
REMARK  status: ('A' for Active; 'I' for Inactive)
REMARK    1  A    between atoms: C_6  and  C_7
REMARK    2  A    between atoms: C_9  and  C_12
REMARK    3  A    between atoms: C_13  and  N_17
REMARK    4  A    between atoms: C_18  and  C_20
REMARK                            x       y       z     vdW  Elec       q    Type
REMARK                         _______ _______ _______ _____ _____    ______ ____
ROOT
ATOM      1  C   UNL     1      -3.172  -3.818  -0.040  0.00  0.00    +0.098 A 
ATOM      2  C   UNL     1      -4.492  -4.255   0.021  0.00  0.00    +0.053 A 
ATOM      3  C   UNL     1      -4.661  -5.626   0.077  0.00  0.00    +0.031 A 
ATOM      4  C   UNL     1      -3.569  -6.424   0.068  0.00  0.00    +0.048 A 
ATOM      5  S   UNL     1      -2.274  -5.358  -0.023  0.00  0.00    -0.090 S 
ENDROOT
BRANCH   1   8
ATOM      6  C   UNL     1      -1.277  -0.769  -0.218  0.00  0.00    +0.202 A 
ATOM      7  N   UNL     1      -1.384  -2.105  -0.168  0.00  0.00    -0.187 NA
ATOM      8  C   UNL     1      -2.655  -2.450  -0.106  0.00  0.00    +0.267 A 
ATOM      9  O   UNL     1      -3.396  -1.325  -0.116  0.00  0.00    -0.332 OA
ATOM     10  N   UNL     1      -2.478  -0.244  -0.183  0.00  0.00    -0.056 NA
BRANCH   6  16
ATOM     11  C   UNL     1      -0.024   1.384  -0.335  0.00  0.00    +0.013 A 
ATOM     12  C   UNL     1       1.161   2.087  -0.406  0.00  0.00    +0.021 A 
ATOM     13  C   UNL     1       2.369   1.411  -0.435  0.00  0.00    +0.041 A 
ATOM     14  C   UNL     1       2.393   0.027  -0.395  0.00  0.00    +0.021 A 
ATOM     15  C   UNL     1       1.213  -0.685  -0.324  0.00  0.00    +0.013 A 
ATOM     16  C   UNL     1      -0.004  -0.009  -0.294  0.00  0.00    +0.023 A 
ATOM     17 CL   UNL     1       3.857   2.300  -0.523  0.00  0.00    -0.084 Cl
ENDBRANCH   6  16
ENDBRANCH   1   8
BRANCH   2  18
ATOM     18  N   UNL     1      -5.572  -3.369   0.027  0.00  0.00    -0.282 N 
ATOM     19  C   UNL     1      -6.831  -3.840  -0.071  0.00  0.00    +0.246 C 
ATOM     20  O   UNL     1      -7.033  -5.036  -0.070  0.00  0.00    -0.273 OA
ATOM     21  H   UNL     1      -5.416  -2.414   0.102  0.00  0.00    +0.155 HD
BRANCH  19  22
ATOM     22  C   UNL     1      -7.988  -2.881  -0.181  0.00  0.00    +0.204 C 
ATOM     23  C   UNL     1      -8.113  -2.058   1.119  0.00  0.00    +0.043 C 
ATOM     24  C   UNL     1      -9.652  -1.977   1.312  0.00  0.00    +0.031 C 
ATOM     25  C   UNL     1     -10.091  -3.354   0.755  0.00  0.00    +0.161 C 
ATOM     26  O   UNL     1      -9.209  -3.610  -0.352  0.00  0.00    -0.367 OA
ENDBRANCH  19  22
ENDBRANCH   2  18
TORSDOF 4
