REMARK  Name = ZINC12859605
REMARK  10 active torsions:
REMARK  status: ('A' for Active; 'I' for Inactive)
REMARK    1  A    between atoms: C_1  and  C_2
REMARK    2  A    between atoms: C_2  and  C_3
REMARK    3  A    between atoms: C_3  and  C_26
REMARK    4  A    between atoms: N_6  and  N_10
REMARK    5  A    between atoms: N_13  and  C_14
REMARK    6  A    between atoms: C_14  and  C_15
REMARK    7  A    between atoms: C_14  and  C_16
REMARK    8  A    between atoms: C_14  and  C_17
REMARK    9  A    between atoms: C_21  and  C_23
REMARK   10  A    between atoms: C_23  and  C_25
REMARK                            x       y       z     vdW  Elec       q    Type
REMARK                         _______ _______ _______ _____ _____    ______ ____
ROOT
ATOM      1  N   UNL     1      -3.248  -0.446   2.940  0.00  0.00    -0.207 N 
ATOM      2  C   UNL     1      -3.978   0.025   3.971  0.00  0.00    +0.317 C 
ATOM      3  O   UNL     1      -4.975  -0.569   4.331  0.00  0.00    -0.251 OA
ATOM      4  N   UNL     1      -3.601   1.155   4.602  0.00  0.00    -0.289 N 
ATOM      5  H   UNL     1      -3.519  -1.259   2.486  0.00  0.00    +0.175 HD
ATOM      6  H   UNL     1      -2.805   1.629   4.314  0.00  0.00    +0.151 HD
ENDROOT
BRANCH   1  10
ATOM      7  C   UNL     1      -0.611   1.530   1.368  0.00  0.00    +0.111 C 
ATOM      8  C   UNL     1      -2.027   0.992   1.409  0.00  0.00    +0.263 C 
ATOM      9  O   UNL     1      -2.912   1.197   0.607  0.00  0.00    -0.271 OA
ATOM     10  N   UNL     1      -2.099   0.238   2.525  0.00  0.00    -0.136 N 
ATOM     11  C   UNL     1      -0.936   0.226   3.187  0.00  0.00    +0.326 C 
ATOM     12  O   UNL     1      -0.755  -0.384   4.222  0.00  0.00    -0.251 OA
ATOM     13  N   UNL     1       0.010   0.964   2.578  0.00  0.00    -0.284 N 
ATOM     14  C   UNL     1       0.114   1.040   0.112  0.00  0.00    +0.041 C 
ATOM     15  H   UNL     1       0.923   1.098   2.878  0.00  0.00    +0.151 HD
BRANCH   7  17
ATOM     16  C   UNL     1       0.832   3.568   1.439  0.00  0.00    +0.006 C 
ATOM     17  C   UNL     1      -0.610   3.058   1.427  0.00  0.00    +0.032 C 
ENDBRANCH   7  17
ENDBRANCH   1  10
BRANCH   4  18
ATOM     18  C   UNL     1      -4.394   1.667   5.722  0.00  0.00    +0.056 C 
ATOM     19  C   UNL     1      -5.809   1.992   5.239  0.00  0.00    +0.036 C 
ATOM     20  C   UNL     1      -4.462   0.609   6.825  0.00  0.00    +0.036 C 
BRANCH  18  21
ATOM     21  C   UNL     1      -3.749   2.916   6.265  0.00  0.00    -0.024 A 
ATOM     22  C   UNL     1      -4.514   3.851   6.940  0.00  0.00    +0.006 A 
ATOM     23  C   UNL     1      -3.929   5.000   7.441  0.00  0.00    +0.001 A 
ATOM     24  C   UNL     1      -2.578   5.221   7.270  0.00  0.00    +0.008 A 
ATOM     25  C   UNL     1      -1.801   4.282   6.590  0.00  0.00    -0.022 A 
ATOM     26  C   UNL     1      -2.396   3.123   6.091  0.00  0.00    +0.014 A 
BRANCH  25  27
ATOM     27  C   UNL     1      -0.353   4.513   6.404  0.00  0.00    -0.050 C 
ATOM     28  C   UNL     1       0.527   3.705   6.979  0.00  0.00    +0.012 C 
ATOM     29  C   UNL     1       0.124   5.666   5.559  0.00  0.00    +0.044 C 
ENDBRANCH  25  27
ENDBRANCH  18  21
ENDBRANCH   4  18
TORSDOF 5
