REMARK  Name = ZINC66131107
REMARK  5 active torsions:
REMARK  status: ('A' for Active; 'I' for Inactive)
REMARK    1  A    between atoms: C_1  and  C_2
REMARK    2  A    between atoms: C_2  and  C_3
REMARK    3  A    between atoms: C_3  and  C_14
REMARK    4  A    between atoms: C_17  and  O_20
REMARK    5  A    between atoms: O_20  and  C_21
REMARK                            x       y       z     vdW  Elec       q    Type
REMARK                         _______ _______ _______ _____ _____    ______ ____
ROOT
ATOM      1  C   UNL     1      -1.433  -0.534   0.013  0.00  0.00    +0.125 C 
ATOM      2  N   UNL     1      -2.134  -0.062  -1.188  0.00  0.00    -0.319 N 
ATOM      3  C   UNL     1      -3.522  -0.148  -1.223  0.00  0.00    +0.041 A 
ATOM      4  C   UNL     1      -4.215  -0.319  -2.409  0.00  0.00    +0.024 A 
ATOM      5  C   UNL     1      -5.594  -0.402  -2.388  0.00  0.00    +0.002 A 
ATOM      6  C   UNL     1      -6.287  -0.316  -1.191  0.00  0.00    +0.001 A 
ATOM      7  C   UNL     1      -5.612  -0.144  -0.001  0.00  0.00    +0.015 A 
ATOM      8  C   UNL     1      -4.222  -0.058  -0.007  0.00  0.00    +0.058 A 
ATOM      9  C   UNL     1      -3.450   0.134   1.234  0.00  0.00    +0.248 C 
ATOM     10  O   UNL     1      -4.011   0.463   2.262  0.00  0.00    -0.270 OA
ATOM     11  N   UNL     1      -2.115  -0.060   1.217  0.00  0.00    -0.287 N 
ATOM     12  H   UNL     1      -1.641   0.302  -1.939  0.00  0.00    +0.148 HD
ATOM     13  H   UNL     1      -1.598   0.117   2.018  0.00  0.00    +0.151 HD
ENDROOT
BRANCH   1  14
ATOM     14  C   UNL     1      -1.409  -2.041   0.013  0.00  0.00    -0.006 A 
ATOM     15  C   UNL     1      -1.401  -2.731  -1.185  0.00  0.00    +0.011 A 
ATOM     16  C   UNL     1      -1.380  -4.112  -1.188  0.00  0.00    +0.046 A 
ATOM     17  C   UNL     1      -1.365  -4.806   0.013  0.00  0.00    +0.120 A 
ATOM     18  C   UNL     1      -1.373  -4.112   1.214  0.00  0.00    +0.046 A 
ATOM     19  C   UNL     1      -1.389  -2.730   1.211  0.00  0.00    +0.011 A 
BRANCH  17  20
ATOM     20  O   UNL     1      -1.344  -6.165   0.013  0.00  0.00    -0.495 OA
ATOM     21  C   UNL     1      -1.330  -6.814   1.286  0.00  0.00    +0.277 C 
ENDBRANCH  17  20
ENDBRANCH   1  14
BRANCH   1  23
ATOM     22  C   UNL     1      -0.019   1.526   0.010  0.00  0.00    +0.008 C 
ATOM     23  C   UNL     1       0.002  -0.004   0.002  0.00  0.00    +0.047 C 
ENDBRANCH   1  23
TORSDOF 3
