REMARK  Name = ZINC41005697
REMARK  5 active torsions:
REMARK  status: ('A' for Active; 'I' for Inactive)
REMARK    1  A    between atoms: C_1  and  C_2
REMARK    2  A    between atoms: C_2  and  C_28
REMARK    3  A    between atoms: C_3  and  C_24
REMARK    4  A    between atoms: C_5  and  C_7
REMARK    5  A    between atoms: C_13  and  C_18
REMARK                            x       y       z     vdW  Elec       q    Type
REMARK                         _______ _______ _______ _____ _____    ______ ____
ROOT
ATOM      1  C   UNL     1       1.317   0.160   2.235  0.00  0.00    +0.223 C 
ATOM      2  O   UNL     1       1.247   1.367   2.150  0.00  0.00    -0.275 OA
ATOM      3  N   UNL     1       1.946  -0.407   3.284  0.00  0.00    -0.263 N 
ATOM      4  C   UNL     1       2.513   0.392   4.268  0.00  0.00    +0.188 A 
ATOM      5  N   UNL     1       3.160   0.033   5.345  0.00  0.00    -0.140 NA
ATOM      6  N   UNL     1       3.666   0.977   6.229  0.00  0.00    -0.184 N 
ATOM      7  C   UNL     1       4.372   1.039   7.421  0.00  0.00    +0.186 A 
ATOM      8  N   UNL     1       4.528   2.307   7.729  0.00  0.00    -0.126 NA
ATOM      9  N   UNL     1       3.978   3.046   6.830  0.00  0.00    -0.120 NA
ATOM     10  C   UNL     1       3.449   2.294   5.911  0.00  0.00    +0.220 A 
ATOM     11  S   UNL     1       2.552   2.174   4.383  0.00  0.00    -0.011 S 
ATOM     12  H   UNL     1       2.002  -1.373   3.351  0.00  0.00    +0.157 HD
ENDROOT
BRANCH   7  13
ATOM     13  C   UNL     1       4.862  -0.114   8.204  0.00  0.00    +0.021 A 
ATOM     14  C   UNL     1       4.376  -1.397   7.942  0.00  0.00    +0.011 A 
ATOM     15  C   UNL     1       4.838  -2.469   8.676  0.00  0.00    +0.001 A 
ATOM     16  C   UNL     1       5.780  -2.276   9.671  0.00  0.00    +0.000 A 
ATOM     17  C   UNL     1       6.265  -1.008   9.937  0.00  0.00    +0.001 A 
ATOM     18  C   UNL     1       5.816   0.072   9.206  0.00  0.00    +0.011 A 
ENDBRANCH   7  13
BRANCH   1  22
ATOM     19  C   UNL     1      -0.019   1.526   0.010  0.00  0.00    +0.012 C 
ATOM     20  C   UNL     1       0.002  -0.004   0.002  0.00  0.00    -0.016 C 
ATOM     21  C   UNL     1       1.351  -0.691  -0.218  0.00  0.00    +0.033 C 
ATOM     22  C   UNL     1       0.701  -0.708   1.167  0.00  0.00    +0.089 C 
ATOM     23  C   UNL     1      -1.239  -0.678  -0.588  0.00  0.00    +0.012 C 
BRANCH  21  24
ATOM     24  C   UNL     1       1.357  -1.979  -1.000  0.00  0.00    +0.010 C 
ATOM     25  C   UNL     1       2.046  -2.068  -2.115  0.00  0.00    +0.103 C 
ATOM     26 CL   UNL     1       2.950  -0.701  -2.687  0.00  0.00    -0.071 Cl
ATOM     27 CL   UNL     1       2.052  -3.552  -3.015  0.00  0.00    -0.071 Cl
ENDBRANCH  21  24
ENDBRANCH   1  22
TORSDOF 3
