REMARK  Name = ZINC13498576
REMARK  11 active torsions:
REMARK  status: ('A' for Active; 'I' for Inactive)
REMARK    1  A    between atoms: C_1  and  C_2
REMARK    2  A    between atoms: C_7  and  C_14
REMARK    3  A    between atoms: C_14  and  N_69
REMARK    4  A    between atoms: C_15  and  N_69
REMARK    5  A    between atoms: C_20  and  C_22
REMARK    6  A    between atoms: C_20  and  C_35
REMARK    7  A    between atoms: C_20  and  N_69
REMARK    8  A    between atoms: N_26  and  C_27
REMARK    9  A    between atoms: C_27  and  C_28
REMARK   10  A    between atoms: C_35  and  C_36
REMARK   11  A    between atoms: C_35  and  C_37
REMARK                            x       y       z     vdW  Elec       q    Type
REMARK                         _______ _______ _______ _____ _____    ______ ____
ROOT
ATOM      1  N   UNL     1      -2.873   0.120  -2.050  0.00  0.00    +0.391 N 
ATOM      2  H   UNL     1      -2.721   0.946  -2.641  0.00  0.00    -0.080 HD
ENDROOT
BRANCH   1   3
ATOM      3  C   UNL     1      -2.188  -1.039  -2.660  0.00  0.00    -0.067 C 
ATOM      4  C   UNL     1      -2.488  -2.335  -1.878  0.00  0.00    -0.015 C 
ATOM      5  C   UNL     1      -1.154  -3.123  -1.925  0.00  0.00    -0.002 C 
ATOM      6  C   UNL     1      -0.091  -2.006  -1.780  0.00  0.00    -0.002 C 
ATOM      7  C   UNL     1      -0.664  -0.830  -2.598  0.00  0.00    -0.015 C 
ENDBRANCH   1   3
BRANCH   1   8
ATOM      8  C   UNL     1      -2.320   0.384  -0.705  0.00  0.00    -0.036 C 
BRANCH   8  15
ATOM      9  C   UNL     1      -3.296  -5.811   4.223  0.00  0.00    +0.044 C 
ATOM     10  C   UNL     1      -2.888  -4.708   3.280  0.00  0.00    -0.048 A 
ATOM     11  C   UNL     1      -1.575  -4.635   2.836  0.00  0.00    +0.004 A 
ATOM     12  C   UNL     1      -1.185  -3.643   1.981  0.00  0.00    +0.010 A 
ATOM     13  C   UNL     1      -2.117  -2.694   1.549  0.00  0.00    -0.001 A 
ATOM     14  C   UNL     1      -1.733  -1.618   0.633  0.00  0.00    +0.017 A 
ATOM     15  C   UNL     1      -2.680  -0.731   0.242  0.00  0.00    +0.001 A 
ATOM     16  C   UNL     1      -4.002  -0.843   0.726  0.00  0.00    +0.251 A 
ATOM     17  O   UNL     1      -4.837  -0.031   0.367  0.00  0.00    -0.268 OA
ATOM     18  N   UNL     1      -4.364  -1.827   1.568  0.00  0.00    -0.322 N 
ATOM     19  H   UNL     1      -5.281  -1.877   1.878  0.00  0.00    +0.169 HD
ATOM     20  C   UNL     1      -3.449  -2.765   1.997  0.00  0.00    +0.049 A 
ATOM     21  C   UNL     1      -3.823  -3.783   2.868  0.00  0.00    +0.029 A 
ENDBRANCH   8  15
ENDBRANCH   1   8
BRANCH   1  22
ATOM     22  C   UNL     1      -4.324  -0.143  -1.957  0.00  0.00    +0.006 C 
BRANCH  22  23
ATOM     23  C   UNL     1      -4.824  -0.635  -3.291  0.00  0.00    +0.139 A 
ATOM     24  N   UNL     1      -4.681  -0.037  -4.449  0.00  0.00    -0.115 NA
ATOM     25  N   UNL     1      -5.241  -0.772  -5.347  0.00  0.00    -0.023 NA
ATOM     26  N   UNL     1      -5.744  -1.818  -4.792  0.00  0.00    -0.044 NA
ATOM     27  N   UNL     1      -5.508  -1.770  -3.524  0.00  0.00    -0.226 N 
BRANCH  27  28
ATOM     28  C   UNL     1      -5.909  -2.765  -2.526  0.00  0.00    +0.182 C 
BRANCH  28  29
ATOM     29  C   UNL     1      -7.370  -2.590  -2.202  0.00  0.00    -0.026 A 
ATOM     30  C   UNL     1      -7.751  -1.811  -1.125  0.00  0.00    +0.008 A 
ATOM     31  C   UNL     1      -9.091  -1.646  -0.830  0.00  0.00    +0.038 A 
ATOM     32  C   UNL     1     -10.052  -2.270  -1.607  0.00  0.00    +0.123 A 
ATOM     33  C   UNL     1      -9.670  -3.054  -2.682  0.00  0.00    +0.038 A 
ATOM     34  C   UNL     1      -8.329  -3.213  -2.979  0.00  0.00    +0.008 A 
ATOM     35  F   UNL     1     -11.362  -2.113  -1.317  0.00  0.00    -0.205 F 
ENDBRANCH  28  29
ENDBRANCH  27  28
ENDBRANCH  22  23
BRANCH  22  36
ATOM     36  C   UNL     1      -5.039   1.161  -1.594  0.00  0.00    -0.024 C 
ATOM     37  C   UNL     1      -4.862   2.172  -2.728  0.00  0.00    +0.006 C 
ATOM     38  C   UNL     1      -6.529   0.884  -1.385  0.00  0.00    +0.006 C 
ENDBRANCH  22  36
ENDBRANCH   1  22
TORSDOF 8
