REMARK  Name = ZINC13073923
REMARK  11 active torsions:
REMARK  status: ('A' for Active; 'I' for Inactive)
REMARK    1  A    between atoms: C_1  and  O_2
REMARK    2  A    between atoms: O_2  and  C_3
REMARK    3  A    between atoms: C_6  and  C_12
REMARK    4  A    between atoms: C_7  and  N_9
REMARK    5  A    between atoms: C_15  and  C_17
REMARK    6  A    between atoms: N_21  and  C_25
REMARK    7  A    between atoms: C_25  and  C_27
REMARK    8  A    between atoms: C_25  and  C_31
REMARK    9  A    between atoms: C_27  and  C_28
REMARK   10  A    between atoms: C_28  and  S_29
REMARK   11  A    between atoms: S_29  and  C_30
REMARK                            x       y       z     vdW  Elec       q    Type
REMARK                         _______ _______ _______ _____ _____    ______ ____
ROOT
ATOM      1  C   UNL     1       5.921   8.270   2.270  0.00  0.00    +0.138 A 
ATOM      2  C   UNL     1       6.164   8.937   1.049  0.00  0.00    +0.050 A 
ATOM      3  C   UNL     1       5.018   8.887   0.320  0.00  0.00    +0.050 A 
ATOM      4  C   UNL     1       4.041   8.160   1.135  0.00  0.00    +0.130 A 
ATOM      5  O   UNL     1       4.652   7.827   2.293  0.00  0.00    -0.455 OA
ENDROOT
BRANCH   4   6
ATOM      6  C   UNL     1       2.729   7.873   0.785  0.00  0.00    +0.066 C 
ATOM      7  C   UNL     1       1.906   7.165   1.673  0.00  0.00    +0.080 C 
ATOM      8  C   UNL     1       0.484   6.744   1.509  0.00  0.00    +0.259 C 
ATOM      9  O   UNL     1      -0.150   6.998   0.505  0.00  0.00    -0.269 OA
ATOM     10  N   UNL     1      -0.048   6.081   2.524  0.00  0.00    -0.241 N 
ATOM     11  C   UNL     1       0.688   5.813   3.621  0.00  0.00    +0.121 C 
ATOM     12  S   UNL     1       0.213   4.973   5.035  0.00  0.00    -0.027 S 
ATOM     13  S   UNL     1       2.274   6.540   3.250  0.00  0.00    -0.061 S 
BRANCH  10  14
ATOM     14  C   UNL     1      -1.441   5.632   2.453  0.00  0.00    +0.196 C 
BRANCH  14  15
ATOM     15  C   UNL     1      -2.227   6.250   3.580  0.00  0.00    +0.376 C 
ATOM     16  O   UNL     1      -1.679   6.990   4.363  0.00  0.00    -0.244 OA
ATOM     17  O   UNL     1      -3.534   5.979   3.715  0.00  0.00    -0.244 OA
ENDBRANCH  14  15
BRANCH  14  18
ATOM     18  C   UNL     1      -1.492   4.108   2.571  0.00  0.00    +0.045 C 
BRANCH  18  19
ATOM     19  C   UNL     1      -0.801   3.478   1.360  0.00  0.00    +0.071 C 
BRANCH  19  20
ATOM     20  S   UNL     1      -0.862   1.671   1.500  0.00  0.00    -0.164 S 
ATOM     21  C   UNL     1      -0.013   1.086   0.008  0.00  0.00    +0.084 C 
ENDBRANCH  19  20
ENDBRANCH  18  19
ENDBRANCH  14  18
ENDBRANCH  10  14
ENDBRANCH   4   6
BRANCH   1  25
ATOM     22  C   UNL     1       8.709   7.772   5.345  0.00  0.00    +0.122 A 
ATOM     23  C   UNL     1       9.054   7.439   4.034  0.00  0.00    +0.046 A 
ATOM     24  C   UNL     1       8.150   7.599   3.027  0.00  0.00    +0.017 A 
ATOM     25  C   UNL     1       6.864   8.101   3.311  0.00  0.00    +0.048 A 
ATOM     26  C   UNL     1       6.525   8.440   4.636  0.00  0.00    +0.140 A 
ATOM     27  C   UNL     1       7.437   8.270   5.634  0.00  0.00    +0.079 A 
BRANCH  26  28
ATOM     28  N   UNL     1       5.179   8.973   4.944  0.00  0.00    +0.057 N 
ATOM     29  O   UNL     1       4.864   9.289   6.184  0.00  0.00    -0.126 OA
ATOM     30  O   UNL     1       4.297   9.133   3.979  0.00  0.00    -0.126 OA
ENDBRANCH  26  28
BRANCH  22  32
ATOM     31  C   UNL     1      10.894   7.096   5.977  0.00  0.00    +0.277 C 
ATOM     32  O   UNL     1       9.612   7.610   6.341  0.00  0.00    -0.495 OA
ENDBRANCH  22  32
ENDBRANCH   1  25
TORSDOF 9
