REMARK  Name = ZINC66323935
REMARK  14 active torsions:
REMARK  status: ('A' for Active; 'I' for Inactive)
REMARK    1  A    between atoms: C_1  and  C_2
REMARK    2  A    between atoms: C_2  and  C_3
REMARK    3  A    between atoms: C_7  and  O_30
REMARK    4  A    between atoms: C_8  and  O_27
REMARK    5  A    between atoms: C_11  and  C_16
REMARK    6  A    between atoms: C_13  and  C_15
REMARK    7  A    between atoms: C_19  and  O_24
REMARK    8  A    between atoms: C_20  and  O_22
REMARK    9  A    between atoms: O_22  and  C_23
REMARK   10  A    between atoms: O_24  and  C_25
REMARK   11  A    between atoms: C_25  and  C_26
REMARK   12  A    between atoms: O_27  and  C_28
REMARK   13  A    between atoms: C_28  and  C_29
REMARK   14  A    between atoms: O_30  and  C_31
REMARK                            x       y       z     vdW  Elec       q    Type
REMARK                         _______ _______ _______ _____ _____    ______ ____
ROOT
ATOM      1  C   UNL     1       0.536  -0.189  -1.560  0.00  0.00    +0.023 C 
ATOM      2  C   UNL     1       0.084   0.074  -2.981  0.00  0.00    -0.037 A 
ATOM      3  C   UNL     1      -0.428   1.224  -3.559  0.00  0.00    +0.053 A 
ATOM      4  C   UNL     1      -0.779   1.234  -4.898  0.00  0.00    +0.162 A 
ATOM      5  C   UNL     1      -0.616   0.083  -5.664  0.00  0.00    +0.162 A 
ATOM      6  C   UNL     1      -0.104  -1.063  -5.082  0.00  0.00    +0.054 A 
ATOM      7  C   UNL     1       0.246  -1.069  -3.741  0.00  0.00    -0.033 A 
ATOM      8  C   UNL     1       0.818  -2.178  -2.883  0.00  0.00    +0.053 C 
ATOM      9  C   UNL     1       0.580  -1.726  -1.425  0.00  0.00    +0.005 C 
ATOM     10  C   UNL     1      -0.752  -2.264  -0.900  0.00  0.00    +0.009 C 
ENDROOT
BRANCH   8  11
ATOM     11  C   UNL     1       0.098  -3.473  -3.156  0.00  0.00    -0.036 A 
ATOM     12  C   UNL     1      -1.268  -3.473  -3.363  0.00  0.00    +0.008 A 
ATOM     13  C   UNL     1      -1.933  -4.659  -3.614  0.00  0.00    +0.050 A 
ATOM     14  C   UNL     1      -1.229  -5.852  -3.658  0.00  0.00    +0.162 A 
ATOM     15  C   UNL     1       0.147  -5.852  -3.450  0.00  0.00    +0.162 A 
ATOM     16  C   UNL     1       0.808  -4.659  -3.204  0.00  0.00    +0.053 A 
BRANCH  15  17
ATOM     17  O   UNL     1       0.843  -7.020  -3.492  0.00  0.00    -0.491 OA
ATOM     18  C   UNL     1       2.252  -6.944  -3.270  0.00  0.00    +0.277 C 
ENDBRANCH  15  17
BRANCH  14  19
ATOM     19  O   UNL     1      -1.881  -7.020  -3.904  0.00  0.00    -0.489 OA
BRANCH  19  20
ATOM     20  C   UNL     1      -3.293  -6.943  -4.107  0.00  0.00    +0.226 C 
ATOM     21  C   UNL     1      -3.847  -8.346  -4.368  0.00  0.00    +0.048 C 
ENDBRANCH  19  20
ENDBRANCH  14  19
ENDBRANCH   8  11
BRANCH   1  23
ATOM     22  C   UNL     1       0.043   0.186   0.861  0.00  0.00    +0.004 C 
ATOM     23  C   UNL     1      -0.465   0.403  -0.566  0.00  0.00    +0.005 C 
ENDBRANCH   1  23
BRANCH   4  24
ATOM     24  O   UNL     1      -1.281   2.364  -5.463  0.00  0.00    -0.491 OA
ATOM     25  C   UNL     1      -1.420   3.507  -4.617  0.00  0.00    +0.277 C 
ENDBRANCH   4  24
BRANCH   5  26
ATOM     26  O   UNL     1      -0.960   0.085  -6.980  0.00  0.00    -0.489 OA
BRANCH  26  27
ATOM     27  C   UNL     1      -0.765  -1.132  -7.703  0.00  0.00    +0.226 C 
ATOM     28  C   UNL     1      -1.204  -0.938  -9.156  0.00  0.00    +0.048 C 
ENDBRANCH  26  27
ENDBRANCH   5  26
TORSDOF 8
