REMARK  Name = ZINC21254920
REMARK  12 active torsions:
REMARK  status: ('A' for Active; 'I' for Inactive)
REMARK    1  A    between atoms: C_1  and  C_2
REMARK    2  A    between atoms: C_2  and  C_3
REMARK    3  A    between atoms: C_3  and  O_4
REMARK    4  A    between atoms: O_4  and  C_5
REMARK    5  A    between atoms: C_10  and  C_11
REMARK    6  A    between atoms: C_16  and  C_21
REMARK    7  A    between atoms: C_23  and  O_31
REMARK    8  A    between atoms: C_24  and  O_29
REMARK    9  A    between atoms: C_25  and  O_27
REMARK   10  A    between atoms: O_27  and  C_28
REMARK   11  A    between atoms: O_29  and  C_30
REMARK   12  A    between atoms: O_31  and  C_32
REMARK                            x       y       z     vdW  Elec       q    Type
REMARK                         _______ _______ _______ _____ _____    ______ ____
ROOT
ATOM      1  C   UNL     1      -2.157   3.054   2.564  0.00  0.00    +0.139 C 
ATOM      2  C   UNL     1      -1.530   2.812   1.211  0.00  0.00    +0.037 C 
ATOM      3  C   UNL     1      -1.640   3.611   0.137  0.00  0.00    +0.017 C 
ATOM      4  C   UNL     1      -0.954   3.247  -1.169  0.00  0.00    +0.059 C 
ATOM      5  C   UNL     1      -0.898   1.728  -1.322  0.00  0.00    +0.032 C 
ATOM      6  C   UNL     1      -0.112   1.167  -0.131  0.00  0.00    +0.088 C 
ATOM      7  C   UNL     1      -0.777   1.614   1.137  0.00  0.00    +0.163 C 
ATOM      8  O   UNL     1      -0.669   0.922   2.130  0.00  0.00    -0.292 OA
ATOM      9  N   UNL     1      -2.332   4.779   0.109  0.00  0.00    -0.316 N 
ATOM     10  C   UNL     1      -3.618   4.954   0.609  0.00  0.00    +0.052 A 
ATOM     11  C   UNL     1      -4.682   5.319  -0.197  0.00  0.00    +0.025 A 
ATOM     12  C   UNL     1      -5.910   5.589   0.382  0.00  0.00    +0.002 A 
ATOM     13  C   UNL     1      -6.072   5.493   1.752  0.00  0.00    +0.002 A 
ATOM     14  C   UNL     1      -5.014   5.106   2.557  0.00  0.00    +0.025 A 
ATOM     15  C   UNL     1      -3.789   4.818   1.979  0.00  0.00    +0.049 A 
ATOM     16  N   UNL     1      -2.707   4.381   2.742  0.00  0.00    -0.331 N 
ATOM     17  H   UNL     1      -1.877   5.677  -0.334  0.00  0.00    +0.152 HD
ATOM     18  H   UNL     1      -2.272   5.061   3.489  0.00  0.00    +0.147 HD
ENDROOT
BRANCH   1  24
ATOM     19  C   UNL     1      -3.755   1.806   4.039  0.00  0.00    +0.126 A 
ATOM     20  C   UNL     1      -4.774   0.882   4.221  0.00  0.00    +0.046 A 
ATOM     21  C   UNL     1      -5.287   0.199   3.136  0.00  0.00    +0.004 A 
ATOM     22  C   UNL     1      -4.789   0.438   1.868  0.00  0.00    +0.001 A 
ATOM     23  C   UNL     1      -3.777   1.362   1.683  0.00  0.00    +0.009 A 
ATOM     24  C   UNL     1      -3.261   2.048   2.765  0.00  0.00    +0.019 A 
BRANCH  19  25
ATOM     25  O   UNL     1      -3.244   2.475   5.106  0.00  0.00    -0.492 OA
BRANCH  25  26
ATOM     26  C   UNL     1      -3.802   2.175   6.387  0.00  0.00    +0.229 C 
BRANCH  26  28
ATOM     27  C   UNL     1      -3.702   2.699   8.828  0.00  0.00    +0.007 C 
ATOM     28  C   UNL     1      -3.106   3.020   7.456  0.00  0.00    +0.038 C 
ENDBRANCH  26  28
ENDBRANCH  25  26
ENDBRANCH  19  25
ENDBRANCH   1  24
BRANCH   5  29
ATOM     29  C   UNL     1      -0.199   1.370  -2.609  0.00  0.00    -0.036 A 
ATOM     30  C   UNL     1       1.092   1.806  -2.836  0.00  0.00    +0.053 A 
ATOM     31  C   UNL     1       1.740   1.474  -4.016  0.00  0.00    +0.165 A 
ATOM     32  C   UNL     1       1.085   0.711  -4.976  0.00  0.00    +0.204 A 
ATOM     33  C   UNL     1      -0.215   0.279  -4.746  0.00  0.00    +0.165 A 
ATOM     34  C   UNL     1      -0.854   0.610  -3.560  0.00  0.00    +0.053 A 
BRANCH  33  35
ATOM     35  O   UNL     1      -0.860  -0.468  -5.681  0.00  0.00    -0.491 OA
ATOM     36  C   UNL     1      -2.195  -0.877  -5.377  0.00  0.00    +0.277 C 
ENDBRANCH  33  35
BRANCH  32  37
ATOM     37  O   UNL     1       1.716   0.388  -6.138  0.00  0.00    -0.488 OA
ATOM     38  C   UNL     1       1.568   1.296  -7.231  0.00  0.00    +0.277 C 
ENDBRANCH  32  37
BRANCH  31  39
ATOM     39  O   UNL     1       3.013   1.899  -4.237  0.00  0.00    -0.491 OA
ATOM     40  C   UNL     1       3.624   2.679  -3.208  0.00  0.00    +0.277 C 
ENDBRANCH  31  39
ENDBRANCH   5  29
TORSDOF 8
