REMARK  Name = ZINC32833711
REMARK  5 active torsions:
REMARK  status: ('A' for Active; 'I' for Inactive)
REMARK    1  A    between atoms: C_4  and  C_7
REMARK    2  A    between atoms: N_11  and  C_12
REMARK    3  A    between atoms: N_18  and  N_19
REMARK    4  A    between atoms: N_19  and  S_20
REMARK    5  A    between atoms: S_20  and  C_23
REMARK                            x       y       z     vdW  Elec       q    Type
REMARK                         _______ _______ _______ _____ _____    ______ ____
ROOT
ATOM      1  C   UNL     1       1.812  -2.911   0.917  0.00  0.00    +0.170 A 
ATOM      2  N   UNL     1       1.633  -4.143   0.502  0.00  0.00    -0.127 NA
ATOM      3  N   UNL     1       0.968  -4.144  -0.597  0.00  0.00    -0.111 NA
ATOM      4  C   UNL     1       0.676  -2.913  -0.950  0.00  0.00    +0.237 A 
ATOM      5  N   UNL     1       1.200  -2.084   0.002  0.00  0.00    -0.263 N 
ATOM      6  N   UNL     1      -0.031  -2.528  -2.076  0.00  0.00    -0.230 N 
ATOM      7  H   UNL     1      -0.216  -1.461  -2.271  0.00  0.00    +0.171 HD
ENDROOT
BRANCH   1  11
ATOM      8  C   UNL     1       3.881  -1.703   4.425  0.00  0.00    +0.000 A 
ATOM      9  C   UNL     1       3.013  -0.825   3.800  0.00  0.00    +0.001 A 
ATOM     10  C   UNL     1       2.338  -1.211   2.660  0.00  0.00    +0.011 A 
ATOM     11  C   UNL     1       2.533  -2.490   2.138  0.00  0.00    +0.020 A 
ATOM     12  C   UNL     1       3.405  -3.373   2.776  0.00  0.00    +0.011 A 
ATOM     13  C   UNL     1       4.078  -2.973   3.912  0.00  0.00    +0.001 A 
ENDBRANCH   1  11
BRANCH   5  14
ATOM     14  C   UNL     1       1.133  -0.684   0.036  0.00  0.00    +0.051 A 
ATOM     15  C   UNL     1      -0.084  -0.050   0.245  0.00  0.00    +0.026 A 
ATOM     16  C   UNL     1      -0.147   1.329   0.279  0.00  0.00    +0.002 A 
ATOM     17  C   UNL     1       1.002   2.079   0.104  0.00  0.00    +0.000 A 
ATOM     18  C   UNL     1       2.216   1.451  -0.104  0.00  0.00    +0.002 A 
ATOM     19  C   UNL     1       2.284   0.072  -0.139  0.00  0.00    +0.026 A 
ENDBRANCH   5  14
BRANCH   6  20
ATOM     20  N   UNL     1      -0.509  -3.496  -2.969  0.00  0.00    -0.108 NA
ATOM     21  H   UNL     1       0.102  -4.141  -3.358  0.00  0.00    +0.172 HD
BRANCH  20  22
ATOM     22  S   UNL     1      -2.118  -3.539  -3.358  0.00  0.00    +0.074 S 
ATOM     23  O   UNL     1      -2.263  -4.519  -4.377  0.00  0.00    -0.152 OA
ATOM     24  O   UNL     1      -2.832  -3.605  -2.131  0.00  0.00    -0.152 OA
BRANCH  22  25
ATOM     25  C   UNL     1      -2.519  -1.988  -4.092  0.00  0.00    +0.108 A 
ATOM     26  C   UNL     1      -2.400  -1.824  -5.465  0.00  0.00    +0.032 A 
ATOM     27  C   UNL     1      -2.708  -0.618  -6.058  0.00  0.00    +0.049 A 
ATOM     28  C   UNL     1      -3.142   0.445  -5.277  0.00  0.00    +0.139 A 
ATOM     29  C   UNL     1      -3.261   0.276  -3.887  0.00  0.00    +0.019 A 
ATOM     30  C   UNL     1      -2.949  -0.957  -3.305  0.00  0.00    +0.040 A 
ATOM     31  C   UNL     1      -3.719   1.403  -3.070  0.00  0.00    +0.018 A 
ATOM     32  C   UNL     1      -4.011   2.571  -3.696  0.00  0.00    +0.092 A 
ATOM     33  C   UNL     1      -3.869   2.671  -5.097  0.00  0.00    +0.337 A 
ATOM     34  O   UNL     1      -4.135   3.725  -5.646  0.00  0.00    -0.245 OA
ATOM     35  O   UNL     1      -3.449   1.635  -5.838  0.00  0.00    -0.422 OA
ENDBRANCH  22  25
ENDBRANCH  20  22
ENDBRANCH   6  20
TORSDOF 5
