REMARK  Name = ZINC03413634
REMARK  11 active torsions:
REMARK  status: ('A' for Active; 'I' for Inactive)
REMARK    1  A    between atoms: C_1  and  C_2
REMARK    2  A    between atoms: C_5  and  N_8
REMARK    3  A    between atoms: C_9  and  C_11
REMARK    4  A    between atoms: C_11  and  C_13
REMARK    5  A    between atoms: C_11  and  O_14
REMARK    6  A    between atoms: O_14  and  C_15
REMARK    7  A    between atoms: C_15  and  C_17
REMARK    8  A    between atoms: C_17  and  S_18
REMARK    9  A    between atoms: S_18  and  C_19
REMARK   10  A    between atoms: C_19  and  C_20
REMARK   11  A    between atoms: C_26  and  C_31
REMARK                            x       y       z     vdW  Elec       q    Type
REMARK                         _______ _______ _______ _____ _____    ______ ____
ROOT
ATOM      1  S   UNL     1       0.050  -2.652   3.000  0.00  0.00    -0.142 S 
ENDROOT
BRANCH   1   2
ATOM      2  C   UNL     1       0.037  -2.126   1.264  0.00  0.00    +0.190 C 
BRANCH   2   3
ATOM      3  C   UNL     1       0.013  -0.621   1.196  0.00  0.00    +0.318 C 
ATOM      4  O   UNL     1       0.005   0.030   2.213  0.00  0.00    -0.250 OA
BRANCH   3   5
ATOM      5  O   UNL     1      -0.000  -0.004   0.004  0.00  0.00    -0.452 OA
BRANCH   5   6
ATOM      6  C   UNL     1      -0.023   1.448   0.013  0.00  0.00    +0.259 C 
ATOM      7  C   UNL     1       1.411   1.981   0.013  0.00  0.00    +0.062 C 
BRANCH   6   9
ATOM      8  N   UNL     1      -0.890   3.271  -1.416  0.00  0.00    -0.282 N 
ATOM      9  C   UNL     1      -0.745   1.947  -1.212  0.00  0.00    +0.258 C 
ATOM     10  O   UNL     1      -1.195   1.157  -2.014  0.00  0.00    -0.271 OA
ATOM     11  H   UNL     1      -0.589   3.902  -0.742  0.00  0.00    +0.155 HD
BRANCH   8  16
ATOM     12  C   UNL     1      -3.257   5.161  -6.213  0.00  0.00    +0.044 C 
ATOM     13  C   UNL     1      -2.628   4.659  -4.938  0.00  0.00    -0.050 A 
ATOM     14  C   UNL     1      -3.075   3.483  -4.365  0.00  0.00    +0.005 A 
ATOM     15  C   UNL     1      -2.501   3.020  -3.197  0.00  0.00    +0.023 A 
ATOM     16  C   UNL     1      -1.473   3.737  -2.599  0.00  0.00    +0.034 A 
ATOM     17  C   UNL     1      -1.030   4.921  -3.175  0.00  0.00    +0.023 A 
ATOM     18  C   UNL     1      -1.605   5.376  -4.345  0.00  0.00    +0.005 A 
ENDBRANCH   8  16
ENDBRANCH   6   9
ENDBRANCH   5   6
ENDBRANCH   3   5
ENDBRANCH   2   3
ENDBRANCH   1   2
BRANCH   1  19
ATOM     19  C   UNL     1       0.078  -4.464   2.910  0.00  0.00    +0.143 C 
BRANCH  19  20
ATOM     20  C   UNL     1       0.091  -5.036   4.304  0.00  0.00    +0.121 A 
ATOM     21  N   UNL     1       0.107  -6.383   4.472  0.00  0.00    -0.310 N 
ATOM     22  H   UNL     1       0.110  -6.960   3.692  0.00  0.00    +0.170 HD
ATOM     23  C   UNL     1       0.124  -6.935   5.700  0.00  0.00    +0.260 A 
ATOM     24  O   UNL     1       0.144  -8.146   5.834  0.00  0.00    -0.267 OA
ATOM     25  C   UNL     1       0.114  -6.077   6.846  0.00  0.00    +0.080 A 
ATOM     26  C   UNL     1       0.124  -6.428   8.261  0.00  0.00    +0.004 A 
ATOM     27  C   UNL     1       0.110  -5.431   9.179  0.00  0.00    +0.056 A 
ATOM     28  S   UNL     1       0.084  -3.953   8.184  0.00  0.00    -0.076 S 
ATOM     29  C   UNL     1       0.092  -4.699   6.574  0.00  0.00    +0.116 A 
ATOM     30  N   UNL     1       0.081  -4.228   5.330  0.00  0.00    -0.226 NA
BRANCH  26  31
ATOM     31  C   UNL     1       0.147  -7.847   8.687  0.00  0.00    -0.017 A 
ATOM     32  C   UNL     1      -0.768  -8.754   8.153  0.00  0.00    +0.008 A 
ATOM     33  C   UNL     1      -0.737 -10.075   8.549  0.00  0.00    +0.001 A 
ATOM     34  C   UNL     1       0.191 -10.498   9.483  0.00  0.00    +0.000 A 
ATOM     35  C   UNL     1       1.098  -9.603  10.021  0.00  0.00    +0.001 A 
ATOM     36  C   UNL     1       1.081  -8.280   9.628  0.00  0.00    +0.008 A 
ENDBRANCH  26  31
ENDBRANCH  19  20
ENDBRANCH   1  19
TORSDOF 9
