REMARK  Name = ZINC63240664
REMARK  8 active torsions:
REMARK  status: ('A' for Active; 'I' for Inactive)
REMARK    1  A    between atoms: C_1  and  C_2
REMARK    2  A    between atoms: C_7  and  N_8
REMARK    3  A    between atoms: C_9  and  C_27
REMARK    4  A    between atoms: C_12  and  S_13
REMARK    5  A    between atoms: S_13  and  C_14
REMARK    6  A    between atoms: C_14  and  C_15
REMARK    7  A    between atoms: N_17  and  C_18
REMARK    8  A    between atoms: C_21  and  C_24
REMARK                            x       y       z     vdW  Elec       q    Type
REMARK                         _______ _______ _______ _____ _____    ______ ____
ROOT
ATOM      1  N   UNL     1       0.024  -0.003   2.413  0.00  0.00    -0.270 N 
ATOM      2  C   UNL     1      -1.079   0.400   3.149  0.00  0.00    +0.168 A 
ATOM      3  N   UNL     1      -0.619   1.027   4.222  0.00  0.00    -0.128 NA
ATOM      4  N   UNL     1       0.666   1.040   4.201  0.00  0.00    -0.122 NA
ATOM      5  C   UNL     1       1.112   0.419   3.119  0.00  0.00    +0.197 A 
ENDROOT
BRANCH   2   6
ATOM      6  C   UNL     1      -2.426   0.184   2.820  0.00  0.00    +0.025 C 
ATOM      7  C   UNL     1      -3.546   0.588   3.547  0.00  0.00    +0.006 A 
ATOM      8  C   UNL     1      -3.692   1.292   4.761  0.00  0.00    +0.010 A 
ATOM      9  C   UNL     1      -4.934   1.552   5.245  0.00  0.00    +0.001 A 
ATOM     10  C   UNL     1      -6.083   1.137   4.568  0.00  0.00    +0.002 A 
ATOM     11  C   UNL     1      -6.018   0.456   3.398  0.00  0.00    +0.026 A 
ATOM     12  C   UNL     1      -4.755   0.149   2.830  0.00  0.00    +0.043 A 
ATOM     13  N   UNL     1      -4.428  -0.490   1.724  0.00  0.00    -0.380 N 
ATOM     14  C   UNL     1      -2.967  -0.528   1.601  0.00  0.00    +0.152 C 
ATOM     15  H   UNL     1      -5.055  -0.871   1.089  0.00  0.00    +0.160 HD
ENDBRANCH   2   6
BRANCH   1  22
ATOM     16  C   UNL     1      -0.007   1.498  -0.005  0.00  0.00    +0.046 C 
ATOM     17  C   UNL     1       0.007  -0.009  -0.003  0.00  0.00    -0.026 A 
ATOM     18  C   UNL     1       0.011  -0.702  -1.198  0.00  0.00    +0.005 A 
ATOM     19  C   UNL     1       0.024  -2.084  -1.198  0.00  0.00    +0.000 A 
ATOM     20  C   UNL     1       0.034  -2.778  -0.001  0.00  0.00    +0.002 A 
ATOM     21  C   UNL     1       0.030  -2.091   1.197  0.00  0.00    +0.026 A 
ATOM     22  C   UNL     1       0.022  -0.702   1.199  0.00  0.00    +0.053 A 
ENDBRANCH   1  22
BRANCH   5  23
ATOM     23  S   UNL     1       2.800   0.184   2.672  0.00  0.00    -0.076 S 
BRANCH  23  24
ATOM     24  C   UNL     1       3.724   0.973   4.020  0.00  0.00    +0.173 C 
BRANCH  24  25
ATOM     25  C   UNL     1       5.202   0.842   3.758  0.00  0.00    +0.227 C 
ATOM     26  O   UNL     1       5.594   0.273   2.761  0.00  0.00    -0.275 OA
ATOM     27  N   UNL     1       6.089   1.358   4.632  0.00  0.00    -0.285 N 
ATOM     28  H   UNL     1       5.777   1.870   5.394  0.00  0.00    +0.155 HD
BRANCH  27  29
ATOM     29  C   UNL     1       7.455   1.154   4.441  0.00  0.00    +0.033 A 
ATOM     30  C   UNL     1       7.979   1.121   3.152  0.00  0.00    +0.024 A 
ATOM     31  C   UNL     1       9.327   0.920   2.960  0.00  0.00    +0.015 A 
ATOM     32  C   UNL     1      10.171   0.750   4.061  0.00  0.00    +0.037 A 
ATOM     33  C   UNL     1       9.642   0.784   5.354  0.00  0.00    +0.015 A 
ATOM     34  C   UNL     1       8.293   0.990   5.540  0.00  0.00    +0.024 A 
BRANCH  32  35
ATOM     35  C   UNL     1      11.617   0.534   3.859  0.00  0.00    +0.242 C 
ATOM     36  O   UNL     1      12.075   0.504   2.733  0.00  0.00    -0.270 OA
ATOM     37  N   UNL     1      12.429   0.370   4.922  0.00  0.00    -0.325 N 
ATOM     38  H   UNL     1      12.063   0.394   5.820  0.00  0.00    +0.145 HD
ATOM     39  H   UNL     1      13.379   0.228   4.789  0.00  0.00    +0.145 HD
ENDBRANCH  32  35
ENDBRANCH  27  29
ENDBRANCH  24  25
ENDBRANCH  23  24
ENDBRANCH   5  23
TORSDOF 7
