REMARK  Name = ZINC36490893
REMARK  13 active torsions:
REMARK  status: ('A' for Active; 'I' for Inactive)
REMARK    1  A    between atoms: C_1  and  C_2
REMARK    2  A    between atoms: C_2  and  C_3
REMARK    3  A    between atoms: C_3  and  C_4
REMARK    4  A    between atoms: C_4  and  C_5
REMARK    5  A    between atoms: C_5  and  C_6
REMARK    6  A    between atoms: C_6  and  C_8
REMARK    7  A    between atoms: C_6  and  N_22
REMARK    8  A    between atoms: N_10  and  C_11
REMARK    9  A    between atoms: C_11  and  S_12
REMARK   10  A    between atoms: S_12  and  C_15
REMARK   11  A    between atoms: C_18  and  C_21
REMARK   12  A    between atoms: N_22  and  C_23
REMARK   13  A    between atoms: C_29  and  C_31
REMARK                            x       y       z     vdW  Elec       q    Type
REMARK                         _______ _______ _______ _____ _____    ______ ____
ROOT
ATOM      1  C   UNL     1      -2.526  -4.025   0.050  0.00  0.00    +0.162 C 
ENDROOT
BRANCH   1   2
ATOM      2  C   UNL     1      -3.976  -4.329  -0.223  0.00  0.00    +0.235 C 
ATOM      3  O   UNL     1      -4.614  -4.999   0.562  0.00  0.00    -0.274 OA
ATOM      4  N   UNL     1      -4.566  -3.857  -1.339  0.00  0.00    -0.295 N 
ATOM      5  H   UNL     1      -4.056  -3.321  -1.967  0.00  0.00    +0.150 HD
BRANCH   4   6
ATOM      6  C   UNL     1      -5.976  -4.153  -1.605  0.00  0.00    +0.278 C 
BRANCH   6   7
ATOM      7  S   UNL     1      -7.004  -2.784  -1.004  0.00  0.00    +0.013 S 
ATOM      8  O   UNL     1      -8.370  -3.027  -1.311  0.00  0.00    -0.168 OA
ATOM      9  O   UNL     1      -6.611  -2.418   0.312  0.00  0.00    -0.168 OA
BRANCH   7  10
ATOM     10  C   UNL     1      -6.556  -1.407  -2.007  0.00  0.00    +0.090 A 
ATOM     11  C   UNL     1      -5.524  -0.574  -1.617  0.00  0.00    +0.027 A 
ATOM     12  C   UNL     1      -5.173   0.506  -2.404  0.00  0.00    +0.005 A 
ATOM     13  C   UNL     1      -5.853   0.754  -3.582  0.00  0.00    -0.050 A 
ATOM     14  C   UNL     1      -6.885  -0.079  -3.972  0.00  0.00    +0.005 A 
ATOM     15  C   UNL     1      -7.233  -1.162  -3.187  0.00  0.00    +0.027 A 
ATOM     16  C   UNL     1      -5.471   1.933  -4.439  0.00  0.00    +0.044 C 
ENDBRANCH   7  10
ENDBRANCH   6   7
ENDBRANCH   4   6
ENDBRANCH   1   2
BRANCH   1  17
ATOM     17  N   UNL     1      -2.126  -4.646   1.315  0.00  0.00    -0.285 N 
ATOM     18  C   UNL     1      -1.134  -5.557   1.335  0.00  0.00    +0.237 C 
ATOM     19  O   UNL     1      -0.859  -6.134   2.366  0.00  0.00    -0.274 OA
BRANCH  18  20
ATOM     20  C   UNL     1      -0.364  -5.860   0.075  0.00  0.00    +0.159 C 
ATOM     21  C   UNL     1      -1.178  -6.810  -0.833  0.00  0.00    +0.041 C 
ATOM     22  C   UNL     1      -0.637  -8.194  -0.406  0.00  0.00    +0.098 C 
ATOM     23  C   UNL     1       0.743  -7.901   0.140  0.00  0.00    +0.214 C 
ATOM     24  O   UNL     1       1.609  -8.730   0.321  0.00  0.00    -0.276 OA
ATOM     25  N   UNL     1       0.871  -6.585   0.396  0.00  0.00    -0.304 N 
ATOM     26  H   UNL     1       1.674  -6.170   0.746  0.00  0.00    +0.149 HD
ENDBRANCH  18  20
BRANCH  17  27
ATOM     27  C   UNL     1      -2.806  -4.277   2.560  0.00  0.00    +0.077 C 
ATOM     28  C   UNL     1      -3.417  -5.526   3.198  0.00  0.00    +0.022 C 
ATOM     29  C   UNL     1      -4.126  -5.140   4.497  0.00  0.00    +0.002 C 
ATOM     30  C   UNL     1      -3.117  -4.516   5.463  0.00  0.00    +0.000 C 
ATOM     31  C   UNL     1      -2.506  -3.267   4.825  0.00  0.00    +0.002 C 
ATOM     32  C   UNL     1      -1.797  -3.652   3.526  0.00  0.00    +0.022 C 
ENDBRANCH  17  27
ENDBRANCH   1  17
BRANCH   1  33
ATOM     33  C   UNL     1      -2.331  -2.510   0.142  0.00  0.00    +0.032 C 
BRANCH  33  34
ATOM     34  C   UNL     1      -0.842  -2.196   0.295  0.00  0.00    +0.002 C 
BRANCH  34  35
ATOM     35  C   UNL     1      -0.647  -0.681   0.387  0.00  0.00    -0.000 C 
BRANCH  35  37
ATOM     36  C   UNL     1       1.037   1.149   0.631  0.00  0.00    +0.004 C 
ATOM     37  C   UNL     1       0.843  -0.366   0.539  0.00  0.00    -0.003 C 
ENDBRANCH  35  37
ENDBRANCH  34  35
ENDBRANCH  33  34
ENDBRANCH   1  33
TORSDOF 11
