REMARK  Name = ZINC63426705
REMARK  9 active torsions:
REMARK  status: ('A' for Active; 'I' for Inactive)
REMARK    1  A    between atoms: C_1  and  C_2
REMARK    2  A    between atoms: C_7  and  N_8
REMARK    3  A    between atoms: C_12  and  N_13
REMARK    4  A    between atoms: N_13  and  C_14
REMARK    5  A    between atoms: C_14  and  C_16
REMARK    6  A    between atoms: C_14  and  C_26
REMARK    7  A    between atoms: C_16  and  C_17
REMARK    8  A    between atoms: C_26  and  O_28
REMARK    9  A    between atoms: O_28  and  C_29
REMARK                            x       y       z     vdW  Elec       q    Type
REMARK                         _______ _______ _______ _____ _____    ______ ____
ROOT
ATOM      1  N   UNL     1       0.026  -0.042   2.435  0.00  0.00    -0.189 N 
ATOM      2  C   UNL     1      -1.150   0.265   3.021  0.00  0.00    +0.265 C 
ATOM      3  O   UNL     1      -2.205  -0.069   2.517  0.00  0.00    -0.269 OA
ATOM      4  C   UNL     1      -1.121   1.016   4.288  0.00  0.00    +0.113 C 
ATOM      5  C   UNL     1      -2.285   1.366   4.947  0.00  0.00    +0.086 C 
ATOM      6  C   UNL     1       0.204   1.377   4.824  0.00  0.00    +0.258 C 
ATOM      7  O   UNL     1       0.309   1.997   5.866  0.00  0.00    -0.270 OA
ATOM      8  N   UNL     1       1.297   1.002   4.128  0.00  0.00    -0.235 N 
ATOM      9  C   UNL     1       1.196   0.314   2.982  0.00  0.00    +0.320 C 
ATOM     10  O   UNL     1       2.220   0.002   2.406  0.00  0.00    -0.251 OA
ATOM     11  H   UNL     1       2.176   1.232   4.467  0.00  0.00    +0.159 HD
ENDROOT
BRANCH   1  18
ATOM     12  C   UNL     1      -0.038   1.430  -0.000  0.00  0.00    +0.045 C 
ATOM     13  C   UNL     1      -0.007  -0.076   0.018  0.00  0.00    -0.029 A 
ATOM     14  C   UNL     1      -0.003  -0.782  -1.169  0.00  0.00    +0.005 A 
ATOM     15  C   UNL     1       0.025  -2.165  -1.153  0.00  0.00    +0.000 A 
ATOM     16  C   UNL     1       0.049  -2.845   0.051  0.00  0.00    +0.002 A 
ATOM     17  C   UNL     1       0.046  -2.144   1.242  0.00  0.00    +0.024 A 
ATOM     18  C   UNL     1       0.023  -0.756   1.228  0.00  0.00    +0.049 A 
ENDBRANCH   1  18
BRANCH   5  19
ATOM     19  N   UNL     1      -2.224   1.942   6.164  0.00  0.00    -0.336 N 
ATOM     20  H   UNL     1      -1.365   2.179   6.546  0.00  0.00    +0.146 HD
BRANCH  19  21
ATOM     21  C   UNL     1      -3.456   2.208   6.911  0.00  0.00    +0.184 C 
BRANCH  21  22
ATOM     22  C   UNL     1      -3.858   0.973   7.674  0.00  0.00    +0.328 C 
ATOM     23  O   UNL     1      -3.185  -0.028   7.602  0.00  0.00    -0.249 OA
BRANCH  22  24
ATOM     24  O   UNL     1      -4.964   0.984   8.435  0.00  0.00    -0.467 OA
ATOM     25  C   UNL     1      -5.285  -0.222   9.131  0.00  0.00    +0.280 C 
ENDBRANCH  22  24
ENDBRANCH  21  22
BRANCH  21  26
ATOM     26  C   UNL     1      -3.220   3.359   7.891  0.00  0.00    +0.066 C 
BRANCH  26  27
ATOM     27  C   UNL     1      -2.938   4.624   7.121  0.00  0.00    -0.039 C 
ATOM     28  C   UNL     1      -3.828   5.583   6.780  0.00  0.00    -0.001 A 
ATOM     29  C   UNL     1      -5.270   5.730   7.012  0.00  0.00    +0.010 A 
ATOM     30  C   UNL     1      -5.903   6.827   6.536  0.00  0.00    +0.001 A 
ATOM     31  C   UNL     1      -5.218   7.824   5.829  0.00  0.00    +0.002 A 
ATOM     32  C   UNL     1      -3.893   7.760   5.576  0.00  0.00    +0.026 A 
ATOM     33  C   UNL     1      -3.128   6.651   6.030  0.00  0.00    +0.043 A 
ATOM     34  N   UNL     1      -1.854   6.362   5.913  0.00  0.00    -0.380 N 
ATOM     35  C   UNL     1      -1.601   5.081   6.581  0.00  0.00    +0.144 C 
ATOM     36  H   UNL     1      -1.190   6.907   5.463  0.00  0.00    +0.160 HD
ENDBRANCH  26  27
ENDBRANCH  21  26
ENDBRANCH  19  21
ENDBRANCH   5  19
TORSDOF 7
