REMARK  Name = ZINC12245617
REMARK  12 active torsions:
REMARK  status: ('A' for Active; 'I' for Inactive)
REMARK    1  A    between atoms: C_1  and  C_2
REMARK    2  A    between atoms: C_2  and  C_4
REMARK    3  A    between atoms: C_2  and  C_10
REMARK    4  A    between atoms: C_4  and  C_5
REMARK    5  A    between atoms: C_5  and  C_6
REMARK    6  A    between atoms: C_7  and  C_8
REMARK    7  A    between atoms: C_7  and  C_9
REMARK    8  A    between atoms: C_10  and  N_64
REMARK    9  A    between atoms: C_16  and  C_20
REMARK   10  A    between atoms: C_20  and  C_21
REMARK   11  A    between atoms: C_21  and  N_22
REMARK   12  A    between atoms: C_23  and  C_25
REMARK                            x       y       z     vdW  Elec       q    Type
REMARK                         _______ _______ _______ _____ _____    ______ ____
ROOT
ATOM      1  C   UNL     1       0.082  -1.533  -7.455  0.00  0.00    -0.071 C 
ATOM      2  C   UNL     1       0.984  -2.731  -7.167  0.00  0.00    +0.058 C 
ATOM      3  C   UNL     1       1.387  -2.706  -5.716  0.00  0.00    +0.132 A 
ATOM      4  N   UNL     1       2.572  -2.900  -5.215  0.00  0.00    -0.134 NA
ATOM      5  N   UNL     1       2.514  -2.830  -3.931  0.00  0.00    -0.134 NA
ATOM      6  C   UNL     1       1.286  -2.581  -3.558  0.00  0.00    +0.135 A 
ATOM      7  N   UNL     1       0.540  -2.489  -4.680  0.00  0.00    -0.317 N 
ATOM      8  C   UNL     1      -0.889  -2.196  -4.783  0.00  0.00    +0.106 C 
ATOM      9  C   UNL     1      -1.441  -2.827  -6.066  0.00  0.00    -0.057 C 
ATOM     10  N   UNL     1      -1.331  -1.894  -7.211  0.00  0.00    +0.381 N 
ATOM     11  H   UNL     1      -1.704  -2.354  -8.049  0.00  0.00    -0.082 HD
ENDROOT
BRANCH  10  12
ATOM     12  C   UNL     1      -2.120  -0.677  -6.944  0.00  0.00    -0.076 C 
BRANCH  12  14
ATOM     13  C   UNL     1      -2.900  -0.606  -9.316  0.00  0.00    +0.005 C 
ATOM     14  C   UNL     1      -2.163   0.166  -8.220  0.00  0.00    -0.030 C 
BRANCH  14  15
ATOM     15  C   UNL     1      -2.897   1.478  -7.939  0.00  0.00    +0.005 C 
BRANCH  15  16
ATOM     16  C   UNL     1      -2.833   2.374  -9.178  0.00  0.00    +0.027 C 
BRANCH  16  17
ATOM     17  C   UNL     1      -3.556   3.667  -8.901  0.00  0.00    -0.028 C 
ATOM     18  C   UNL     1      -2.920   4.808  -9.003  0.00  0.00    -0.080 C 
ATOM     19  C   UNL     1      -1.436   4.823  -9.266  0.00  0.00    +0.038 C 
ATOM     20  C   UNL     1      -3.672   6.105  -8.857  0.00  0.00    +0.038 C 
ENDBRANCH  16  17
ENDBRANCH  15  16
ENDBRANCH  14  15
ENDBRANCH  12  14
ENDBRANCH  10  12
BRANCH   6  21
ATOM     21  C   UNL     1       0.793  -2.430  -2.141  0.00  0.00    +0.095 C 
BRANCH  21  22
ATOM     22  C   UNL     1       0.896  -0.963  -1.719  0.00  0.00    +0.112 C 
BRANCH  22  23
ATOM     23  N   UNL     1       0.417  -0.817  -0.342  0.00  0.00    -0.311 N 
ATOM     24  C   UNL     1       0.415   0.396   0.245  0.00  0.00    +0.246 C 
ATOM     25  O   UNL     1       0.810   1.369  -0.367  0.00  0.00    -0.270 OA
ATOM     26  H   UNL     1       0.102  -1.593   0.147  0.00  0.00    +0.149 HD
BRANCH  24  27
ATOM     27  C   UNL     1      -0.068   0.543   1.635  0.00  0.00    +0.055 A 
ATOM     28  C   UNL     1      -0.070   1.797   2.259  0.00  0.00    +0.016 A 
ATOM     29  C   UNL     1      -0.537   1.882   3.558  0.00  0.00    +0.020 A 
ATOM     30  C   UNL     1      -0.973   0.735   4.198  0.00  0.00    +0.111 A 
ATOM     31  N   UNL     1      -0.954  -0.434   3.587  0.00  0.00    -0.263 NA
ATOM     32  C   UNL     1      -0.524  -0.565   2.349  0.00  0.00    +0.123 A 
ENDBRANCH  24  27
ENDBRANCH  22  23
ENDBRANCH  21  22
ENDBRANCH   6  21
TORSDOF 9
