REMARK  Name = ZINC39779842
REMARK  7 active torsions:
REMARK  status: ('A' for Active; 'I' for Inactive)
REMARK    1  A    between atoms: C_1  and  C_2
REMARK    2  A    between atoms: C_2  and  C_3
REMARK    3  A    between atoms: C_2  and  C_4
REMARK    4  A    between atoms: C_4  and  C_6
REMARK    5  A    between atoms: C_4  and  N_23
REMARK    6  A    between atoms: C_11  and  C_14
REMARK    7  A    between atoms: C_24  and  C_26
REMARK                            x       y       z     vdW  Elec       q    Type
REMARK                         _______ _______ _______ _____ _____    ______ ____
ROOT
ATOM      1  C   UNL     1      -1.285  -2.153  -0.011  0.00  0.00    +0.236 C 
ATOM      2  O   UNL     1      -1.640  -2.835  -0.949  0.00  0.00    -0.274 OA
ATOM      3  N   UNL     1      -0.740  -2.734   1.076  0.00  0.00    -0.296 N 
ATOM      4  C   UNL     1      -0.685  -4.199   1.214  0.00  0.00    +0.113 C 
ATOM      5  C   UNL     1       0.787  -4.616   1.264  0.00  0.00    +0.054 C 
ATOM      6  C   UNL     1       1.551  -3.726   2.200  0.00  0.00    -0.043 C 
ATOM      7  C   UNL     1       1.133  -2.531   2.600  0.00  0.00    -0.004 C 
ATOM      8  C   UNL     1      -0.171  -1.930   2.167  0.00  0.00    +0.135 C 
ENDROOT
BRANCH   6   9
ATOM      9  C   UNL     1       2.791  -4.189   2.687  0.00  0.00    -0.016 C 
ATOM     10  C   UNL     1       3.478  -5.327   2.284  0.00  0.00    +0.003 A 
ATOM     11  C   UNL     1       3.192  -6.328   1.327  0.00  0.00    +0.010 A 
ATOM     12  C   UNL     1       4.065  -7.348   1.140  0.00  0.00    +0.001 A 
ATOM     13  C   UNL     1       5.253  -7.441   1.873  0.00  0.00    +0.002 A 
ATOM     14  C   UNL     1       5.592  -6.520   2.806  0.00  0.00    +0.026 A 
ATOM     15  C   UNL     1       4.729  -5.421   3.059  0.00  0.00    +0.043 A 
ATOM     16  N   UNL     1       4.828  -4.411   3.897  0.00  0.00    -0.380 N 
ATOM     17  C   UNL     1       3.652  -3.546   3.751  0.00  0.00    +0.149 C 
ATOM     18  H   UNL     1       5.564  -4.260   4.510  0.00  0.00    +0.160 HD
ENDBRANCH   6   9
BRANCH   1  19
ATOM     19  C   UNL     1      -1.453  -0.657  -0.062  0.00  0.00    +0.162 C 
BRANCH  19  20
ATOM     20  N   UNL     1      -2.720  -0.329  -0.720  0.00  0.00    -0.300 N 
ATOM     21  C   UNL     1      -3.334   0.841  -0.456  0.00  0.00    +0.246 C 
ATOM     22  O   UNL     1      -2.836   1.625   0.329  0.00  0.00    -0.270 OA
ATOM     23  H   UNL     1      -3.117  -0.955  -1.346  0.00  0.00    +0.150 HD
BRANCH  21  24
ATOM     24  C   UNL     1      -4.612   1.171  -1.119  0.00  0.00    +0.055 A 
ATOM     25  C   UNL     1      -5.190   0.271  -2.017  0.00  0.00    +0.014 A 
ATOM     26  C   UNL     1      -6.383   0.585  -2.632  0.00  0.00    +0.001 A 
ATOM     27  C   UNL     1      -7.009   1.790  -2.364  0.00  0.00    +0.001 A 
ATOM     28  C   UNL     1      -6.443   2.687  -1.477  0.00  0.00    +0.021 A 
ATOM     29  C   UNL     1      -5.251   2.383  -0.848  0.00  0.00    +0.053 A 
ATOM     30 CL   UNL     1      -4.546   3.508   0.271  0.00  0.00    -0.083 Cl
ENDBRANCH  21  24
ENDBRANCH  19  20
BRANCH  19  32
ATOM     31  C   UNL     1      -0.406   1.486  -0.809  0.00  0.00    +0.009 C 
ATOM     32  C   UNL     1      -0.295  -0.040  -0.849  0.00  0.00    +0.012 C 
ATOM     33  C   UNL     1       1.034  -0.471  -0.224  0.00  0.00    +0.009 C 
ENDBRANCH  19  32
ENDBRANCH   1  19
TORSDOF 5
