REMARK  Name = ZINC21864176
REMARK  10 active torsions:
REMARK  status: ('A' for Active; 'I' for Inactive)
REMARK    1  A    between atoms: C_1  and  C_2
REMARK    2  A    between atoms: C_5  and  C_37
REMARK    3  A    between atoms: N_8  and  C_10
REMARK    4  A    between atoms: C_10  and  C_11
REMARK    5  A    between atoms: C_11  and  C_12
REMARK    6  A    between atoms: C_12  and  N_13
REMARK    7  A    between atoms: C_19  and  C_32
REMARK    8  A    between atoms: C_22  and  C_23
REMARK    9  A    between atoms: C_22  and  C_24
REMARK   10  A    between atoms: N_26  and  C_27
REMARK                            x       y       z     vdW  Elec       q    Type
REMARK                         _______ _______ _______ _____ _____    ______ ____
ROOT
ATOM      1  N   UNL     1      -5.731   4.720   0.588  0.00  0.00    -0.281 N 
ATOM      2  C   UNL     1      -4.958   5.782   0.262  0.00  0.00    +0.264 C 
ATOM      3  O   UNL     1      -5.432   6.890   0.084  0.00  0.00    -0.268 OA
ATOM      4  C   UNL     1      -3.520   5.528   0.135  0.00  0.00    +0.105 A 
ATOM      5  C   UNL     1      -2.468   6.392   0.003  0.00  0.00    +0.033 A 
ATOM      6  C   UNL     1      -1.304   5.625  -0.050  0.00  0.00    +0.032 A 
ATOM      7  C   UNL     1      -1.671   4.291   0.039  0.00  0.00    +0.085 A 
ATOM      8  N   UNL     1      -3.021   4.230   0.147  0.00  0.00    -0.331 N 
ATOM      9  C   UNL     1      -3.907   3.067   0.252  0.00  0.00    +0.157 C 
ATOM     10  C   UNL     1      -5.157   3.458   1.039  0.00  0.00    +0.128 C 
ATOM     11  C   UNL     1      -6.206   2.355   0.880  0.00  0.00    +0.043 C 
ENDROOT
BRANCH   7  12
ATOM     12  C   UNL     1      -0.755   3.142   0.025  0.00  0.00    +0.151 A 
ATOM     13  C   UNL     1       0.608   3.204   0.013  0.00  0.00    +0.051 A 
ATOM     14  C   UNL     1       1.073   1.877   0.002  0.00  0.00    +0.042 A 
ATOM     15  C   UNL     1      -0.013   1.076   0.008  0.00  0.00    +0.196 A 
ATOM     16  O   UNL     1      -1.114   1.843   0.017  0.00  0.00    -0.461 OA
ENDBRANCH   7  12
BRANCH  10  17
ATOM     17  C   UNL     1      -4.797   3.579   2.497  0.00  0.00    +0.238 C 
ATOM     18  O   UNL     1      -4.966   2.639   3.244  0.00  0.00    -0.273 OA
ATOM     19  N   UNL     1      -4.286   4.733   2.971  0.00  0.00    -0.311 N 
ATOM     20  H   UNL     1      -4.133   5.586   2.293  0.00  0.00    +0.149 HD
BRANCH  19  21
ATOM     21  C   UNL     1      -3.936   4.851   4.388  0.00  0.00    +0.073 C 
ATOM     22  C   UNL     1      -5.168   5.296   5.202  0.00  0.00    +0.022 C 
ATOM     23  C   UNL     1      -4.589   6.251   6.277  0.00  0.00    +0.002 C 
ATOM     24  C   UNL     1      -3.485   7.011   5.500  0.00  0.00    +0.002 C 
ATOM     25  C   UNL     1      -2.866   5.941   4.578  0.00  0.00    +0.022 C 
ENDBRANCH  19  21
ENDBRANCH  10  17
BRANCH   1  26
ATOM     26  C   UNL     1      -7.188   4.843   0.486  0.00  0.00    +0.107 C 
BRANCH  26  27
ATOM     27  C   UNL     1      -7.752   5.347   1.816  0.00  0.00    +0.000 C 
BRANCH  27  28
ATOM     28  C   UNL     1      -9.273   5.475   1.710  0.00  0.00    -0.077 C 
BRANCH  28  34
ATOM     29  C   UNL     1      -9.213   6.798   5.705  0.00  0.00    +0.005 C 
ATOM     30  C   UNL     1     -10.057   5.561   5.391  0.00  0.00    -0.031 C 
ATOM     31  C   UNL     1     -11.534   5.957   5.306  0.00  0.00    +0.003 C 
ATOM     32  C   UNL     1     -11.721   6.953   4.159  0.00  0.00    -0.031 C 
ATOM     33  C   UNL     1     -11.231   6.319   2.855  0.00  0.00    -0.076 C 
ATOM     34  N   UNL     1      -9.814   5.959   2.987  0.00  0.00    +0.380 N 
ATOM     35  C   UNL     1      -9.615   4.967   4.052  0.00  0.00    -0.076 C 
ATOM     36  C   UNL     1     -13.204   7.309   4.028  0.00  0.00    +0.005 C 
ATOM     37  H   UNL     1      -9.262   6.868   3.267  0.00  0.00    -0.082 HD
ENDBRANCH  28  34
ENDBRANCH  27  28
ENDBRANCH  26  27
ENDBRANCH   1  26
TORSDOF 7
