REMARK  Name = ZINC12609405
REMARK  8 active torsions:
REMARK  status: ('A' for Active; 'I' for Inactive)
REMARK    1  A    between atoms: C_1  and  C_2
REMARK    2  A    between atoms: N_12  and  C_13
REMARK    3  A    between atoms: C_13  and  C_14
REMARK    4  A    between atoms: N_16  and  C_17
REMARK    5  A    between atoms: C_17  and  C_18
REMARK    6  A    between atoms: C_18  and  C_19
REMARK    7  A    between atoms: C_22  and  S_25
REMARK    8  A    between atoms: S_25  and  N_28
REMARK                            x       y       z     vdW  Elec       q    Type
REMARK                         _______ _______ _______ _____ _____    ______ ____
ROOT
ATOM      1  C   UNL     1       0.789  -1.803  -1.446  0.00  0.00    +0.230 C 
ATOM      2  O   UNL     1       0.313  -2.604  -0.670  0.00  0.00    -0.274 OA
ATOM      3  N   UNL     1       0.652  -0.481  -1.218  0.00  0.00    -0.314 N 
ATOM      4  H   UNL     1       1.033   0.160  -1.839  0.00  0.00    +0.149 HD
ENDROOT
BRANCH   1   5
ATOM      5  C   UNL     1       1.532  -2.285  -2.665  0.00  0.00    +0.201 C 
BRANCH   5  16
ATOM      6  C   UNL     1      -0.183  -4.023  -4.203  0.00  0.00    +0.028 C 
ATOM      7  C   UNL     1       0.360  -4.393  -2.822  0.00  0.00    +0.071 C 
ATOM      8  C   UNL     1       0.548  -5.913  -2.733  0.00  0.00    +0.027 C 
ATOM      9  C   UNL     1       0.898  -6.261  -1.284  0.00  0.00    +0.039 C 
ATOM     10  C   UNL     1       1.976  -5.331  -0.785  0.00  0.00    -0.026 A 
ATOM     11  C   UNL     1       2.654  -5.678   0.373  0.00  0.00    +0.005 A 
ATOM     12  C   UNL     1       3.640  -4.857   0.880  0.00  0.00    +0.000 A 
ATOM     13  C   UNL     1       3.956  -3.677   0.231  0.00  0.00    +0.002 A 
ATOM     14  C   UNL     1       3.288  -3.326  -0.922  0.00  0.00    +0.023 A 
ATOM     15  C   UNL     1       2.292  -4.155  -1.442  0.00  0.00    +0.034 A 
ATOM     16  N   UNL     1       1.658  -3.747  -2.615  0.00  0.00    -0.318 N 
ENDBRANCH   5  16
ENDBRANCH   1   5
BRANCH   3  17
ATOM     17  C   UNL     1      -0.071  -0.013  -0.034  0.00  0.00    +0.109 C 
BRANCH  17  18
ATOM     18  C   UNL     1      -0.080   1.517  -0.014  0.00  0.00    +0.054 C 
BRANCH  18  19
ATOM     19  C   UNL     1      -0.823   1.999   1.205  0.00  0.00    -0.046 A 
ATOM     20  C   UNL     1      -2.185   2.228   1.139  0.00  0.00    +0.005 A 
ATOM     21  C   UNL     1      -2.868   2.666   2.258  0.00  0.00    +0.029 A 
ATOM     22  C   UNL     1      -2.188   2.884   3.441  0.00  0.00    +0.105 A 
ATOM     23  C   UNL     1      -0.825   2.660   3.507  0.00  0.00    +0.029 A 
ATOM     24  C   UNL     1      -0.143   2.218   2.389  0.00  0.00    +0.005 A 
BRANCH  22  25
ATOM     25  S   UNL     1      -3.057   3.446   4.867  0.00  0.00    +0.056 S 
ATOM     26  O   UNL     1      -4.413   3.057   4.695  0.00  0.00    -0.153 OA
ATOM     27  O   UNL     1      -2.288   3.051   5.994  0.00  0.00    -0.153 OA
BRANCH  25  28
ATOM     28  N   UNL     1      -3.033   5.102   4.834  0.00  0.00    -0.204 NA
ATOM     29  H   UNL     1      -2.587   5.566   4.108  0.00  0.00    +0.144 HD
ATOM     30  H   UNL     1      -3.463   5.607   5.541  0.00  0.00    +0.144 HD
ENDBRANCH  25  28
ENDBRANCH  22  25
ENDBRANCH  18  19
ENDBRANCH  17  18
ENDBRANCH   3  17
TORSDOF 7
