REMARK  Name = ZINC08856083
REMARK  10 active torsions:
REMARK  status: ('A' for Active; 'I' for Inactive)
REMARK    1  A    between atoms: C_1  and  C_2
REMARK    2  A    between atoms: C_7  and  C_8
REMARK    3  A    between atoms: N_10  and  C_11
REMARK    4  A    between atoms: C_11  and  C_12
REMARK    5  A    between atoms: C_11  and  C_16
REMARK    6  A    between atoms: C_11  and  N_20
REMARK    7  A    between atoms: C_12  and  O_14
REMARK    8  A    between atoms: O_14  and  C_15
REMARK    9  A    between atoms: N_20  and  C_21
REMARK   10  A    between atoms: C_22  and  C_27
REMARK                            x       y       z     vdW  Elec       q    Type
REMARK                         _______ _______ _______ _____ _____    ______ ____
ROOT
ATOM      1  C   UNL     1      -0.181  -3.079  -0.987  0.00  0.00    +0.296 C 
ENDROOT
BRANCH   1   4
ATOM      2  C   UNL     1      -1.031  -5.353  -0.780  0.00  0.00    +0.246 C 
ATOM      3  O   UNL     1      -2.111  -4.957  -1.173  0.00  0.00    -0.270 OA
ATOM      4  N   UNL     1       0.012  -4.504  -0.705  0.00  0.00    -0.274 N 
ATOM      5  H   UNL     1       0.892  -4.835  -0.465  0.00  0.00    +0.152 HD
BRANCH   2  12
ATOM      6  C   UNL     1      -3.257  -7.185  -1.032  0.00  0.00    +0.044 C 
ATOM      7  C   UNL     1      -1.929  -7.660  -0.500  0.00  0.00    -0.038 A 
ATOM      8  C   UNL     1      -1.765  -8.979  -0.129  0.00  0.00    +0.004 A 
ATOM      9  C   UNL     1      -0.546  -9.417   0.358  0.00  0.00    +0.000 A 
ATOM     10  C   UNL     1       0.515  -8.537   0.477  0.00  0.00    +0.001 A 
ATOM     11  C   UNL     1       0.366  -7.217   0.104  0.00  0.00    +0.013 A 
ATOM     12  C   UNL     1      -0.862  -6.768  -0.383  0.00  0.00    +0.040 A 
ENDBRANCH   2  12
ENDBRANCH   1   4
BRANCH   1  13
ATOM     13  C   UNL     1      -1.162  -2.487   0.028  0.00  0.00    +0.438 C 
ATOM     14  F   UNL     1      -1.239  -1.102  -0.152  0.00  0.00    -0.166 F 
ATOM     15  F   UNL     1      -2.427  -3.053  -0.161  0.00  0.00    -0.166 F 
ATOM     16  F   UNL     1      -0.715  -2.765   1.324  0.00  0.00    -0.166 F 
ENDBRANCH   1  13
BRANCH   1  17
ATOM     17  C   UNL     1      -0.737  -2.913  -2.378  0.00  0.00    +0.359 C 
ATOM     18  O   UNL     1      -1.202  -3.865  -2.960  0.00  0.00    -0.246 OA
BRANCH  17  19
ATOM     19  O   UNL     1      -0.716  -1.709  -2.970  0.00  0.00    -0.465 OA
ATOM     20  C   UNL     1      -1.268  -1.623  -4.310  0.00  0.00    +0.280 C 
ENDBRANCH  17  19
ENDBRANCH   1  17
BRANCH   1  21
ATOM     21  N   UNL     1       1.104  -2.382  -0.888  0.00  0.00    -0.293 N 
ATOM     22  H   UNL     1       1.250  -1.732  -0.184  0.00  0.00    +0.150 HD
BRANCH  21  23
ATOM     23  C   UNL     1       2.114  -2.654  -1.804  0.00  0.00    +0.110 A 
ATOM     24  C   UNL     1       3.293  -1.916  -1.769  0.00  0.00    +0.094 A 
ATOM     25  C   UNL     1       4.290  -2.196  -2.686  0.00  0.00    +0.037 A 
ATOM     26  C   UNL     1       4.073  -3.210  -3.611  0.00  0.00    +0.058 A 
ATOM     27  C   UNL     1       2.878  -3.902  -3.589  0.00  0.00    +0.104 A 
ATOM     28 CL   UNL     1       5.292  -3.602  -4.784  0.00  0.00    -0.082 Cl
ATOM     29  N   UNL     1       1.877  -3.653  -2.703  0.00  0.00    -0.348 N 
ATOM     30  H   UNL     1       0.998  -4.184  -2.709  0.00  0.00    +0.167 HD
BRANCH  24  31
ATOM     31  C   UNL     1       3.481  -0.826  -0.746  0.00  0.00    +0.421 C 
ATOM     32  F   UNL     1       4.739  -0.238  -0.917  0.00  0.00    -0.166 F 
ATOM     33  F   UNL     1       2.486   0.145  -0.911  0.00  0.00    -0.166 F 
ATOM     34  F   UNL     1       3.392  -1.371   0.539  0.00  0.00    -0.166 F 
ENDBRANCH  24  31
ENDBRANCH  21  23
ENDBRANCH   1  21
TORSDOF 8
