REMARK  Name = ZINC02799108
REMARK  11 active torsions:
REMARK  status: ('A' for Active; 'I' for Inactive)
REMARK    1  A    between atoms: C_1  and  C_2
REMARK    2  A    between atoms: C_2  and  O_3
REMARK    3  A    between atoms: O_3  and  C_4
REMARK    4  A    between atoms: C_4  and  C_6
REMARK    5  A    between atoms: C_7  and  N_31
REMARK    6  A    between atoms: C_11  and  C_13
REMARK    7  A    between atoms: C_18  and  O_19
REMARK    8  A    between atoms: O_19  and  C_20
REMARK    9  A    between atoms: C_20  and  C_21
REMARK   10  A    between atoms: C_21  and  O_23
REMARK   11  A    between atoms: O_23  and  C_24
REMARK                            x       y       z     vdW  Elec       q    Type
REMARK                         _______ _______ _______ _____ _____    ______ ____
ROOT
ATOM      1  C   UNL     1      -4.826  -1.756  -1.196  0.00  0.00    +0.105 C 
ATOM      2  C   UNL     1      -5.933  -2.539  -1.107  0.00  0.00    +0.195 C 
ATOM      3  O   UNL     1      -6.316  -3.075   0.061  0.00  0.00    -0.446 OA
ATOM      4  C   UNL     1      -5.900  -2.529   1.219  0.00  0.00    +0.115 C 
ATOM      5  C   UNL     1      -4.807  -1.751   1.272  0.00  0.00    +0.045 C 
ATOM      6  C   UNL     1      -4.001  -1.466   0.027  0.00  0.00    +0.101 C 
ATOM      7  C   UNL     1      -4.376  -1.172   2.484  0.00  0.00    +0.163 C 
ATOM      8  O   UNL     1      -3.373  -0.487   2.496  0.00  0.00    -0.292 OA
ATOM      9  C   UNL     1      -5.137  -1.389   3.764  0.00  0.00    +0.080 C 
ATOM     10  C   UNL     1      -6.612  -1.635   3.427  0.00  0.00    +0.016 C 
ATOM     11  C   UNL     1      -6.699  -2.824   2.468  0.00  0.00    +0.075 C 
ENDROOT
BRANCH   6  12
ATOM     12  C   UNL     1      -2.770  -2.335   0.019  0.00  0.00    +0.008 A 
ATOM     13  C   UNL     1      -2.895  -3.711   0.024  0.00  0.00    +0.028 A 
ATOM     14  C   UNL     1      -1.765  -4.509   0.016  0.00  0.00    +0.041 A 
ATOM     15  C   UNL     1      -0.508  -3.931   0.003  0.00  0.00    +0.023 A 
ATOM     16  C   UNL     1      -0.379  -2.556  -0.007  0.00  0.00    +0.047 A 
ATOM     17  C   UNL     1      -1.511  -1.754   0.006  0.00  0.00    +0.125 A 
ATOM     18 CL   UNL     1      -1.925  -6.237   0.023  0.00  0.00    -0.084 Cl
BRANCH  17  19
ATOM     19  O   UNL     1      -1.386  -0.400   0.000  0.00  0.00    -0.480 OA
BRANCH  19  20
ATOM     20  C   UNL     1      -0.058   0.129  -0.013  0.00  0.00    +0.349 C 
BRANCH  20  21
ATOM     21  C   UNL     1      -0.117   1.634  -0.017  0.00  0.00    +0.345 C 
ATOM     22  O   UNL     1      -1.187   2.197  -0.015  0.00  0.00    -0.247 OA
BRANCH  21  23
ATOM     23  O   UNL     1       1.018   2.351  -0.029  0.00  0.00    -0.466 OA
ATOM     24  C   UNL     1       0.885   3.796  -0.033  0.00  0.00    +0.280 C 
ENDBRANCH  21  23
ENDBRANCH  20  21
ENDBRANCH  19  20
ENDBRANCH  17  19
ENDBRANCH   6  12
BRANCH   2  25
ATOM     25  N   UNL     1      -6.672  -2.785  -2.233  0.00  0.00    -0.329 N 
ATOM     26  H   UNL     1      -6.363  -2.466  -3.095  0.00  0.00    +0.145 HD
ATOM     27  H   UNL     1      -7.504  -3.278  -2.168  0.00  0.00    +0.145 HD
ENDBRANCH   2  25
BRANCH   1  28
ATOM     28  C   UNL     1      -4.449  -1.217  -2.436  0.00  0.00    +0.341 C 
ATOM     29  O   UNL     1      -4.700  -0.054  -2.695  0.00  0.00    -0.245 OA
BRANCH  28  30
ATOM     30  O   UNL     1      -3.810  -1.988  -3.341  0.00  0.00    -0.462 OA
BRANCH  30  32
ATOM     31  C   UNL     1      -2.745  -2.395  -5.472  0.00  0.00    +0.048 C 
ATOM     32  C   UNL     1      -3.457  -1.374  -4.582  0.00  0.00    +0.229 C 
ENDBRANCH  30  32
ENDBRANCH  28  30
ENDBRANCH   1  28
TORSDOF 9
