REMARK  Name = ZINC55615120
REMARK  7 active torsions:
REMARK  status: ('A' for Active; 'I' for Inactive)
REMARK    1  A    between atoms: C_1  and  C_2
REMARK    2  A    between atoms: C_5  and  C_23
REMARK    3  A    between atoms: C_6  and  S_8
REMARK    4  A    between atoms: S_8  and  N_11
REMARK    5  A    between atoms: N_11  and  C_12
REMARK    6  A    between atoms: C_14  and  C_20
REMARK    7  A    between atoms: C_17  and  C_18
REMARK                            x       y       z     vdW  Elec       q    Type
REMARK                         _______ _______ _______ _____ _____    ______ ____
ROOT
ATOM      1  N   UNL     1      -1.019  -3.274   2.852  0.00  0.00    -0.216 N 
ATOM      2  H   UNL     1      -1.662  -3.027   3.535  0.00  0.00    +0.174 HD
ENDROOT
BRANCH   1   3
ATOM      3  C   UNL     1      -1.330  -4.277   1.930  0.00  0.00    +0.054 A 
ATOM      4  C   UNL     1      -0.338  -5.135   1.478  0.00  0.00    +0.038 A 
ATOM      5  C   UNL     1      -0.652  -6.134   0.558  0.00  0.00    +0.041 A 
ATOM      6  C   UNL     1      -1.964  -6.266   0.097  0.00  0.00    +0.051 A 
ATOM      7  C   UNL     1      -2.946  -5.407   0.553  0.00  0.00    +0.129 A 
ATOM      8  C   UNL     1      -2.634  -4.418   1.471  0.00  0.00    +0.007 A 
ATOM      9  C   UNL     1      -3.711  -3.489   1.969  0.00  0.00    +0.049 C 
ATOM     10  F   UNL     1      -4.214  -5.535   0.106  0.00  0.00    -0.205 F 
BRANCH   5  11
ATOM     11  C   UNL     1       0.400  -7.052   0.071  0.00  0.00    +0.242 C 
ATOM     12  O   UNL     1       1.541  -6.935   0.473  0.00  0.00    -0.270 OA
ATOM     13  N   UNL     1       0.095  -8.017  -0.818  0.00  0.00    -0.325 N 
ATOM     14  H   UNL     1      -0.816  -8.110  -1.139  0.00  0.00    +0.145 HD
ATOM     15  H   UNL     1       0.785  -8.619  -1.137  0.00  0.00    +0.145 HD
ENDBRANCH   5  11
ENDBRANCH   1   3
BRANCH   1  16
ATOM     16  S   UNL     1       0.446  -2.506   2.777  0.00  0.00    +0.073 S 
ATOM     17  O   UNL     1       0.445  -1.527   3.807  0.00  0.00    -0.150 OA
ATOM     18  O   UNL     1       0.662  -2.175   1.412  0.00  0.00    -0.150 OA
BRANCH  16  24
ATOM     19  C   UNL     1       4.635  -5.406   1.608  0.00  0.00    +0.044 C 
ATOM     20  C   UNL     1       3.596  -4.996   2.620  0.00  0.00    -0.049 A 
ATOM     21  C   UNL     1       3.608  -5.549   3.887  0.00  0.00    +0.004 A 
ATOM     22  C   UNL     1       2.655  -5.173   4.815  0.00  0.00    +0.005 A 
ATOM     23  C   UNL     1       1.690  -4.244   4.476  0.00  0.00    -0.024 A 
ATOM     24  C   UNL     1       1.677  -3.690   3.209  0.00  0.00    +0.112 A 
ATOM     25  C   UNL     1       2.633  -4.063   2.283  0.00  0.00    +0.032 A 
ATOM     26  C   UNL     1       0.650  -3.835   5.487  0.00  0.00    +0.046 C 
ENDBRANCH  16  24
ENDBRANCH   1  16
TORSDOF 4
