REMARK  Name = ZINC49724339
REMARK  4 active torsions:
REMARK  status: ('A' for Active; 'I' for Inactive)
REMARK    1  A    between atoms: C_3  and  C_21
REMARK    2  A    between atoms: C_6  and  C_7
REMARK    3  A    between atoms: C_7  and  C_8
REMARK    4  A    between atoms: C_8  and  N_9
REMARK                            x       y       z     vdW  Elec       q    Type
REMARK                         _______ _______ _______ _____ _____    ______ ____
ROOT
ATOM      1  C   UNL     1      -1.748  -1.024  -1.429  0.00  0.00    +0.110 C 
ENDROOT
BRANCH   1   2
ATOM      2  N   UNL     1      -3.009  -1.770  -1.420  0.00  0.00    -0.299 N 
ATOM      3  C   UNL     1      -3.600  -2.107  -2.583  0.00  0.00    +0.302 C 
ATOM      4  O   UNL     1      -3.087  -1.792  -3.640  0.00  0.00    -0.253 OA
ATOM      5  N   UNL     1      -4.760  -2.793  -2.576  0.00  0.00    -0.282 N 
ATOM      6  C   UNL     1      -5.511  -3.243  -1.385  0.00  0.00    +0.113 C 
ATOM      7  C   UNL     1      -6.777  -3.963  -1.946  0.00  0.00    +0.008 C 
ATOM      8  C   UNL     1      -6.219  -5.290  -2.550  0.00  0.00    +0.007 C 
ATOM      9  C   UNL     1      -5.367  -4.827  -3.755  0.00  0.00    +0.023 C 
ATOM     10  C   UNL     1      -5.538  -3.240  -3.767  0.00  0.00    +0.078 C 
ATOM     11  C   UNL     1      -7.007  -3.106  -3.243  0.00  0.00    +0.027 C 
ATOM     12  H   UNL     1      -3.418  -2.021  -0.578  0.00  0.00    +0.150 HD
ENDBRANCH   1   2
BRANCH   1  13
ATOM     13  C   UNL     1      -1.295  -0.772   0.011  0.00  0.00    +0.054 C 
BRANCH  13  19
ATOM     14  C   UNL     1      -0.017   1.380   0.010  0.00  0.00    +0.004 A 
ATOM     15  C   UNL     1       1.166   2.089   0.002  0.00  0.00    +0.015 A 
ATOM     16  C   UNL     1       2.385   1.407  -0.013  0.00  0.00    +0.063 A 
ATOM     17  C   UNL     1       2.397   0.009  -0.021  0.00  0.00    +0.015 A 
ATOM     18  C   UNL     1       1.206  -0.686  -0.013  0.00  0.00    +0.004 A 
ATOM     19  C   UNL     1       0.002  -0.004   0.002  0.00  0.00    -0.046 A 
BRANCH  16  20
ATOM     20  C   UNL     1       3.655   2.158  -0.022  0.00  0.00    +0.387 C 
ATOM     21  O   UNL     1       3.642   3.381  -0.015  0.00  0.00    -0.241 OA
ATOM     22  O   UNL     1       4.721   1.558  -0.035  0.00  0.00    -0.241 OA
ENDBRANCH  16  20
ENDBRANCH  13  19
ENDBRANCH   1  13
TORSDOF 4
