REMARK  Name = ZINC66815063
REMARK  5 active torsions:
REMARK  status: ('A' for Active; 'I' for Inactive)
REMARK    1  A    between atoms: C_3  and  C_8
REMARK    2  A    between atoms: N_11  and  C_15
REMARK    3  A    between atoms: C_18  and  S_24
REMARK    4  A    between atoms: C_20  and  N_21
REMARK    5  A    between atoms: S_24  and  N_27
REMARK                            x       y       z     vdW  Elec       q    Type
REMARK                         _______ _______ _______ _____ _____    ______ ____
ROOT
ATOM      1  C   UNL     1       5.966   3.864   2.176  0.00  0.00    +0.061 A 
ATOM      2  C   UNL     1       6.545   3.592   3.410  0.00  0.00    +0.027 A 
ATOM      3  C   UNL     1       6.907   4.631   4.245  0.00  0.00    +0.030 A 
ATOM      4  C   UNL     1       6.694   5.940   3.855  0.00  0.00    +0.107 A 
ATOM      5  C   UNL     1       6.118   6.215   2.628  0.00  0.00    +0.063 A 
ATOM      6  C   UNL     1       5.758   5.181   1.786  0.00  0.00    +0.149 A 
ENDROOT
BRANCH   1   9
ATOM      7  C   UNL     1       3.672   2.186  -0.021  0.00  0.00    +0.166 C 
ATOM      8  C   UNL     1       4.255   2.223   1.396  0.00  0.00    +0.141 C 
ATOM      9  N   UNL     1       5.600   2.816   1.329  0.00  0.00    -0.323 N 
ATOM     10  C   UNL     1       6.547   2.273   0.342  0.00  0.00    +0.133 C 
ATOM     11  C   UNL     1       5.852   2.233  -1.024  0.00  0.00    +0.179 C 
ATOM     12  O   UNL     1       4.604   1.548  -0.898  0.00  0.00    -0.369 OA
BRANCH   7  15
ATOM     13  C   UNL     1      -0.017   1.377   0.010  0.00  0.00    +0.003 A 
ATOM     14  C   UNL     1       1.171   2.086   0.002  0.00  0.00    +0.006 A 
ATOM     15  C   UNL     1       2.378   1.413  -0.013  0.00  0.00    -0.015 A 
ATOM     16  C   UNL     1       2.399   0.030  -0.021  0.00  0.00    +0.044 A 
ATOM     17  C   UNL     1       1.211  -0.679  -0.013  0.00  0.00    +0.124 A 
ATOM     18  C   UNL     1       0.002  -0.004   0.002  0.00  0.00    +0.038 A 
ATOM     19  F   UNL     1       1.230  -2.030  -0.022  0.00  0.00    -0.205 F 
ENDBRANCH   7  15
ENDBRANCH   1   9
BRANCH   6  20
ATOM     20  N   UNL     1       5.147   5.475   0.470  0.00  0.00    +0.058 N 
ATOM     21  O   UNL     1       4.966   6.622   0.131  0.00  0.00    -0.126 OA
ATOM     22  O   UNL     1       4.829   4.570  -0.265  0.00  0.00    -0.126 OA
ENDBRANCH   6  20
BRANCH   4  23
ATOM     23  S   UNL     1       7.157   7.262   4.924  0.00  0.00    +0.056 S 
ATOM     24  O   UNL     1       6.354   8.377   4.562  0.00  0.00    -0.153 OA
ATOM     25  O   UNL     1       7.175   6.732   6.242  0.00  0.00    -0.153 OA
BRANCH  23  26
ATOM     26  N   UNL     1       8.721   7.665   4.555  0.00  0.00    -0.204 NA
ATOM     27  H   UNL     1       9.193   7.187   3.856  0.00  0.00    +0.144 HD
ATOM     28  H   UNL     1       9.164   8.380   5.038  0.00  0.00    +0.144 HD
ENDBRANCH  23  26
ENDBRANCH   4  23
TORSDOF 5
