REMARK  Name = ZINC40471559
REMARK  3 active torsions:
REMARK  status: ('A' for Active; 'I' for Inactive)
REMARK    1  A    between atoms: C_3  and  C_18
REMARK    2  A    between atoms: C_4  and  N_8
REMARK    3  A    between atoms: C_9  and  C_11
REMARK                            x       y       z     vdW  Elec       q    Type
REMARK                         _______ _______ _______ _____ _____    ______ ____
ROOT
ATOM      1  N   UNL     1       3.564  -0.665  -0.025  0.00  0.00    -0.285 N 
ATOM      2  C   UNL     1       3.551  -2.009  -0.118  0.00  0.00    +0.218 C 
ATOM      3  O   UNL     1       2.503  -2.596  -0.283  0.00  0.00    -0.275 OA
ATOM      4  H   UNL     1       4.408  -0.190   0.030  0.00  0.00    +0.155 HD
ENDROOT
BRANCH   2   5
ATOM      5  C   UNL     1       4.840  -2.783  -0.017  0.00  0.00    +0.058 C 
ATOM      6  C   UNL     1       5.493  -2.515   1.342  0.00  0.00    +0.009 C 
ATOM      7  C   UNL     1       6.761  -3.365   1.466  0.00  0.00    -0.018 C 
ATOM      8  C   UNL     1       6.399  -4.840   1.277  0.00  0.00    -0.083 C 
ATOM      9  N   UNL     1       5.803  -5.036  -0.050  0.00  0.00    +0.380 N 
ATOM     10  C   UNL     1       4.550  -4.280  -0.151  0.00  0.00    -0.070 C 
ATOM     11  H   UNL     1       6.447  -4.714  -0.757  0.00  0.00    -0.086 HD
ATOM     12  H   UNL     1       5.615  -6.018  -0.191  0.00  0.00    -0.086 HD
ENDBRANCH   2   5
BRANCH   1  16
ATOM     13  C   UNL     1      -0.029   1.455   0.026  0.00  0.00    +0.021 A 
ATOM     14  C   UNL     1       1.070   2.004  -0.597  0.00  0.00    +0.018 A 
ATOM     15  C   UNL     1       2.281   1.304  -0.621  0.00  0.00    +0.084 A 
ATOM     16  C   UNL     1       2.365   0.043  -0.007  0.00  0.00    +0.049 A 
ATOM     17  C   UNL     1       1.248  -0.494   0.615  0.00  0.00    +0.044 A 
ATOM     18  C   UNL     1       0.058   0.209   0.631  0.00  0.00    +0.043 A 
ATOM     19 CL   UNL     1      -1.336  -0.469   1.412  0.00  0.00    -0.083 Cl
BRANCH  15  20
ATOM     20  C   UNL     1       3.458   1.884  -1.285  0.00  0.00    +0.388 C 
ATOM     21  O   UNL     1       3.357   2.939  -1.896  0.00  0.00    -0.241 OA
ATOM     22  O   UNL     1       4.537   1.311  -1.226  0.00  0.00    -0.241 OA
ENDBRANCH  15  20
ENDBRANCH   1  16
TORSDOF 3
