REMARK  Name = ZINC50893043
REMARK  8 active torsions:
REMARK  status: ('A' for Active; 'I' for Inactive)
REMARK    1  A    between atoms: C_1  and  C_2
REMARK    2  A    between atoms: C_2  and  C_3
REMARK    3  A    between atoms: C_3  and  C_4
REMARK    4  A    between atoms: N_7  and  C_10
REMARK    5  A    between atoms: C_10  and  C_12
REMARK    6  A    between atoms: C_10  and  C_18
REMARK    7  A    between atoms: C_18  and  C_20
REMARK    8  A    between atoms: C_18  and  N_21
REMARK                            x       y       z     vdW  Elec       q    Type
REMARK                         _______ _______ _______ _____ _____    ______ ____
ROOT
ATOM      1  C   UNL     1      -2.332  -6.006  -1.371  0.00  0.00    +0.079 C 
ENDROOT
BRANCH   1   5
ATOM      2  C   UNL     1      -1.413  -2.063   0.004  0.00  0.00    -0.009 C 
ATOM      3  C   UNL     1      -0.816  -2.560  -1.315  0.00  0.00    +0.019 C 
ATOM      4  C   UNL     1      -0.854  -4.090  -1.343  0.00  0.00    +0.085 C 
ATOM      5  N   UNL     1      -2.242  -4.549  -1.210  0.00  0.00    -0.296 NA
ATOM      6  C   UNL     1      -2.821  -4.124   0.071  0.00  0.00    +0.085 C 
ATOM      7  C   UNL     1      -2.842  -2.595   0.141  0.00  0.00    +0.019 C 
BRANCH   2   8
ATOM      8  C   UNL     1      -1.433  -0.534   0.013  0.00  0.00    +0.003 C 
BRANCH   8  10
ATOM      9  C   UNL     1      -0.019   1.526   0.010  0.00  0.00    +0.004 C 
ATOM     10  C   UNL     1       0.002  -0.004   0.002  0.00  0.00    -0.003 C 
ENDBRANCH   8  10
ENDBRANCH   2   8
ENDBRANCH   1   5
BRANCH   1  11
ATOM     11  C   UNL     1      -1.825  -6.393  -2.737  0.00  0.00    +0.006 A 
ATOM     12  C   UNL     1      -1.065  -7.457  -3.095  0.00  0.00    +0.014 A 
ATOM     13  C   UNL     1      -0.714  -7.613  -4.423  0.00  0.00    +0.023 A 
ATOM     14  C   UNL     1      -1.140  -6.697  -5.327  0.00  0.00    +0.055 A 
ATOM     15  S   UNL     1      -2.073  -5.572  -4.303  0.00  0.00    -0.085 S 
ATOM     16 BR   UNL     1      -0.831  -6.632  -7.192  0.00  0.00    -0.043 Br
ENDBRANCH   1  11
BRANCH   1  17
ATOM     17  C   UNL     1      -3.791  -6.446  -1.227  0.00  0.00    -0.056 C 
ATOM     18  C   UNL     1      -4.659  -5.667  -2.217  0.00  0.00    -0.012 C 
BRANCH  17  19
ATOM     19  N   UNL     1      -3.899  -7.884  -1.506  0.00  0.00    +0.381 N 
ATOM     20  H   UNL     1      -3.584  -8.068  -2.447  0.00  0.00    -0.090 HD
ATOM     21  H   UNL     1      -3.326  -8.397  -0.853  0.00  0.00    -0.090 HD
ATOM     22  H   UNL     1      -4.860  -8.174  -1.410  0.00  0.00    -0.090 HD
ENDBRANCH  17  19
ENDBRANCH   1  17
TORSDOF 6
