REMARK  Name = ZINC08601363
REMARK  12 active torsions:
REMARK  status: ('A' for Active; 'I' for Inactive)
REMARK    1  A    between atoms: C_1  and  C_2
REMARK    2  A    between atoms: C_4  and  S_10
REMARK    3  A    between atoms: C_7  and  O_8
REMARK    4  A    between atoms: O_8  and  C_9
REMARK    5  A    between atoms: S_10  and  N_13
REMARK    6  A    between atoms: N_13  and  C_14
REMARK    7  A    between atoms: C_14  and  C_15
REMARK    8  A    between atoms: C_15  and  C_17
REMARK    9  A    between atoms: C_15  and  N_22
REMARK   10  A    between atoms: N_25  and  C_28
REMARK   11  A    between atoms: C_31  and  O_34
REMARK   12  A    between atoms: O_34  and  C_35
REMARK                            x       y       z     vdW  Elec       q    Type
REMARK                         _______ _______ _______ _____ _____    ______ ____
ROOT
ATOM      1  C   UNL     1       3.685  -4.231  -3.211  0.00  0.00    +0.015 C 
ENDROOT
BRANCH   1   2
ATOM      2  N   UNL     1       4.309  -2.953  -3.579  0.00  0.00    +0.389 N 
ATOM      3  C   UNL     1       5.417  -3.203  -4.510  0.00  0.00    -0.059 C 
ATOM      4  C   UNL     1       6.141  -1.885  -4.806  0.00  0.00    +0.086 C 
ATOM      5  N   UNL     1       5.152  -0.908  -5.287  0.00  0.00    -0.333 N 
ATOM      6  C   UNL     1       3.927  -0.714  -4.496  0.00  0.00    +0.086 C 
ATOM      7  C   UNL     1       3.308  -2.087  -4.215  0.00  0.00    -0.059 C 
ATOM      8  H   UNL     1       4.665  -2.502  -2.750  0.00  0.00    -0.081 HD
BRANCH   5   9
ATOM      9  C   UNL     1       5.370  -0.184  -6.465  0.00  0.00    +0.030 A 
ATOM     10  C   UNL     1       4.372   0.641  -6.968  0.00  0.00    +0.027 A 
ATOM     11  C   UNL     1       4.589   1.355  -8.130  0.00  0.00    +0.047 A 
ATOM     12  C   UNL     1       5.802   1.250  -8.794  0.00  0.00    +0.120 A 
ATOM     13  C   UNL     1       6.799   0.426  -8.292  0.00  0.00    +0.047 A 
ATOM     14  C   UNL     1       6.586  -0.285  -7.127  0.00  0.00    +0.027 A 
BRANCH  12  15
ATOM     15  O   UNL     1       6.014   1.954  -9.938  0.00  0.00    -0.495 OA
ATOM     16  C   UNL     1       7.286   1.797 -10.570  0.00  0.00    +0.277 C 
ENDBRANCH  12  15
ENDBRANCH   5   9
ENDBRANCH   1   2
BRANCH   1  17
ATOM     17  C   UNL     1       4.688  -5.088  -2.482  0.00  0.00    +0.093 A 
ATOM     18  C   UNL     1       4.848  -6.415  -2.637  0.00  0.00    +0.043 A 
ATOM     19  C   UNL     1       5.891  -6.806  -1.766  0.00  0.00    +0.041 A 
ATOM     20  C   UNL     1       6.306  -5.694  -1.131  0.00  0.00    +0.195 A 
ATOM     21  O   UNL     1       5.578  -4.656  -1.574  0.00  0.00    -0.469 OA
ENDBRANCH   1  17
BRANCH   1  22
ATOM     22  C   UNL     1       2.483  -3.968  -2.301  0.00  0.00    +0.098 C 
BRANCH  22  23
ATOM     23  N   UNL     1       2.906  -3.156  -1.157  0.00  0.00    -0.191 NA
ATOM     24  H   UNL     1       3.848  -3.078  -0.939  0.00  0.00    +0.148 HD
BRANCH  23  25
ATOM     25  S   UNL     1       1.775  -2.373  -0.234  0.00  0.00    +0.058 S 
ATOM     26  O   UNL     1       0.919  -1.688  -1.138  0.00  0.00    -0.153 OA
ATOM     27  O   UNL     1       2.486  -1.704   0.798  0.00  0.00    -0.153 OA
BRANCH  25  31
ATOM     28  C   UNL     1       0.799  -5.606   3.753  0.00  0.00    +0.047 C 
ATOM     29  C   UNL     1       0.396  -5.071   2.404  0.00  0.00    -0.007 A 
ATOM     30  C   UNL     1       1.164  -4.102   1.787  0.00  0.00    +0.035 A 
ATOM     31  C   UNL     1       0.794  -3.610   0.549  0.00  0.00    +0.106 A 
ATOM     32  C   UNL     1      -0.344  -4.086  -0.075  0.00  0.00    +0.032 A 
ATOM     33  C   UNL     1      -1.115  -5.055   0.537  0.00  0.00    +0.048 A 
ATOM     34  C   UNL     1      -0.743  -5.554   1.777  0.00  0.00    +0.123 A 
BRANCH  34  35
ATOM     35  O   UNL     1      -1.496  -6.512   2.379  0.00  0.00    -0.495 OA
ATOM     36  C   UNL     1      -2.656  -6.962   1.676  0.00  0.00    +0.277 C 
ENDBRANCH  34  35
ENDBRANCH  25  31
ENDBRANCH  23  25
ENDBRANCH  22  23
ENDBRANCH   1  22
TORSDOF 9
