REMARK  Name = ZINC35558531
REMARK  13 active torsions:
REMARK  status: ('A' for Active; 'I' for Inactive)
REMARK    1  A    between atoms: C_1  and  C_2
REMARK    2  A    between atoms: N_6  and  C_23
REMARK    3  A    between atoms: C_10  and  N_15
REMARK    4  A    between atoms: C_16  and  C_18
REMARK    5  A    between atoms: C_18  and  C_19
REMARK    6  A    between atoms: C_19  and  C_20
REMARK    7  A    between atoms: C_19  and  C_21
REMARK    8  A    between atoms: C_19  and  C_22
REMARK    9  A    between atoms: C_23  and  C_24
REMARK   10  A    between atoms: C_27  and  O_32
REMARK   11  A    between atoms: C_29  and  O_30
REMARK   12  A    between atoms: O_30  and  C_31
REMARK   13  A    between atoms: O_32  and  C_33
REMARK                            x       y       z     vdW  Elec       q    Type
REMARK                         _______ _______ _______ _____ _____    ______ ____
ROOT
ATOM      1  C   UNL     1      -0.002   1.519  -0.019  0.00  0.00    +0.062 C 
ATOM      2  C   UNL     1      -0.054  -0.009   0.033  0.00  0.00    +0.256 C 
ATOM      3  C   UNL     1      -1.474  -0.449   0.215  0.00  0.00    +0.257 C 
ATOM      4  O   UNL     1      -2.285   0.424  -0.008  0.00  0.00    -0.272 OA
ATOM      5  N   UNL     1      -2.000  -1.555   0.557  0.00  0.00    -0.290 N 
ATOM      6  C   UNL     1      -1.470  -2.747   1.129  0.00  0.00    +0.147 C 
ATOM      7  C   UNL     1      -0.018  -2.795   1.494  0.00  0.00    +0.013 A 
ATOM      8  C   UNL     1       0.380  -4.049   1.983  0.00  0.00    +0.032 A 
ATOM      9  C   UNL     1       1.693  -4.305   2.321  0.00  0.00    +0.034 A 
ATOM     10  C   UNL     1       2.635  -3.296   2.161  0.00  0.00    +0.027 A 
ATOM     11  C   UNL     1       2.233  -2.070   1.703  0.00  0.00    +0.048 A 
ATOM     12  C   UNL     1       0.879  -1.796   1.390  0.00  0.00    +0.126 A 
ATOM     13  O   UNL     1       0.749  -0.466   1.103  0.00  0.00    -0.480 OA
ENDROOT
BRANCH   9  14
ATOM     14  N   UNL     1       2.070  -5.560   2.817  0.00  0.00    -0.285 N 
ATOM     15  C   UNL     1       3.071  -5.658   3.714  0.00  0.00    +0.218 C 
ATOM     16  O   UNL     1       3.582  -4.654   4.164  0.00  0.00    -0.275 OA
ATOM     17  H   UNL     1       1.610  -6.359   2.515  0.00  0.00    +0.155 HD
BRANCH  15  18
ATOM     18  C   UNL     1       3.555  -7.014   4.158  0.00  0.00    +0.102 C 
BRANCH  18  19
ATOM     19  C   UNL     1       4.689  -6.844   5.171  0.00  0.00    -0.029 C 
ATOM     20  C   UNL     1       4.176  -6.063   6.384  0.00  0.00    +0.011 C 
ATOM     21  C   UNL     1       5.181  -8.221   5.622  0.00  0.00    +0.011 C 
ATOM     22  C   UNL     1       5.843  -6.077   4.522  0.00  0.00    +0.011 C 
ENDBRANCH  18  19
ENDBRANCH  15  18
ENDBRANCH   9  14
BRANCH   5  23
ATOM     23  C   UNL     1      -3.443  -1.615   0.312  0.00  0.00    +0.147 C 
BRANCH  23  24
ATOM     24  C   UNL     1      -3.696  -2.153  -1.073  0.00  0.00    +0.012 A 
ATOM     25  C   UNL     1      -3.984  -1.284  -2.108  0.00  0.00    +0.012 A 
ATOM     26  C   UNL     1      -4.217  -1.774  -3.379  0.00  0.00    +0.046 A 
ATOM     27  C   UNL     1      -4.161  -3.140  -3.619  0.00  0.00    +0.124 A 
ATOM     28  C   UNL     1      -3.872  -4.013  -2.582  0.00  0.00    +0.091 A 
ATOM     29  C   UNL     1      -3.634  -3.519  -1.308  0.00  0.00    +0.128 A 
BRANCH  29  30
ATOM     30  O   UNL     1      -3.344  -4.372  -0.291  0.00  0.00    -0.495 OA
ATOM     31  C   UNL     1      -3.296  -5.765  -0.606  0.00  0.00    +0.277 C 
ENDBRANCH  29  30
BRANCH  27  32
ATOM     32  O   UNL     1      -4.390  -3.621  -4.869  0.00  0.00    -0.495 OA
ATOM     33  C   UNL     1      -4.682  -2.664  -5.889  0.00  0.00    +0.277 C 
ENDBRANCH  27  32
ENDBRANCH  23  24
ENDBRANCH   5  23
TORSDOF 7
