REMARK  Name = ZINC09716420
REMARK  6 active torsions:
REMARK  status: ('A' for Active; 'I' for Inactive)
REMARK    1  A    between atoms: C_4  and  C_7
REMARK    2  A    between atoms: C_7  and  C_9
REMARK    3  A    between atoms: C_20  and  N_35
REMARK    4  A    between atoms: C_21  and  C_33
REMARK    5  A    between atoms: C_22  and  C_24
REMARK    6  A    between atoms: C_27  and  N_30
REMARK                            x       y       z     vdW  Elec       q    Type
REMARK                         _______ _______ _______ _____ _____    ______ ____
ROOT
ATOM      1  C   UNL     1       2.386   5.444   0.008  0.00  0.00    +0.139 C 
ATOM      2  C   UNL     1       2.249   5.956  -1.407  0.00  0.00    +0.128 A 
ATOM      3  N   UNL     1       1.166   6.232  -2.063  0.00  0.00    -0.231 NA
ATOM      4  C   UNL     1       1.484   6.649  -3.305  0.00  0.00    +0.090 A 
ATOM      5  C   UNL     1       0.693   7.055  -4.386  0.00  0.00    +0.030 A 
ATOM      6  C   UNL     1       1.354   7.427  -5.542  0.00  0.00    +0.002 A 
ATOM      7  C   UNL     1       2.735   7.403  -5.639  0.00  0.00    +0.002 A 
ATOM      8  C   UNL     1       3.538   7.005  -4.583  0.00  0.00    +0.028 A 
ATOM      9  C   UNL     1       2.898   6.627  -3.408  0.00  0.00    +0.075 A 
ATOM     10  N   UNL     1       3.353   6.197  -2.198  0.00  0.00    -0.283 N 
ATOM     11  C   UNL     1       4.641   6.010  -1.727  0.00  0.00    +0.116 C 
ATOM     12  C   UNL     1       4.825   5.861  -0.387  0.00  0.00    +0.076 C 
ATOM     13  C   UNL     1       3.692   5.979   0.599  0.00  0.00    +0.081 C 
ENDROOT
BRANCH  13  14
ATOM     14  C   UNL     1       3.508   7.428   0.969  0.00  0.00    -0.038 A 
ATOM     15  C   UNL     1       3.178   8.353  -0.004  0.00  0.00    +0.006 A 
ATOM     16  C   UNL     1       3.004   9.681   0.336  0.00  0.00    +0.033 A 
ATOM     17  C   UNL     1       3.172  10.087   1.646  0.00  0.00    +0.126 A 
ATOM     18  C   UNL     1       3.509   9.163   2.618  0.00  0.00    +0.033 A 
ATOM     19  C   UNL     1       3.676   7.834   2.279  0.00  0.00    +0.006 A 
BRANCH  17  20
ATOM     20  N   UNL     1       2.993  11.511   2.009  0.00  0.00    +0.056 N 
ATOM     21  O   UNL     1       3.141  11.868   3.164  0.00  0.00    -0.126 OA
ATOM     22  O   UNL     1       2.696  12.325   1.153  0.00  0.00    -0.126 OA
ENDBRANCH  17  20
ENDBRANCH  13  14
BRANCH  11  23
ATOM     23  N   UNL     1       5.708   5.976  -2.591  0.00  0.00    -0.343 N 
ATOM     24  H   UNL     1       5.563   6.083  -3.545  0.00  0.00    +0.144 HD
ATOM     25  H   UNL     1       6.606   5.844  -2.249  0.00  0.00    +0.144 HD
ENDBRANCH  11  23
BRANCH   1  26
ATOM     26  C   UNL     1       2.413   3.937   0.000  0.00  0.00    +0.174 C 
ATOM     27  O   UNL     1       3.474   3.350  -0.012  0.00  0.00    -0.291 OA
BRANCH  26  31
ATOM     28  C   UNL     1      -1.222   1.750   0.017  0.00  0.00    +0.000 A 
ATOM     29  C   UNL     1      -0.013   1.076   0.008  0.00  0.00    +0.001 A 
ATOM     30  C   UNL     1       1.173   1.780   0.000  0.00  0.00    +0.011 A 
ATOM     31  C   UNL     1       1.152   3.178   0.008  0.00  0.00    +0.018 A 
ATOM     32  C   UNL     1      -0.074   3.852   0.022  0.00  0.00    +0.011 A 
ATOM     33  C   UNL     1      -1.251   3.133   0.030  0.00  0.00    +0.001 A 
ENDBRANCH  26  31
ENDBRANCH   1  26
BRANCH  12  34
ATOM     34  C   UNL     1       6.142   5.583   0.104  0.00  0.00    +0.099 C 
ATOM     35  N   UNL     1       7.186   5.362   0.494  0.00  0.00    -0.191 NA
ENDBRANCH  12  34
TORSDOF 6
