REMARK  Name = ZINC12498160
REMARK  11 active torsions:
REMARK  status: ('A' for Active; 'I' for Inactive)
REMARK    1  A    between atoms: C_1  and  C_2
REMARK    2  A    between atoms: C_2  and  C_3
REMARK    3  A    between atoms: C_3  and  C_4
REMARK    4  A    between atoms: C_4  and  C_32
REMARK    5  A    between atoms: C_9  and  C_11
REMARK    6  A    between atoms: N_20  and  C_23
REMARK    7  A    between atoms: C_27  and  C_29
REMARK    8  A    between atoms: C_29  and  C_31
REMARK    9  A    between atoms: C_32  and  O_34
REMARK   10  A    between atoms: O_34  and  C_35
REMARK   11  A    between atoms: C_35  and  C_36
REMARK                            x       y       z     vdW  Elec       q    Type
REMARK                         _______ _______ _______ _____ _____    ______ ____
ROOT
ATOM      1  C   UNL     1      -0.887   1.682  -3.629  0.00  0.00    +0.044 C 
ATOM      2  C   UNL     1       0.071   1.729  -4.750  0.00  0.00    +0.086 C 
ATOM      3  C   UNL     1      -0.715   2.626  -5.790  0.00  0.00    +0.077 C 
ATOM      4  C   UNL     1      -1.069   3.769  -4.842  0.00  0.00    -0.024 C 
ATOM      5  C   UNL     1       0.429   2.781  -6.755  0.00  0.00    +0.229 C 
ATOM      6  O   UNL     1       0.702   3.759  -7.418  0.00  0.00    -0.275 OA
ATOM      7  N   UNL     1       1.094   1.588  -6.729  0.00  0.00    -0.210 N 
ATOM      8  C   UNL     1       0.767   0.824  -5.636  0.00  0.00    +0.229 C 
ATOM      9  O   UNL     1       1.008  -0.351  -5.455  0.00  0.00    -0.275 OA
ATOM     10  N   UNL     1      -1.304   3.116  -3.527  0.00  0.00    +0.395 N 
ATOM     11  H   UNL     1      -0.750   3.587  -2.803  0.00  0.00    -0.083 HD
ATOM     12  H   UNL     1      -2.300   3.170  -3.287  0.00  0.00    -0.083 HD
ENDROOT
BRANCH   4  13
ATOM     13  C   UNL     1       0.076   4.745  -4.750  0.00  0.00    -0.025 A 
ATOM     14  C   UNL     1       0.995   4.637  -3.723  0.00  0.00    +0.005 A 
ATOM     15  C   UNL     1       2.049   5.528  -3.642  0.00  0.00    +0.000 A 
ATOM     16  C   UNL     1       2.178   6.535  -4.579  0.00  0.00    +0.003 A 
ATOM     17  C   UNL     1       1.256   6.649  -5.603  0.00  0.00    +0.038 A 
ATOM     18  C   UNL     1       0.204   5.754  -5.689  0.00  0.00    +0.125 A 
ATOM     19  F   UNL     1      -0.697   5.864  -6.690  0.00  0.00    -0.205 F 
ENDBRANCH   4  13
BRANCH   7  20
ATOM     20  C   UNL     1       2.013   1.188  -7.710  0.00  0.00    +0.045 A 
ATOM     21  C   UNL     1       2.647  -0.044  -7.606  0.00  0.00    +0.024 A 
ATOM     22  C   UNL     1       3.553  -0.445  -8.571  0.00  0.00    +0.003 A 
ATOM     23  C   UNL     1       3.834   0.375  -9.644  0.00  0.00    +0.011 A 
ATOM     24  C   UNL     1       3.201   1.617  -9.758  0.00  0.00    +0.019 A 
ATOM     25  C   UNL     1       2.282   2.018  -8.785  0.00  0.00    +0.035 A 
BRANCH  24  26
ATOM     26  C   UNL     1       3.498   2.495 -10.902  0.00  0.00    +0.160 C 
ATOM     27  O   UNL     1       2.948   3.571 -10.998  0.00  0.00    -0.292 OA
ATOM     28  C   UNL     1       4.485   2.056 -11.952  0.00  0.00    +0.091 C 
ENDBRANCH  24  26
ENDBRANCH   7  20
BRANCH   1  29
ATOM     29  C   UNL     1      -0.211   1.220  -2.363  0.00  0.00    +0.297 C 
ATOM     30  O   UNL     1       0.783   0.536  -2.424  0.00  0.00    -0.252 OA
BRANCH  29  31
ATOM     31  O   UNL     1      -0.715   1.567  -1.168  0.00  0.00    -0.466 OA
BRANCH  31  32
ATOM     32  C   UNL     1      -0.013   1.086   0.008  0.00  0.00    +0.228 C 
ATOM     33  C   UNL     1      -0.729   1.579   1.267  0.00  0.00    +0.048 C 
ENDBRANCH  31  32
ENDBRANCH  29  31
ENDBRANCH   1  29
BRANCH   1  34
ATOM     34  C   UNL     1      -2.080   0.786  -3.967  0.00  0.00    -0.001 C 
BRANCH  34  36
ATOM     35  C   UNL     1      -4.335   0.021  -3.210  0.00  0.00    +0.004 C 
ATOM     36  C   UNL     1      -3.142   0.917  -2.872  0.00  0.00    -0.004 C 
ENDBRANCH  34  36
ENDBRANCH   1  34
TORSDOF 8
