REMARK  Name = ZINC13805398
REMARK  5 active torsions:
REMARK  status: ('A' for Active; 'I' for Inactive)
REMARK    1  A    between atoms: C_3  and  C_6
REMARK    2  A    between atoms: C_7  and  C_17
REMARK    3  A    between atoms: N_19  and  N_20
REMARK    4  A    between atoms: C_21  and  C_22
REMARK    5  A    between atoms: C_25  and  C_28
REMARK                            x       y       z     vdW  Elec       q    Type
REMARK                         _______ _______ _______ _____ _____    ______ ____
ROOT
ATOM      1  C   UNL     1       4.305   1.923  -0.034  0.00  0.00    +0.115 A 
ATOM      2  C   UNL     1       5.615   1.442  -0.044  0.00  0.00    +0.177 A 
ATOM      3  N   UNL     1       5.564   0.099  -0.051  0.00  0.00    -0.124 NA
ATOM      4  N   UNL     1       4.341  -0.298  -0.042  0.00  0.00    -0.058 NA
ATOM      5  N   UNL     1       3.496   0.819  -0.027  0.00  0.00    -0.187 N 
ATOM      6  C   UNL     1       2.098   0.808  -0.014  0.00  0.00    +0.241 A 
ATOM      7  C   UNL     1       1.249  -0.387  -0.012  0.00  0.00    +0.206 A 
ATOM      8  N   UNL     1       0.002  -0.004   0.002  0.00  0.00    -0.032 NA
ATOM      9  O   UNL     1      -0.017   1.413   0.010  0.00  0.00    -0.239 OA
ATOM     10  N   UNL     1       1.327   1.859  -0.001  0.00  0.00    -0.027 NA
ATOM     11  N   UNL     1       1.697  -1.703  -0.023  0.00  0.00    -0.337 N 
ATOM     12  H   UNL     1       1.058  -2.433  -0.020  0.00  0.00    +0.144 HD
ATOM     13  H   UNL     1       2.648  -1.892  -0.032  0.00  0.00    +0.144 HD
ENDROOT
BRANCH   1  16
ATOM     14  C   UNL     1       3.800   5.624   0.553  0.00  0.00    +0.008 A 
ATOM     15  C   UNL     1       4.360   4.382   0.731  0.00  0.00    +0.018 A 
ATOM     16  C   UNL     1       3.881   3.329  -0.029  0.00  0.00    +0.040 A 
ATOM     17  S   UNL     1       2.608   4.124  -0.996  0.00  0.00    -0.095 S 
ATOM     18  C   UNL     1       2.793   5.777  -0.348  0.00  0.00    +0.046 A 
ENDBRANCH   1  16
BRANCH   2  19
ATOM     19  C   UNL     1       6.835   2.260  -0.052  0.00  0.00    +0.286 C 
ATOM     20  O   UNL     1       6.754   3.474  -0.044  0.00  0.00    -0.267 OA
ATOM     21  N   UNL     1       8.044   1.665  -0.068  0.00  0.00    -0.202 N 
ATOM     22  H   UNL     1       8.109   0.697  -0.074  0.00  0.00    +0.178 HD
BRANCH  21  23
ATOM     23  N   UNL     1       9.208   2.445  -0.075  0.00  0.00    -0.187 NA
ATOM     24  C   UNL     1      10.373   1.873  -0.090  0.00  0.00    +0.138 C 
BRANCH  24  25
ATOM     25  C   UNL     1      11.598   2.694  -0.097  0.00  0.00    -0.005 A 
ATOM     26  C   UNL     1      11.509   4.088  -0.094  0.00  0.00    +0.010 A 
ATOM     27  C   UNL     1      12.659   4.849  -0.096  0.00  0.00    +0.013 A 
ATOM     28  C   UNL     1      13.899   4.236  -0.112  0.00  0.00    +0.055 A 
ATOM     29  C   UNL     1      13.995   2.855  -0.120  0.00  0.00    +0.013 A 
ATOM     30  C   UNL     1      12.853   2.081  -0.114  0.00  0.00    +0.010 A 
BRANCH  28  31
ATOM     31  C   UNL     1      15.151   5.074  -0.120  0.00  0.00    +0.417 C 
ATOM     32  F   UNL     1      15.524   5.341  -1.441  0.00  0.00    -0.166 F 
ATOM     33  F   UNL     1      14.909   6.279   0.549  0.00  0.00    -0.166 F 
ATOM     34  F   UNL     1      16.180   4.381   0.525  0.00  0.00    -0.166 F 
ENDBRANCH  28  31
ENDBRANCH  24  25
ENDBRANCH  21  23
ENDBRANCH   2  19
TORSDOF 5
