REMARK  Name = ZINC04731443
REMARK  5 active torsions:
REMARK  status: ('A' for Active; 'I' for Inactive)
REMARK    1  A    between atoms: C_1  and  C_2
REMARK    2  A    between atoms: C_3  and  C_23
REMARK    3  A    between atoms: C_4  and  C_16
REMARK    4  A    between atoms: C_23  and  O_25
REMARK    5  A    between atoms: O_25  and  C_26
REMARK                            x       y       z     vdW  Elec       q    Type
REMARK                         _______ _______ _______ _____ _____    ______ ____
ROOT
ATOM      1  C   UNL     1      -5.518  -0.599   0.649  0.00  0.00    +0.061 C 
ATOM      2  C   UNL     1      -4.046  -0.545   0.327  0.00  0.00    +0.020 C 
ATOM      3  C   UNL     1      -3.345  -1.688   0.319  0.00  0.00    +0.080 C 
ATOM      4  C   UNL     1      -1.876  -1.751   0.000  0.00  0.00    +0.161 C 
ATOM      5  N   UNL     1      -1.316  -0.400   0.011  0.00  0.00    -0.300 N 
ATOM      6  C   UNL     1       0.002  -0.004   0.002  0.00  0.00    +0.071 A 
ATOM      7  C   UNL     1       1.216  -0.676  -0.012  0.00  0.00    +0.028 A 
ATOM      8  C   UNL     1       2.397   0.035  -0.019  0.00  0.00    +0.002 A 
ATOM      9  C   UNL     1       2.383   1.423  -0.012  0.00  0.00    +0.002 A 
ATOM     10  C   UNL     1       1.189   2.108   0.002  0.00  0.00    +0.030 A 
ATOM     11  C   UNL     1      -0.017   1.403   0.010  0.00  0.00    +0.091 A 
ATOM     12  N   UNL     1      -1.322   1.789   0.030  0.00  0.00    -0.214 NA
ATOM     13  C   UNL     1      -2.087   0.737   0.030  0.00  0.00    +0.202 A 
ATOM     14  N   UNL     1      -3.474   0.671   0.054  0.00  0.00    -0.288 N 
ATOM     15  H   UNL     1      -4.018   1.456  -0.117  0.00  0.00    +0.155 HD
ENDROOT
BRANCH   4  16
ATOM     16  C   UNL     1      -1.683  -2.363  -1.363  0.00  0.00    -0.002 A 
ATOM     17  C   UNL     1      -2.241  -1.762  -2.476  0.00  0.00    +0.007 A 
ATOM     18  C   UNL     1      -2.064  -2.323  -3.727  0.00  0.00    +0.000 A 
ATOM     19  C   UNL     1      -1.330  -3.486  -3.866  0.00  0.00    +0.001 A 
ATOM     20  C   UNL     1      -0.772  -4.089  -2.754  0.00  0.00    +0.020 A 
ATOM     21  C   UNL     1      -0.944  -3.524  -1.502  0.00  0.00    +0.046 A 
ATOM     22 CL   UNL     1      -0.237  -4.276  -0.106  0.00  0.00    -0.083 Cl
ENDBRANCH   4  16
BRANCH   3  23
ATOM     23  C   UNL     1      -4.019  -2.892   0.625  0.00  0.00    +0.339 C 
ATOM     24  O   UNL     1      -5.207  -2.875   0.887  0.00  0.00    -0.245 OA
BRANCH  23  25
ATOM     25  O   UNL     1      -3.344  -4.061   0.626  0.00  0.00    -0.465 OA
ATOM     26  C   UNL     1      -4.088  -5.239   0.944  0.00  0.00    +0.280 C 
ENDBRANCH  23  25
ENDBRANCH   3  23
TORSDOF 3
