REMARK  Name = ZINC65460696
REMARK  4 active torsions:
REMARK  status: ('A' for Active; 'I' for Inactive)
REMARK    1  A    between atoms: C_1  and  C_2
REMARK    2  A    between atoms: N_6  and  C_7
REMARK    3  A    between atoms: C_12  and  C_13
REMARK    4  A    between atoms: C_13  and  N_14
REMARK                            x       y       z     vdW  Elec       q    Type
REMARK                         _______ _______ _______ _____ _____    ______ ____
ROOT
ATOM      1  N   UNL     1      -3.094  -0.619   1.998  0.00  0.00    -0.294 N 
ATOM      2  C   UNL     1      -2.860  -1.519   1.009  0.00  0.00    +0.203 A 
ATOM      3  N   UNL     1      -3.582  -2.602   0.895  0.00  0.00    -0.230 NA
ATOM      4  C   UNL     1      -4.572  -2.856   1.746  0.00  0.00    +0.116 A 
ATOM      5  C   UNL     1      -4.889  -1.985   2.801  0.00  0.00    +0.076 A 
ATOM      6  C   UNL     1      -4.074  -0.810   2.901  0.00  0.00    +0.263 A 
ATOM      7  O   UNL     1      -4.267   0.005   3.786  0.00  0.00    -0.267 OA
ATOM      8  C   UNL     1      -6.000  -2.396   3.655  0.00  0.00    -0.020 A 
ATOM      9  C   UNL     1      -6.610  -3.563   3.351  0.00  0.00    +0.010 A 
ATOM     10  S   UNL     1      -5.749  -4.173   1.928  0.00  0.00    -0.072 S 
ATOM     11  C   UNL     1      -7.761  -4.184   4.079  0.00  0.00    +0.124 C 
ATOM     12  N   UNL     1      -7.902  -3.510   5.383  0.00  0.00    -0.311 NA
ATOM     13  C   UNL     1      -7.892  -2.050   5.215  0.00  0.00    +0.086 C 
ATOM     14  C   UNL     1      -6.485  -1.573   4.845  0.00  0.00    +0.052 C 
ATOM     15  H   UNL     1      -8.738  -3.813   5.859  0.00  0.00    +0.122 HD
ENDROOT
BRANCH   1  16
ATOM     16  C   UNL     1      -2.259   0.581   2.088  0.00  0.00    +0.163 C 
BRANCH  16  22
ATOM     17  C   UNL     1       0.030  -0.381   2.438  0.00  0.00    +0.053 A 
ATOM     18  C   UNL     1       1.133  -0.636   3.242  0.00  0.00    +0.026 A 
ATOM     19  C   UNL     1       1.137  -0.220   4.559  0.00  0.00    +0.002 A 
ATOM     20  C   UNL     1       0.044   0.452   5.076  0.00  0.00    +0.000 A 
ATOM     21  C   UNL     1      -1.055   0.707   4.278  0.00  0.00    +0.007 A 
ATOM     22  C   UNL     1      -1.063   0.297   2.959  0.00  0.00    -0.004 A 
BRANCH  17  28
ATOM     23  C   UNL     1      -0.018   1.503   0.010  0.00  0.00    +0.086 C 
ATOM     24  C   UNL     1       0.002  -0.004   0.002  0.00  0.00    +0.111 A 
ATOM     25  N   UNL     1       0.008  -0.760  -1.062  0.00  0.00    -0.241 NA
ATOM     26  C   UNL     1       0.027  -2.049  -0.691  0.00  0.00    +0.131 A 
ATOM     27  C   UNL     1       0.033  -2.099   0.655  0.00  0.00    +0.112 A 
ATOM     28  N   UNL     1       0.023  -0.803   1.100  0.00  0.00    -0.303 N 
ENDBRANCH  17  28
ENDBRANCH  16  22
ENDBRANCH   1  16
TORSDOF 3
