REMARK  Name = ZINC11913727
REMARK  6 active torsions:
REMARK  status: ('A' for Active; 'I' for Inactive)
REMARK    1  A    between atoms: C_1  and  C_2
REMARK    2  A    between atoms: C_2  and  C_3
REMARK    3  A    between atoms: C_9  and  C_28
REMARK    4  A    between atoms: C_10  and  C_12
REMARK    5  A    between atoms: N_14  and  C_15
REMARK    6  A    between atoms: C_17  and  C_20
REMARK                            x       y       z     vdW  Elec       q    Type
REMARK                         _______ _______ _______ _____ _____    ______ ____
ROOT
ATOM      1  C   UNL     1      -8.088   0.952   0.211  0.00  0.00    +0.286 C 
ATOM      2  O   UNL     1      -8.523   1.918  -0.388  0.00  0.00    -0.266 OA
ATOM      3  N   UNL     1      -8.919  -0.041   0.584  0.00  0.00    -0.248 N 
ATOM      4  H   UNL     1      -8.572  -0.810   1.062  0.00  0.00    +0.158 HD
ENDROOT
BRANCH   1  12
ATOM      5  C   UNL     1      -2.143   1.058   1.278  0.00  0.00    -0.047 A 
ATOM      6  C   UNL     1      -2.423  -0.163   1.876  0.00  0.00    +0.007 A 
ATOM      7  C   UNL     1      -3.708  -0.659   1.898  0.00  0.00    +0.047 A 
ATOM      8  C   UNL     1      -4.740   0.068   1.315  0.00  0.00    +0.136 A 
ATOM      9  C   UNL     1      -4.451   1.305   0.710  0.00  0.00    +0.024 A 
ATOM     10  C   UNL     1      -3.141   1.792   0.703  0.00  0.00    +0.015 A 
ATOM     11  C   UNL     1      -5.727   1.806   0.201  0.00  0.00    +0.008 A 
ATOM     12  C   UNL     1      -6.655   0.869   0.527  0.00  0.00    +0.194 A 
ATOM     13  O   UNL     1      -6.063  -0.151   1.183  0.00  0.00    -0.450 OA
ATOM     14  C   UNL     1      -5.965   3.099  -0.535  0.00  0.00    +0.048 C 
BRANCH   5  16
ATOM     15  C   UNL     1      -0.013   1.086   0.008  0.00  0.00    +0.009 C 
ATOM     16  C   UNL     1      -0.729   1.579   1.267  0.00  0.00    +0.032 C 
ENDBRANCH   5  16
ENDBRANCH   1  12
BRANCH   3  17
ATOM     17  C   UNL     1     -10.271   0.038   0.286  0.00  0.00    +0.225 A 
ATOM     18  C   UNL     1     -11.229  -0.883   0.591  0.00  0.00    +0.097 A 
ATOM     19  C   UNL     1     -12.421  -0.318   0.070  0.00  0.00    +0.115 A 
ATOM     20  N   UNL     1     -12.079   0.824  -0.476  0.00  0.00    -0.076 NA
ATOM     21  O   UNL     1     -10.893   1.034  -0.364  0.00  0.00    -0.339 OA
BRANCH  19  22
ATOM     22  C   UNL     1     -13.783  -0.905   0.127  0.00  0.00    +0.007 A 
ATOM     23  C   UNL     1     -14.861  -0.227  -0.440  0.00  0.00    +0.013 A 
ATOM     24  C   UNL     1     -16.125  -0.775  -0.386  0.00  0.00    +0.042 A 
ATOM     25  C   UNL     1     -16.327  -1.999   0.231  0.00  0.00    +0.158 A 
ATOM     26  C   UNL     1     -15.258  -2.679   0.796  0.00  0.00    +0.159 A 
ATOM     27  C   UNL     1     -13.987  -2.139   0.741  0.00  0.00    +0.051 A 
ATOM     28  F   UNL     1     -15.459  -3.872   1.397  0.00  0.00    -0.202 F 
ATOM     29  F   UNL     1     -17.567  -2.532   0.281  0.00  0.00    -0.202 F 
ENDBRANCH  19  22
ENDBRANCH   3  17
TORSDOF 4
