REMARK  Name = ZINC66672014
REMARK  11 active torsions:
REMARK  status: ('A' for Active; 'I' for Inactive)
REMARK    1  A    between atoms: C_1  and  C_2
REMARK    2  A    between atoms: C_5  and  C_7
REMARK    3  A    between atoms: N_9  and  C_10
REMARK    4  A    between atoms: C_12  and  C_19
REMARK    5  A    between atoms: N_14  and  C_15
REMARK    6  A    between atoms: C_15  and  C_16
REMARK    7  A    between atoms: C_15  and  C_17
REMARK    8  A    between atoms: C_15  and  C_18
REMARK    9  A    between atoms: C_19  and  C_20
REMARK   10  A    between atoms: C_19  and  C_21
REMARK   11  A    between atoms: C_19  and  C_22
REMARK                            x       y       z     vdW  Elec       q    Type
REMARK                         _______ _______ _______ _____ _____    ______ ____
ROOT
ATOM      1  C   UNL     1       3.857  -4.105  -0.041  0.00  0.00    +0.124 A 
ATOM      2  C   UNL     1       3.501  -5.419  -0.052  0.00  0.00    +0.069 A 
ATOM      3  C   UNL     1       4.672  -6.181  -0.061  0.00  0.00    +0.070 A 
ATOM      4  N   UNL     1       5.696  -5.366  -0.055  0.00  0.00    -0.174 NA
ATOM      5  N   UNL     1       5.214  -4.051  -0.047  0.00  0.00    -0.245 N 
ENDROOT
BRANCH   1   8
ATOM      6  C   UNL     1       1.656  -3.216  -0.025  0.00  0.00    +0.285 C 
ATOM      7  O   UNL     1       1.211  -4.349  -0.029  0.00  0.00    -0.266 OA
ATOM      8  N   UNL     1       2.989  -3.015  -0.030  0.00  0.00    -0.264 N 
ATOM      9  H   UNL     1       3.343  -2.113  -0.027  0.00  0.00    +0.157 HD
BRANCH   6  14
ATOM     10  C   UNL     1      -0.018   1.503   0.010  0.00  0.00    +0.086 C 
ATOM     11  C   UNL     1       0.002  -0.004   0.002  0.00  0.00    +0.103 A 
ATOM     12  C   UNL     1      -1.086  -0.806   0.003  0.00  0.00    +0.045 A 
ATOM     13  C   UNL     1      -0.622  -2.131  -0.007  0.00  0.00    +0.055 A 
ATOM     14  C   UNL     1       0.742  -2.070  -0.014  0.00  0.00    +0.190 A 
ATOM     15  O   UNL     1       1.101  -0.769  -0.013  0.00  0.00    -0.455 OA
ENDBRANCH   6  14
ENDBRANCH   1   8
BRANCH   5  16
ATOM     16  C   UNL     1       6.029  -2.833  -0.044  0.00  0.00    +0.057 C 
ATOM     17  C   UNL     1       5.720  -2.016   1.211  0.00  0.00    +0.036 C 
ATOM     18  C   UNL     1       7.511  -3.212  -0.054  0.00  0.00    +0.036 C 
ATOM     19  C   UNL     1       5.707  -2.001  -1.287  0.00  0.00    +0.036 C 
ENDBRANCH   5  16
BRANCH   3  20
ATOM     20  C   UNL     1       4.744  -7.686  -0.075  0.00  0.00    +0.006 C 
ATOM     21  C   UNL     1       4.394  -8.201  -1.473  0.00  0.00    +0.017 C 
ATOM     22  C   UNL     1       6.161  -8.132   0.292  0.00  0.00    +0.017 C 
ATOM     23  C   UNL     1       3.751  -8.254   0.941  0.00  0.00    +0.017 C 
ENDBRANCH   3  20
TORSDOF 4
