REMARK  Name = ZINC39711163
REMARK  10 active torsions:
REMARK  status: ('A' for Active; 'I' for Inactive)
REMARK    1  A    between atoms: C_1  and  C_2
REMARK    2  A    between atoms: C_4  and  C_42
REMARK    3  A    between atoms: C_7  and  C_14
REMARK    4  A    between atoms: C_14  and  C_16
REMARK    5  A    between atoms: C_14  and  N_27
REMARK    6  A    between atoms: N_21  and  C_22
REMARK    7  A    between atoms: N_27  and  C_28
REMARK    8  A    between atoms: N_27  and  C_36
REMARK    9  A    between atoms: C_28  and  C_29
REMARK   10  A    between atoms: C_36  and  C_37
REMARK                            x       y       z     vdW  Elec       q    Type
REMARK                         _______ _______ _______ _____ _____    ______ ____
ROOT
ATOM      1  C   UNL     1      -1.131  -6.056   1.403  0.00  0.00    -0.010 C 
ENDROOT
BRANCH   1   8
ATOM      2  C   UNL     1       5.469  -6.014  -2.155  0.00  0.00    +0.044 C 
ATOM      3  C   UNL     1       4.352  -6.099  -1.147  0.00  0.00    -0.048 A 
ATOM      4  C   UNL     1       4.374  -7.132  -0.209  0.00  0.00    +0.007 A 
ATOM      5  C   UNL     1       3.396  -7.262   0.724  0.00  0.00    -0.042 A 
ATOM      6  C   UNL     1       2.300  -6.291   0.737  0.00  0.00    -0.004 A 
ATOM      7  C   UNL     1       1.297  -6.381   1.655  0.00  0.00    -0.006 C 
ATOM      8  C   UNL     1       0.203  -5.333   1.595  0.00  0.00    +0.088 C 
ATOM      9  C   UNL     1       0.315  -4.273   0.522  0.00  0.00    +0.223 C 
ATOM     10  O   UNL     1      -0.535  -3.407   0.429  0.00  0.00    -0.275 OA
ATOM     11  N   UNL     1       1.339  -4.291  -0.314  0.00  0.00    -0.285 N 
ATOM     12  C   UNL     1       2.303  -5.211  -0.265  0.00  0.00    +0.041 A 
ATOM     13  C   UNL     1       3.366  -5.165  -1.184  0.00  0.00    +0.027 A 
ATOM     14  C   UNL     1       3.437  -8.385   1.728  0.00  0.00    +0.044 C 
ATOM     15  H   UNL     1       1.392  -3.602  -0.995  0.00  0.00    +0.155 HD
ENDBRANCH   1   8
BRANCH   1  16
ATOM     16  C   UNL     1      -1.070  -6.909   0.133  0.00  0.00    +0.183 C 
ATOM     17  N   UNL     1       0.201  -7.653   0.065  0.00  0.00    -0.229 N 
ATOM     18  N   UNL     1       0.848  -7.202  -1.092  0.00  0.00    -0.064 NA
ATOM     19  N   UNL     1       0.200  -6.350  -1.695  0.00  0.00    -0.061 NA
ATOM     20  N   UNL     1      -1.021  -6.054  -1.068  0.00  0.00    -0.213 N 
ATOM     21  H   UNL     1       0.524  -8.319   0.692  0.00  0.00    +0.172 HD
BRANCH  20  22
ATOM     22  C   UNL     1      -2.036  -5.095  -1.511  0.00  0.00    +0.096 C 
ATOM     23  C   UNL     1      -2.669  -5.570  -2.835  0.00  0.00    +0.024 C 
ATOM     24  C   UNL     1      -2.898  -4.265  -3.637  0.00  0.00    +0.002 C 
ATOM     25  C   UNL     1      -1.642  -3.427  -3.291  0.00  0.00    +0.002 C 
ATOM     26  C   UNL     1      -1.383  -3.732  -1.801  0.00  0.00    +0.024 C 
ENDBRANCH  20  22
ENDBRANCH   1  16
BRANCH   1  27
ATOM     27  N   UNL     1      -1.391  -6.921   2.561  0.00  0.00    +0.392 N 
ATOM     28  H   UNL     1      -0.672  -7.628   2.621  0.00  0.00    -0.080 HD
BRANCH  27  29
ATOM     29  C   UNL     1      -2.701  -7.567   2.406  0.00  0.00    -0.042 C 
BRANCH  29  30
ATOM     30  C   UNL     1      -3.757  -6.514   2.189  0.00  0.00    -0.064 A 
ATOM     31  C   UNL     1      -4.341  -5.888   3.274  0.00  0.00    +0.004 A 
ATOM     32  C   UNL     1      -5.310  -4.922   3.076  0.00  0.00    +0.038 A 
ATOM     33  C   UNL     1      -5.695  -4.582   1.791  0.00  0.00    +0.123 A 
ATOM     34  C   UNL     1      -5.109  -5.210   0.705  0.00  0.00    +0.038 A 
ATOM     35  C   UNL     1      -4.137  -6.172   0.905  0.00  0.00    +0.004 A 
ATOM     36  F   UNL     1      -6.642  -3.638   1.596  0.00  0.00    -0.205 F 
ENDBRANCH  29  30
ENDBRANCH  27  29
BRANCH  27  37
ATOM     37  C   UNL     1      -1.385  -6.112   3.787  0.00  0.00    -0.002 C 
BRANCH  37  38
ATOM     38  C   UNL     1      -1.524  -7.015   4.986  0.00  0.00    +0.089 A 
ATOM     39  C   UNL     1      -0.511  -7.502   5.725  0.00  0.00    +0.042 A 
ATOM     40  C   UNL     1      -1.091  -8.297   6.741  0.00  0.00    +0.041 A 
ATOM     41  C   UNL     1      -2.423  -8.248   6.561  0.00  0.00    +0.195 A 
ATOM     42  O   UNL     1      -2.680  -7.465   5.500  0.00  0.00    -0.470 OA
ENDBRANCH  37  38
ENDBRANCH  27  37
ENDBRANCH   1  27
TORSDOF 8
