REMARK  Name = ZINC13976737
REMARK  7 active torsions:
REMARK  status: ('A' for Active; 'I' for Inactive)
REMARK    1  A    between atoms: C_1  and  C_2
REMARK    2  A    between atoms: C_5  and  C_9
REMARK    3  A    between atoms: N_11  and  N_12
REMARK    4  A    between atoms: N_12  and  C_13
REMARK    5  A    between atoms: C_13  and  N_15
REMARK    6  A    between atoms: C_16  and  C_18
REMARK    7  A    between atoms: C_22  and  N_24
REMARK                            x       y       z     vdW  Elec       q    Type
REMARK                         _______ _______ _______ _____ _____    ______ ____
ROOT
ATOM      1  C   UNL     1      -6.064   3.186   0.073  0.00  0.00    +0.153 C 
ATOM      2  S   UNL     1      -7.555   4.026   0.090  0.00  0.00    -0.017 S 
ENDROOT
BRANCH   1   3
ATOM      3  N   UNL     1      -6.050   1.838   0.067  0.00  0.00    -0.263 N 
ATOM      4  C   UNL     1      -7.210   1.152   0.074  0.00  0.00    +0.250 C 
ATOM      5  O   UNL     1      -8.269   1.749   0.086  0.00  0.00    -0.270 OA
ATOM      6  H   UNL     1      -5.205   1.361   0.057  0.00  0.00    +0.157 HD
BRANCH   4   7
ATOM      7  C   UNL     1      -7.195  -0.325   0.068  0.00  0.00    +0.039 A 
ATOM      8  C   UNL     1      -5.980  -1.014   0.048  0.00  0.00    +0.014 A 
ATOM      9  C   UNL     1      -5.972  -2.392   0.048  0.00  0.00    +0.023 A 
ATOM     10  C   UNL     1      -7.166  -3.095   0.055  0.00  0.00    +0.071 A 
ATOM     11  C   UNL     1      -8.374  -2.417   0.069  0.00  0.00    +0.145 A 
ATOM     12  C   UNL     1      -8.395  -1.038   0.075  0.00  0.00    +0.047 A 
ATOM     13 CL   UNL     1      -7.148  -4.830   0.048  0.00  0.00    -0.081 Cl
BRANCH  11  14
ATOM     14  N   UNL     1      -9.646  -3.175   0.078  0.00  0.00    +0.058 N 
ATOM     15  O   UNL     1     -10.709  -2.581   0.090  0.00  0.00    -0.126 OA
ATOM     16  O   UNL     1      -9.629  -4.393   0.072  0.00  0.00    -0.126 OA
ENDBRANCH  11  14
ENDBRANCH   4   7
ENDBRANCH   1   3
BRANCH   1  17
ATOM     17  N   UNL     1      -4.904   3.871   0.066  0.00  0.00    -0.245 N 
ATOM     18  H   UNL     1      -4.913   4.841   0.070  0.00  0.00    +0.172 HD
BRANCH  17  21
ATOM     19  C   UNL     1      -2.523   3.869   0.044  0.00  0.00    +0.260 C 
ATOM     20  O   UNL     1      -2.535   5.085   0.050  0.00  0.00    -0.269 OA
ATOM     21  N   UNL     1      -3.683   3.183   0.051  0.00  0.00    -0.231 N 
ATOM     22  H   UNL     1      -3.673   2.213   0.047  0.00  0.00    +0.173 HD
BRANCH  19  27
ATOM     23  C   UNL     1       2.489   1.042  -0.016  0.00  0.00    +0.045 C 
ATOM     24  C   UNL     1       1.177   1.782   0.000  0.00  0.00    -0.036 A 
ATOM     25  C   UNL     1      -0.013   1.076   0.008  0.00  0.00    +0.005 A 
ATOM     26  C   UNL     1      -1.217   1.748   0.017  0.00  0.00    +0.013 A 
ATOM     27  C   UNL     1      -1.235   3.143   0.029  0.00  0.00    +0.039 A 
ATOM     28  C   UNL     1      -0.032   3.851   0.022  0.00  0.00    +0.028 A 
ATOM     29  C   UNL     1       1.167   3.166   0.007  0.00  0.00    +0.021 A 
ATOM     30 BR   UNL     1       2.799   4.122  -0.003  0.00  0.00    -0.050 Br
ENDBRANCH  19  27
ENDBRANCH  17  21
ENDBRANCH   1  17
TORSDOF 6
