REMARK  Name = ZINC35972090
REMARK  14 active torsions:
REMARK  status: ('A' for Active; 'I' for Inactive)
REMARK    1  A    between atoms: C_1  and  C_2
REMARK    2  A    between atoms: C_2  and  C_3
REMARK    3  A    between atoms: C_3  and  C_5
REMARK    4  A    between atoms: C_3  and  N_6
REMARK    5  A    between atoms: N_6  and  C_7
REMARK    6  A    between atoms: C_7  and  C_8
REMARK    7  A    between atoms: C_9  and  C_22
REMARK    8  A    between atoms: N_11  and  C_16
REMARK    9  A    between atoms: C_12  and  N_13
REMARK   10  A    between atoms: N_13  and  C_14
REMARK   11  A    between atoms: N_13  and  C_15
REMARK   12  A    between atoms: C_22  and  C_23
REMARK   13  A    between atoms: C_22  and  C_24
REMARK   14  A    between atoms: C_25  and  C_27
REMARK                            x       y       z     vdW  Elec       q    Type
REMARK                         _______ _______ _______ _____ _____    ______ ____
ROOT
ATOM      1  C   UNL     1       0.514   3.399   3.793  0.00  0.00    +0.030 A 
ATOM      2  C   UNL     1       1.482   4.126   3.095  0.00  0.00    +0.044 A 
ATOM      3  N   UNL     1       0.878   4.890   2.221  0.00  0.00    -0.295 N 
ATOM      4  N   UNL     1      -0.503   4.679   2.329  0.00  0.00    -0.241 N 
ATOM      5  C   UNL     1      -0.707   3.750   3.302  0.00  0.00    +0.127 A 
ATOM      6  H   UNL     1       1.312   5.499   1.603  0.00  0.00    +0.187 HD
ENDROOT
BRANCH   4   7
ATOM      7  C   UNL     1      -1.496   5.308   1.566  0.00  0.00    +0.065 A 
ATOM      8  C   UNL     1      -2.616   5.844   2.189  0.00  0.00    +0.028 A 
ATOM      9  C   UNL     1      -3.594   6.463   1.435  0.00  0.00    +0.002 A 
ATOM     10  C   UNL     1      -3.458   6.551   0.062  0.00  0.00    +0.000 A 
ATOM     11  C   UNL     1      -2.344   6.018  -0.561  0.00  0.00    +0.002 A 
ATOM     12  C   UNL     1      -1.360   5.403   0.188  0.00  0.00    +0.028 A 
ENDBRANCH   4   7
BRANCH   5  13
ATOM     13  N   UNL     1      -1.937   3.252   3.720  0.00  0.00    -0.321 N 
ATOM     14  C   UNL     1      -2.347   3.394   5.120  0.00  0.00    +0.130 C 
ATOM     15  C   UNL     1      -2.822   2.585   2.762  0.00  0.00    +0.130 C 
ENDBRANCH   5  13
BRANCH   2  16
ATOM     16  C   UNL     1       2.972   4.045   3.312  0.00  0.00    +0.031 C 
ATOM     17  C   UNL     1       3.663   3.719   1.986  0.00  0.00    +0.014 C 
ATOM     18  C   UNL     1       3.484   5.387   3.838  0.00  0.00    +0.014 C 
ENDBRANCH   2  16
BRANCH   1  19
ATOM     19  C   UNL     1       0.775   2.399   4.890  0.00  0.00    +0.148 C 
BRANCH  19  20
ATOM     20  N   UNL     1       0.406   1.059   4.428  0.00  0.00    -0.294 N 
ATOM     21  C   UNL     1      -0.594   0.389   5.035  0.00  0.00    +0.219 C 
ATOM     22  O   UNL     1      -1.249   0.930   5.900  0.00  0.00    -0.275 OA
BRANCH  21  23
ATOM     23  C   UNL     1      -0.896  -1.033   4.640  0.00  0.00    +0.075 C 
ATOM     24  C   UNL     1      -2.010  -1.156   3.587  0.00  0.00    +0.013 C 
ATOM     25  C   UNL     1      -2.513  -2.377   4.375  0.00  0.00    +0.001 C 
ATOM     26  C   UNL     1      -1.844  -1.755   5.612  0.00  0.00    +0.013 C 
ENDBRANCH  21  23
BRANCH  20  27
ATOM     27  C   UNL     1       1.121   0.448   3.305  0.00  0.00    +0.073 C 
ATOM     28  C   UNL     1       0.828   1.232   2.025  0.00  0.00    +0.028 C 
BRANCH  27  30
ATOM     29  C   UNL     1       2.927  -0.366   4.829  0.00  0.00    +0.005 C 
ATOM     30  C   UNL     1       2.625   0.473   3.585  0.00  0.00    +0.019 C 
ENDBRANCH  27  30
ENDBRANCH  20  27
ENDBRANCH  19  20
ENDBRANCH   1  19
TORSDOF 8
