REMARK  Name = ZINC57991831
REMARK  2 active torsions:
REMARK  status: ('A' for Active; 'I' for Inactive)
REMARK    1  A    between atoms: C_4  and  N_7
REMARK    2  A    between atoms: C_13  and  C_15
REMARK                            x       y       z     vdW  Elec       q    Type
REMARK                         _______ _______ _______ _____ _____    ______ ____
ROOT
ATOM      1  C   UNL     1       6.967  -3.930   1.050  0.00  0.00    +0.110 C 
ATOM      2  C   UNL     1       6.441  -4.475  -0.305  0.00  0.00    +0.034 C 
ATOM      3  C   UNL     1       7.707  -4.390  -1.191  0.00  0.00    +0.059 C 
ATOM      4  C   UNL     1       7.630  -5.462  -2.290  0.00  0.00    +0.020 C 
ATOM      5  C   UNL     1       8.780  -6.446  -1.978  0.00  0.00    +0.017 C 
ATOM      6  C   UNL     1       9.025  -6.224  -0.466  0.00  0.00    +0.086 C 
ATOM      7  N   UNL     1       8.830  -4.745  -0.284  0.00  0.00    -0.282 NA
ATOM      8  C   UNL     1       8.411  -4.453   1.097  0.00  0.00    +0.137 C 
ATOM      9  C   UNL     1       9.323  -3.449   1.749  0.00  0.00    +0.004 A 
ATOM     10  C   UNL     1       9.671  -2.152   1.445  0.00  0.00    +0.008 A 
ATOM     11  C   UNL     1      10.559  -1.466   2.254  0.00  0.00    +0.000 A 
ATOM     12  C   UNL     1      11.096  -2.087   3.368  0.00  0.00    +0.002 A 
ATOM     13  C   UNL     1      10.749  -3.386   3.676  0.00  0.00    +0.023 A 
ATOM     14  C   UNL     1       9.856  -4.083   2.867  0.00  0.00    +0.039 A 
ATOM     15  N   UNL     1       9.358  -5.384   2.966  0.00  0.00    -0.283 N 
ATOM     16  C   UNL     1       8.505  -5.680   1.969  0.00  0.00    +0.243 C 
ATOM     17  O   UNL     1       7.923  -6.731   1.802  0.00  0.00    -0.273 OA
ATOM     18  H   UNL     1       9.600  -6.003   3.673  0.00  0.00    +0.155 HD
ENDROOT
BRANCH   1  25
ATOM     19  N   UNL     1       5.475  -0.667   4.331  0.00  0.00    -0.327 N 
ATOM     20  C   UNL     1       5.447   0.062   3.055  0.00  0.00    +0.124 C 
ATOM     21  C   UNL     1       6.706  -0.299   2.257  0.00  0.00    +0.126 C 
ATOM     22  N   UNL     1       6.845  -1.762   2.235  0.00  0.00    -0.298 N 
ATOM     23  C   UNL     1       6.873  -2.491   3.510  0.00  0.00    +0.126 C 
ATOM     24  C   UNL     1       5.619  -2.129   4.309  0.00  0.00    +0.124 C 
ATOM     25  C   UNL     1       6.944  -2.424   1.065  0.00  0.00    +0.221 C 
ATOM     26  O   UNL     1       7.016  -1.806   0.023  0.00  0.00    -0.275 OA
BRANCH  19  30
ATOM     27  C   UNL     1       5.169   1.377   7.946  0.00  0.00    +0.000 A 
ATOM     28  C   UNL     1       5.185  -0.006   7.934  0.00  0.00    +0.002 A 
ATOM     29  C   UNL     1       5.287  -0.687   6.737  0.00  0.00    +0.023 A 
ATOM     30  C   UNL     1       5.372   0.019   5.544  0.00  0.00    +0.030 A 
ATOM     31  C   UNL     1       5.356   1.407   5.559  0.00  0.00    +0.023 A 
ATOM     32  C   UNL     1       5.254   2.082   6.759  0.00  0.00    +0.002 A 
ENDBRANCH  19  30
ENDBRANCH   1  25
TORSDOF 2
