REMARK  Name = ZINC09405467
REMARK  8 active torsions:
REMARK  status: ('A' for Active; 'I' for Inactive)
REMARK    1  A    between atoms: C_1  and  C_2
REMARK    2  A    between atoms: C_8  and  N_10
REMARK    3  A    between atoms: C_11  and  C_13
REMARK    4  A    between atoms: N_16  and  S_19
REMARK    5  A    between atoms: S_19  and  C_22
REMARK    6  A    between atoms: C_28  and  C_33
REMARK    7  A    between atoms: C_28  and  C_34
REMARK    8  A    between atoms: N_31  and  C_32
REMARK                            x       y       z     vdW  Elec       q    Type
REMARK                         _______ _______ _______ _____ _____    ______ ____
ROOT
ATOM      1  C   UNL     1       1.204  -4.715  -3.802  0.00  0.00    +0.077 C 
ATOM      2  C   UNL     1       2.461  -4.541  -2.946  0.00  0.00    +0.030 C 
ATOM      3  C   UNL     1       2.468  -3.136  -2.336  0.00  0.00    +0.110 C 
ATOM      4  N   UNL     1       1.209  -2.930  -1.608  0.00  0.00    -0.177 NA
ATOM      5  C   UNL     1      -0.060  -3.164  -2.311  0.00  0.00    +0.110 C 
ATOM      6  C   UNL     1      -0.039  -4.563  -2.922  0.00  0.00    +0.030 C 
ENDROOT
BRANCH   1   8
ATOM      7  N   UNL     1       0.195  -6.463  -5.232  0.00  0.00    -0.312 N 
ATOM      8  C   UNL     1       1.210  -6.085  -4.431  0.00  0.00    +0.216 C 
ATOM      9  O   UNL     1       2.129  -6.846  -4.215  0.00  0.00    -0.276 OA
ATOM     10  H   UNL     1      -0.540  -5.853  -5.404  0.00  0.00    +0.149 HD
BRANCH   7  17
ATOM     11  C   UNL     1      -0.049  -6.758  -8.103  0.00  0.00    +0.009 C 
ATOM     12  C   UNL     1      -0.640  -7.772  -7.122  0.00  0.00    +0.006 C 
ATOM     13  C   UNL     1      -2.077  -7.374  -6.780  0.00  0.00    +0.005 C 
ATOM     14  C   UNL     1      -2.668  -8.388  -5.799  0.00  0.00    +0.000 C 
ATOM     15  C   UNL     1      -1.827  -8.410  -4.521  0.00  0.00    +0.002 C 
ATOM     16  C   UNL     1      -0.390  -8.808  -4.862  0.00  0.00    +0.022 C 
ATOM     17  C   UNL     1       0.201  -7.794  -5.843  0.00  0.00    +0.076 C 
ENDBRANCH   7  17
ENDBRANCH   1   8
BRANCH   4  18
ATOM     18  S   UNL     1       1.220  -2.449  -0.023  0.00  0.00    +0.061 S 
ATOM     19  O   UNL     1       2.474  -2.848   0.513  0.00  0.00    -0.153 OA
ATOM     20  O   UNL     1      -0.017  -2.869   0.537  0.00  0.00    -0.153 OA
BRANCH  18  21
ATOM     21  C   UNL     1       1.205  -0.687  -0.013  0.00  0.00    +0.106 A 
ATOM     22  C   UNL     1       0.002  -0.004   0.002  0.00  0.00    +0.030 A 
ATOM     23  C   UNL     1      -0.017   1.375   0.010  0.00  0.00    +0.026 A 
ATOM     24  C   UNL     1       1.179   2.091   0.002  0.00  0.00    +0.040 A 
ATOM     25  C   UNL     1       2.380   1.394  -0.013  0.00  0.00    -0.010 A 
ATOM     26  C   UNL     1       2.396   0.017  -0.021  0.00  0.00    +0.035 A 
ATOM     27  C   UNL     1       3.476   2.434  -0.018  0.00  0.00    +0.068 C 
ATOM     28  C   UNL     1       2.732   3.753  -0.004  0.00  0.00    +0.230 C 
ATOM     29  O   UNL     1       3.228   4.860  -0.003  0.00  0.00    -0.274 OA
ATOM     30  N   UNL     1       1.419   3.466   0.007  0.00  0.00    -0.273 N 
ATOM     31  C   UNL     1       0.362   4.479   0.022  0.00  0.00    +0.138 C 
ATOM     32  C   UNL     1       4.350   2.298   1.230  0.00  0.00    +0.025 C 
ATOM     33  C   UNL     1       4.326   2.312  -1.285  0.00  0.00    +0.025 C 
ENDBRANCH  18  21
ENDBRANCH   4  18
TORSDOF 4
