REMARK  Name = ZINC39495512
REMARK  11 active torsions:
REMARK  status: ('A' for Active; 'I' for Inactive)
REMARK    1  A    between atoms: C_4  and  C_7
REMARK    2  A    between atoms: C_7  and  C_8
REMARK    3  A    between atoms: C_9  and  S_29
REMARK    4  A    between atoms: C_12  and  C_21
REMARK    5  A    between atoms: C_13  and  C_14
REMARK    6  A    between atoms: C_19  and  O_20
REMARK    7  A    between atoms: C_21  and  C_23
REMARK    8  A    between atoms: C_21  and  N_26
REMARK    9  A    between atoms: C_23  and  C_24
REMARK   10  A    between atoms: S_29  and  O_32
REMARK   11  A    between atoms: O_32  and  C_33
REMARK                            x       y       z     vdW  Elec       q    Type
REMARK                         _______ _______ _______ _____ _____    ______ ____
ROOT
ATOM      1  C   UNL     1       3.596  -0.919   1.065  0.00  0.00    -0.007 A 
ATOM      2  C   UNL     1       4.508   0.000   1.542  0.00  0.00    +0.132 A 
ATOM      3  C   UNL     1       5.402  -0.359   2.534  0.00  0.00    +0.031 A 
ATOM      4  C   UNL     1       5.387  -1.641   3.054  0.00  0.00    +0.008 A 
ATOM      5  C   UNL     1       4.479  -2.568   2.586  0.00  0.00    -0.019 A 
ATOM      6  C   UNL     1       3.572  -2.210   1.590  0.00  0.00    -0.004 A 
ENDROOT
BRANCH   6   7
ATOM      7  C   UNL     1       2.590  -3.200   1.086  0.00  0.00    +0.024 A 
ATOM      8  C   UNL     1       2.971  -4.140   0.131  0.00  0.00    +0.012 A 
ATOM      9  C   UNL     1       2.053  -5.059  -0.335  0.00  0.00    +0.001 A 
ATOM     10  C   UNL     1       0.755  -5.052   0.144  0.00  0.00    +0.004 A 
ATOM     11  C   UNL     1       0.366  -4.125   1.092  0.00  0.00    +0.046 A 
ATOM     12  C   UNL     1       1.279  -3.199   1.572  0.00  0.00    +0.125 A 
BRANCH  12  13
ATOM     13  O   UNL     1       0.900  -2.291   2.509  0.00  0.00    -0.506 OA
ATOM     14  H   UNL     1       0.482  -1.500   2.142  0.00  0.00    +0.292 HD
ENDBRANCH  12  13
ENDBRANCH   6   7
BRANCH   2  15
ATOM     15  S   UNL     1       4.534   1.635   0.885  0.00  0.00    +0.151 S 
ATOM     16  O   UNL     1       5.433   1.616  -0.216  0.00  0.00    -0.131 OA
ATOM     17  O   UNL     1       3.179   2.043   0.755  0.00  0.00    -0.131 OA
BRANCH  15  18
ATOM     18  O   UNL     1       5.160   2.535   1.941  0.00  0.00    -0.342 OA
BRANCH  18  19
ATOM     19  C   UNL     1       4.333   2.825   2.980  0.00  0.00    +0.157 A 
ATOM     20  C   UNL     1       3.442   3.884   2.884  0.00  0.00    +0.048 A 
ATOM     21  C   UNL     1       2.603   4.177   3.941  0.00  0.00    +0.004 A 
ATOM     22  C   UNL     1       2.651   3.416   5.095  0.00  0.00    +0.000 A 
ATOM     23  C   UNL     1       3.538   2.360   5.193  0.00  0.00    +0.004 A 
ATOM     24  C   UNL     1       4.375   2.060   4.136  0.00  0.00    +0.048 A 
ENDBRANCH  18  19
ENDBRANCH  15  18
ENDBRANCH   2  15
BRANCH   1  25
ATOM     25  C   UNL     1       2.623  -0.526  -0.017  0.00  0.00    +0.073 C 
BRANCH  25  29
ATOM     26  C   UNL     1       4.497  -0.926  -3.834  0.00  0.00    +0.000 A 
ATOM     27  C   UNL     1       3.926  -2.028  -3.226  0.00  0.00    +0.000 A 
ATOM     28  C   UNL     1       3.320  -1.899  -1.990  0.00  0.00    +0.004 A 
ATOM     29  C   UNL     1       3.285  -0.667  -1.363  0.00  0.00    -0.043 A 
ATOM     30  C   UNL     1       3.856   0.434  -1.971  0.00  0.00    +0.004 A 
ATOM     31  C   UNL     1       4.461   0.305  -3.208  0.00  0.00    +0.000 A 
ENDBRANCH  25  29
ENDBRANCH   1  25
BRANCH   5  32
ATOM     32  C   UNL     1       4.465  -3.964   3.153  0.00  0.00    +0.110 C 
BRANCH  32  33
ATOM     33  N   UNL     1       3.282  -4.135   4.001  0.00  0.00    -0.311 N 
ATOM     34  C   UNL     1       3.107  -3.347   5.080  0.00  0.00    +0.326 C 
ATOM     35  O   UNL     1       3.881  -2.438   5.299  0.00  0.00    -0.280 OA
ATOM     36  H   UNL     1       2.625  -4.815   3.785  0.00  0.00    +0.149 HD
ENDBRANCH  32  33
BRANCH  32  37
ATOM     37  C   UNL     1       5.728  -4.189   3.988  0.00  0.00    +0.097 C 
BRANCH  37  38
ATOM     38  C   UNL     1       5.774  -5.621   4.453  0.00  0.00    +0.225 C 
ATOM     39  O   UNL     1       6.741  -6.303   4.213  0.00  0.00    -0.301 OA
ENDBRANCH  37  38
ENDBRANCH  32  37
ENDBRANCH   5  32
TORSDOF 11
