REMARK  Name = ZINC62824369
REMARK  2 active torsions:
REMARK  status: ('A' for Active; 'I' for Inactive)
REMARK    1  A    between atoms: C_9  and  C_11
REMARK    2  A    between atoms: C_16  and  N_17
REMARK                            x       y       z     vdW  Elec       q    Type
REMARK                         _______ _______ _______ _____ _____    ______ ____
ROOT
ATOM      1  C   UNL     1       0.188   1.411   1.649  0.00  0.00    +0.024 A 
ATOM      2  C   UNL     1       1.437   1.962   1.850  0.00  0.00    +0.050 A 
ATOM      3  C   UNL     1       2.546   1.401   1.236  0.00  0.00    +0.156 A 
ATOM      4  C   UNL     1       2.393   0.275   0.411  0.00  0.00    +0.111 A 
ATOM      5  C   UNL     1       1.123  -0.272   0.217  0.00  0.00    +0.051 A 
ATOM      6  C   UNL     1       0.031   0.298   0.836  0.00  0.00    +0.043 A 
ATOM      7 CL   UNL     1      -1.549  -0.380   0.596  0.00  0.00    -0.083 Cl
ATOM      8  N   UNL     1       3.631  -0.046  -0.044  0.00  0.00    -0.209 NA
ATOM      9  C   UNL     1       4.496   0.805   0.450  0.00  0.00    +0.230 A 
ATOM     10  O   UNL     1       3.865   1.700   1.234  0.00  0.00    -0.435 OA
ENDROOT
BRANCH   9  11
ATOM     11  C   UNL     1       5.948   0.786   0.187  0.00  0.00    +0.058 A 
ATOM     12  C   UNL     1       6.661  -0.411   0.272  0.00  0.00    +0.029 A 
ATOM     13  C   UNL     1       8.018  -0.422   0.025  0.00  0.00    +0.014 A 
ATOM     14  C   UNL     1       8.678   0.750  -0.307  0.00  0.00    +0.016 A 
ATOM     15  C   UNL     1       7.985   1.941  -0.394  0.00  0.00    +0.024 A 
ATOM     16  C   UNL     1       6.618   1.970  -0.155  0.00  0.00    +0.037 A 
ATOM     17  I   UNL     1       9.086  -2.220   0.154  0.00  0.00    -0.044 I 
BRANCH  16  18
ATOM     18  N   UNL     1       5.917   3.169  -0.249  0.00  0.00    -0.357 N 
ATOM     19  H   UNL     1       4.950   3.173  -0.168  0.00  0.00    +0.142 HD
ATOM     20  H   UNL     1       6.395   4.000  -0.395  0.00  0.00    +0.142 HD
ENDBRANCH  16  18
ENDBRANCH   9  11
TORSDOF 2
