REMARK  Name = ZINC38911934
REMARK  4 active torsions:
REMARK  status: ('A' for Active; 'I' for Inactive)
REMARK    1  A    between atoms: C_1  and  C_2
REMARK    2  A    between atoms: C_6  and  N_8
REMARK    3  A    between atoms: C_10  and  C_15
REMARK    4  A    between atoms: C_17  and  C_20
REMARK                            x       y       z     vdW  Elec       q    Type
REMARK                         _______ _______ _______ _____ _____    ______ ____
ROOT
ATOM      1  N   UNL     1       0.052  -2.797   2.393  0.00  0.00    -0.271 N 
ATOM      2  C   UNL     1      -0.027  -4.259   2.496  0.00  0.00    +0.127 C 
ATOM      3  C   UNL     1       0.456  -4.599   3.923  0.00  0.00    +0.104 C 
ATOM      4  C   UNL     1       0.140  -3.289   4.683  0.00  0.00    +0.111 C 
ATOM      5  C   UNL     1       0.147  -2.227   3.606  0.00  0.00    +0.221 C 
ATOM      6  O   UNL     1       0.225  -1.033   3.808  0.00  0.00    -0.275 OA
ENDROOT
BRANCH   1  12
ATOM      7  C   UNL     1       0.060  -2.812  -2.524  0.00  0.00    +0.044 C 
ATOM      8  C   UNL     1       0.041  -2.071  -1.212  0.00  0.00    -0.049 A 
ATOM      9  C   UNL     1       0.008  -0.688  -1.200  0.00  0.00    +0.003 A 
ATOM     10  C   UNL     1      -0.011  -0.004   0.002  0.00  0.00    +0.002 A 
ATOM     11  C   UNL     1       0.004  -0.701   1.194  0.00  0.00    +0.023 A 
ATOM     12  C   UNL     1       0.037  -2.089   1.186  0.00  0.00    +0.037 A 
ATOM     13  C   UNL     1       0.050  -2.773  -0.023  0.00  0.00    +0.027 A 
ENDBRANCH   1  12
BRANCH   3  14
ATOM     14  C   UNL     1      -0.321  -5.756   4.495  0.00  0.00    +0.233 A 
ATOM     15  N   UNL     1       0.182  -6.891   4.888  0.00  0.00    -0.191 NA
ATOM     16  C   UNL     1      -0.795  -7.695   5.344  0.00  0.00    +0.202 A 
ATOM     17  N   UNL     1      -1.938  -7.064   5.240  0.00  0.00    -0.056 NA
ATOM     18  O   UNL     1      -1.646  -5.789   4.690  0.00  0.00    -0.337 OA
BRANCH  16  19
ATOM     19  C   UNL     1      -0.609  -9.069   5.875  0.00  0.00    +0.022 A 
ATOM     20  C   UNL     1       0.666  -9.627   5.937  0.00  0.00    +0.012 A 
ATOM     21  C   UNL     1       0.834 -10.905   6.431  0.00  0.00    +0.001 A 
ATOM     22  C   UNL     1      -0.261 -11.631   6.864  0.00  0.00    +0.000 A 
ATOM     23  C   UNL     1      -1.529 -11.081   6.805  0.00  0.00    +0.001 A 
ATOM     24  C   UNL     1      -1.707  -9.802   6.318  0.00  0.00    +0.012 A 
ENDBRANCH  16  19
ENDBRANCH   3  14
TORSDOF 3
