REMARK  Name = ZINC08722392
REMARK  4 active torsions:
REMARK  status: ('A' for Active; 'I' for Inactive)
REMARK    1  A    between atoms: C_4  and  C_7
REMARK    2  A    between atoms: C_7  and  N_49
REMARK    3  A    between atoms: C_18  and  C_21
REMARK    4  A    between atoms: C_24  and  O_28
REMARK                            x       y       z     vdW  Elec       q    Type
REMARK                         _______ _______ _______ _____ _____    ______ ____
ROOT
ATOM      1  C   UNL     1      -0.765   1.599  -1.223  0.00  0.00    -0.073 C 
ATOM      2  C   UNL     1      -0.013   1.086   0.008  0.00  0.00    +0.018 C 
ATOM      3  C   UNL     1      -0.738   1.583   1.253  0.00  0.00    -0.027 A 
ATOM      4  C   UNL     1      -1.615   2.611   1.158  0.00  0.00    -0.021 A 
ATOM      5  S   UNL     1      -2.217   2.851   2.807  0.00  0.00    -0.080 S 
ATOM      6  C   UNL     1      -1.325   1.620   3.600  0.00  0.00    +0.080 A 
ATOM      7  C   UNL     1      -0.560   1.027   2.582  0.00  0.00    +0.068 A 
ATOM      8  C   UNL     1       0.328  -0.096   2.961  0.00  0.00    +0.248 C 
ATOM      9  O   UNL     1       0.927  -0.742   2.121  0.00  0.00    -0.270 OA
ATOM     10  N   UNL     1       0.446  -0.374   4.277  0.00  0.00    -0.289 N 
ATOM     11  C   UNL     1      -0.056   0.499   5.332  0.00  0.00    +0.190 C 
ATOM     12  N   UNL     1      -1.278   1.205   4.905  0.00  0.00    -0.316 N 
ATOM     13  C   UNL     1      -1.976   3.362  -0.085  0.00  0.00    -0.035 C 
ATOM     14  H   UNL     1       0.888  -1.198   4.534  0.00  0.00    +0.151 HD
ATOM     15  H   UNL     1      -2.012   1.369   5.518  0.00  0.00    +0.149 HD
ATOM     16  N   UNL     1      -0.948   3.061  -1.111  0.00  0.00    +0.386 N 
ATOM     17  H   UNL     1      -0.059   3.489  -0.830  0.00  0.00    -0.081 HD
ENDROOT
BRANCH  11  18
ATOM     18  C   UNL     1       1.004   1.512   5.680  0.00  0.00    -0.008 A 
ATOM     19  C   UNL     1       2.340   1.200   5.507  0.00  0.00    +0.011 A 
ATOM     20  C   UNL     1       3.314   2.127   5.824  0.00  0.00    +0.047 A 
ATOM     21  C   UNL     1       2.951   3.372   6.317  0.00  0.00    +0.130 A 
ATOM     22  C   UNL     1       1.609   3.683   6.489  0.00  0.00    +0.055 A 
ATOM     23  C   UNL     1       0.639   2.754   6.165  0.00  0.00    +0.025 A 
ATOM     24  I   UNL     1       1.056   5.562   7.231  0.00  0.00    -0.040 I 
BRANCH  21  25
ATOM     25  O   UNL     1       3.907   4.286   6.629  0.00  0.00    -0.506 OA
ATOM     26  H   UNL     1       4.151   4.866   5.896  0.00  0.00    +0.292 HD
ENDBRANCH  21  25
ENDBRANCH  11  18
BRANCH  16  27
ATOM     27  C   UNL     1      -1.359   3.620  -2.417  0.00  0.00    -0.043 C 
BRANCH  27  31
ATOM     28  C   UNL     1      -1.256   7.885  -2.188  0.00  0.00    +0.000 A 
ATOM     29  C   UNL     1      -0.127   7.186  -2.570  0.00  0.00    +0.000 A 
ATOM     30  C   UNL     1      -0.160   5.806  -2.645  0.00  0.00    +0.002 A 
ATOM     31  C   UNL     1      -1.323   5.125  -2.336  0.00  0.00    -0.064 A 
ATOM     32  C   UNL     1      -2.454   5.824  -1.958  0.00  0.00    +0.002 A 
ATOM     33  C   UNL     1      -2.419   7.204  -1.879  0.00  0.00    +0.000 A 
ENDBRANCH  27  31
ENDBRANCH  16  27
TORSDOF 4
