REMARK  Name = ZINC00733832
REMARK  11 active torsions:
REMARK  status: ('A' for Active; 'I' for Inactive)
REMARK    1  A    between atoms: C_1  and  C_2
REMARK    2  A    between atoms: C_2  and  C_3
REMARK    3  A    between atoms: C_3  and  C_4
REMARK    4  A    between atoms: C_11  and  C_13
REMARK    5  A    between atoms: C_18  and  S_20
REMARK    6  A    between atoms: S_20  and  C_21
REMARK    7  A    between atoms: C_21  and  C_22
REMARK    8  A    between atoms: N_24  and  C_25
REMARK    9  A    between atoms: C_25  and  C_26
REMARK   10  A    between atoms: C_26  and  C_27
REMARK   11  A    between atoms: C_26  and  C_28
REMARK                            x       y       z     vdW  Elec       q    Type
REMARK                         _______ _______ _______ _____ _____    ______ ____
ROOT
ATOM      1  C   UNL     1     -12.784   0.442   0.040  0.00  0.00    +0.216 C 
ATOM      2  O   UNL     1     -13.421   0.418  -0.993  0.00  0.00    -0.276 OA
ATOM      3  N   UNL     1     -11.539   0.956   0.052  0.00  0.00    -0.296 N 
ATOM      4  C   UNL     1     -10.796   1.106   1.313  0.00  0.00    +0.127 C 
ATOM      5  C   UNL     1      -9.414   0.467   1.143  0.00  0.00    +0.125 C 
ATOM      6  N   UNL     1      -8.755   1.040  -0.038  0.00  0.00    -0.312 N 
ATOM      7  C   UNL     1      -9.500   0.733  -1.266  0.00  0.00    +0.128 C 
ATOM      8  C   UNL     1     -10.886   1.383  -1.195  0.00  0.00    +0.090 C 
ATOM      9  C   UNL     1     -11.726   0.937  -2.393  0.00  0.00    +0.029 C 
ATOM     10  C   UNL     1      -7.442   0.608  -0.133  0.00  0.00    +0.127 A 
ATOM     11  C   UNL     1      -7.147  -0.756  -0.166  0.00  0.00    +0.083 A 
ATOM     12  C   UNL     1      -5.822  -1.143  -0.261  0.00  0.00    +0.135 A 
ATOM     13  N   UNL     1      -4.879  -0.213  -0.324  0.00  0.00    -0.210 NA
ATOM     14  C   UNL     1      -5.189   1.075  -0.285  0.00  0.00    +0.192 A 
ATOM     15  N   UNL     1      -6.446   1.485  -0.194  0.00  0.00    -0.207 NA
ATOM     16 CL   UNL     1      -5.399  -2.826  -0.306  0.00  0.00    -0.062 Cl
ENDROOT
BRANCH   1  17
ATOM     17  C   UNL     1     -13.387  -0.104   1.309  0.00  0.00    +0.096 C 
BRANCH  17  19
ATOM     18  C   UNL     1     -15.409  -1.177   2.310  0.00  0.00    +0.004 C 
ATOM     19  C   UNL     1     -14.797  -0.623   1.022  0.00  0.00    +0.006 C 
ENDBRANCH  17  19
ENDBRANCH   1  17
BRANCH  14  20
ATOM     20  S   UNL     1      -3.898   2.272  -0.364  0.00  0.00    -0.077 S 
BRANCH  20  21
ATOM     21  C   UNL     1      -2.461   1.178  -0.474  0.00  0.00    +0.173 C 
BRANCH  21  22
ATOM     22  C   UNL     1      -1.204   2.006  -0.554  0.00  0.00    +0.223 C 
ATOM     23  O   UNL     1      -1.274   3.217  -0.539  0.00  0.00    -0.275 OA
ATOM     24  N   UNL     1      -0.003   1.401  -0.643  0.00  0.00    -0.314 N 
ATOM     25  H   UNL     1       0.052   0.433  -0.656  0.00  0.00    +0.149 HD
BRANCH  24  26
ATOM     26  C   UNL     1       1.218   2.206  -0.727  0.00  0.00    +0.107 C 
BRANCH  26  27
ATOM     27  C   UNL     1       2.433   1.281  -0.826  0.00  0.00    -0.000 C 
ATOM     28  C   UNL     1       2.373   0.498  -2.139  0.00  0.00    +0.009 C 
ATOM     29  C   UNL     1       3.714   2.116  -0.788  0.00  0.00    +0.009 C 
ENDBRANCH  26  27
ENDBRANCH  24  26
ENDBRANCH  21  22
ENDBRANCH  20  21
ENDBRANCH  14  20
TORSDOF 7
