REMARK  Name = ZINC21875273
REMARK  6 active torsions:
REMARK  status: ('A' for Active; 'I' for Inactive)
REMARK    1  A    between atoms: C_1  and  C_2
REMARK    2  A    between atoms: C_2  and  C_23
REMARK    3  A    between atoms: C_7  and  C_9
REMARK    4  A    between atoms: N_11  and  C_12
REMARK    5  A    between atoms: N_21  and  C_22
REMARK    6  A    between atoms: N_25  and  C_26
REMARK                            x       y       z     vdW  Elec       q    Type
REMARK                         _______ _______ _______ _____ _____    ______ ____
ROOT
ATOM      1  C   UNL     1      -4.481   4.422  -2.094  0.00  0.00    +0.044 C 
ATOM      2  C   UNL     1      -4.636   4.689  -0.595  0.00  0.00    +0.130 C 
ATOM      3  C   UNL     1      -3.250   4.870   0.020  0.00  0.00    +0.179 C 
ATOM      4  N   UNL     1      -2.578   3.567   0.091  0.00  0.00    -0.256 N 
ATOM      5  C   UNL     1      -3.301   2.402   0.249  0.00  0.00    +0.124 A 
ATOM      6  C   UNL     1      -2.419   1.377   0.272  0.00  0.00    +0.067 A 
ATOM      7  C   UNL     1      -1.148   1.980   0.132  0.00  0.00    +0.148 A 
ATOM      8  N   UNL     1      -1.335   3.286   0.027  0.00  0.00    -0.166 NA
ATOM      9  C   UNL     1      -4.770   2.426   0.354  0.00  0.00    +0.265 C 
ATOM     10  O   UNL     1      -5.402   1.459   0.734  0.00  0.00    -0.268 OA
ATOM     11  N   UNL     1      -5.378   3.586   0.003  0.00  0.00    -0.284 N 
ATOM     12  C   UNL     1      -6.817   3.734   0.231  0.00  0.00    +0.133 C 
ENDROOT
BRANCH   7  13
ATOM     13  C   UNL     1       0.152   1.279   0.102  0.00  0.00    +0.264 C 
ATOM     14  O   UNL     1       0.193   0.069   0.209  0.00  0.00    -0.268 OA
ATOM     15  N   UNL     1       1.293   1.981  -0.049  0.00  0.00    -0.307 N 
ATOM     16  H   UNL     1       1.256   3.076  -0.145  0.00  0.00    +0.149 HD
BRANCH  15  17
ATOM     17  C   UNL     1       2.582   1.285  -0.084  0.00  0.00    +0.073 C 
ATOM     18  C   UNL     1       3.055   1.036   1.362  0.00  0.00    +0.022 C 
ATOM     19  C   UNL     1       4.061  -0.084   1.349  0.00  0.00    +0.002 C 
ATOM     20  C   UNL     1       5.511   0.431   1.269  0.00  0.00    +0.000 C 
ATOM     21  C   UNL     1       5.676   1.602   0.281  0.00  0.00    +0.000 C 
ATOM     22  C   UNL     1       4.900   1.395  -0.991  0.00  0.00    +0.002 C 
ATOM     23  C   UNL     1       3.529   2.086  -0.846  0.00  0.00    +0.022 C 
ENDBRANCH  15  17
ENDBRANCH   7  13
BRANCH   2  24
ATOM     24  C   UNL     1      -5.421   5.961  -0.407  0.00  0.00    +0.238 C 
ATOM     25  O   UNL     1      -5.596   6.710  -1.345  0.00  0.00    -0.273 OA
ATOM     26  N   UNL     1      -5.930   6.267   0.803  0.00  0.00    -0.311 N 
ATOM     27  H   UNL     1      -5.701   5.633   1.672  0.00  0.00    +0.149 HD
BRANCH  26  28
ATOM     28  C   UNL     1      -6.788   7.444   0.961  0.00  0.00    +0.073 C 
ATOM     29  C   UNL     1      -5.898   8.695   1.104  0.00  0.00    +0.022 C 
ATOM     30  C   UNL     1      -6.718   9.908   0.757  0.00  0.00    +0.002 C 
ATOM     31  C   UNL     1      -7.350  10.567   1.998  0.00  0.00    +0.000 C 
ATOM     32  C   UNL     1      -7.915   9.540   2.998  0.00  0.00    +0.000 C 
ATOM     33  C   UNL     1      -8.641   8.412   2.316  0.00  0.00    +0.002 C 
ATOM     34  C   UNL     1      -7.654   7.245   2.114  0.00  0.00    +0.022 C 
ENDBRANCH  26  28
ENDBRANCH   2  24
TORSDOF 4
