REMARK  Name = ZINC11846377
REMARK  10 active torsions:
REMARK  status: ('A' for Active; 'I' for Inactive)
REMARK    1  A    between atoms: C_1  and  N_2
REMARK    2  A    between atoms: C_6  and  C_7
REMARK    3  A    between atoms: C_7  and  C_9
REMARK    4  A    between atoms: C_7  and  N_62
REMARK    5  A    between atoms: C_9  and  N_10
REMARK    6  A    between atoms: C_11  and  C_13
REMARK    7  A    between atoms: C_16  and  S_19
REMARK    8  A    between atoms: S_19  and  N_22
REMARK    9  A    between atoms: N_22  and  C_23
REMARK   10  A    between atoms: N_22  and  C_24
REMARK                            x       y       z     vdW  Elec       q    Type
REMARK                         _______ _______ _______ _____ _____    ______ ____
ROOT
ATOM      1  C   UNL     1       0.157   1.110  -0.467  0.00  0.00    +0.095 C 
ENDROOT
BRANCH   1   2
ATOM      2  N   UNL     1       0.822   0.024  -1.191  0.00  0.00    -0.313 N 
ATOM      3  C   UNL     1       0.101  -1.017  -1.654  0.00  0.00    +0.244 C 
ATOM      4  O   UNL     1      -1.100  -1.054  -1.471  0.00  0.00    -0.270 OA
ATOM      5  H   UNL     1       1.780   0.053  -1.337  0.00  0.00    +0.149 HD
BRANCH   3   6
ATOM      6  C   UNL     1       0.772  -2.114  -2.384  0.00  0.00    +0.037 A 
ATOM      7  C   UNL     1       2.150  -2.071  -2.601  0.00  0.00    +0.015 A 
ATOM      8  C   UNL     1       2.771  -3.101  -3.279  0.00  0.00    +0.029 A 
ATOM      9  C   UNL     1       2.028  -4.168  -3.752  0.00  0.00    +0.105 A 
ATOM     10  C   UNL     1       0.661  -4.213  -3.546  0.00  0.00    +0.029 A 
ATOM     11  C   UNL     1       0.029  -3.193  -2.865  0.00  0.00    +0.015 A 
BRANCH   9  12
ATOM     12  S   UNL     1       2.828  -5.475  -4.622  0.00  0.00    +0.060 S 
ATOM     13  O   UNL     1       4.187  -5.466  -4.209  0.00  0.00    -0.153 OA
ATOM     14  O   UNL     1       1.998  -6.620  -4.486  0.00  0.00    -0.153 OA
BRANCH  12  15
ATOM     15  N   UNL     1       2.818  -5.072  -6.229  0.00  0.00    -0.183 NA
ATOM     16  C   UNL     1       3.929  -4.305  -6.798  0.00  0.00    +0.131 C 
ATOM     17  C   UNL     1       1.699  -5.481  -7.080  0.00  0.00    +0.131 C 
ENDBRANCH  12  15
ENDBRANCH   9  12
ENDBRANCH   3   6
ENDBRANCH   1   2
BRANCH   1  18
ATOM     18  C   UNL     1       1.210   2.065   0.099  0.00  0.00    -0.003 C 
BRANCH  18  25
ATOM     19  C   UNL     1       2.948   0.494   0.747  0.00  0.00    -0.078 C 
ATOM     20  C   UNL     1       3.493  -0.385   1.840  0.00  0.00    -0.019 C 
ATOM     21  C   UNL     1       2.708  -1.714   1.835  0.00  0.00    -0.002 C 
ATOM     22  C   UNL     1       1.404  -1.586   2.478  0.00  0.00    -0.002 C 
ATOM     23  C   UNL     1       0.499  -0.562   1.761  0.00  0.00    -0.019 C 
ATOM     24  C   UNL     1       0.928   0.821   2.168  0.00  0.00    -0.078 C 
ATOM     25  N   UNL     1       1.919   1.470   1.244  0.00  0.00    +0.386 N 
ATOM     26  H   UNL     1       2.402   2.216   1.758  0.00  0.00    -0.081 HD
ENDBRANCH  18  25
BRANCH  18  32
ATOM     27  C   UNL     1      -0.481   4.013  -1.621  0.00  0.00    +0.148 C 
ATOM     28  N   UNL     1      -0.202   4.177  -0.192  0.00  0.00    -0.355 N 
ATOM     29  C   UNL     1      -0.644   5.201   0.591  0.00  0.00    +0.085 A 
ATOM     30  C   UNL     1      -0.178   5.007   1.841  0.00  0.00    +0.019 A 
ATOM     31  C   UNL     1       0.574   3.816   1.831  0.00  0.00    +0.021 A 
ATOM     32  C   UNL     1       0.540   3.328   0.575  0.00  0.00    +0.006 A 
ENDBRANCH  18  32
ENDBRANCH   1  18
TORSDOF 7
