REMARK  Name = ZINC05295986
REMARK  8 active torsions:
REMARK  status: ('A' for Active; 'I' for Inactive)
REMARK    1  A    between atoms: C_1  and  C_2
REMARK    2  A    between atoms: C_2  and  C_3
REMARK    3  A    between atoms: C_2  and  C_4
REMARK    4  A    between atoms: C_2  and  C_5
REMARK    5  A    between atoms: C_5  and  C_6
REMARK    6  A    between atoms: C_12  and  C_16
REMARK    7  A    between atoms: N_18  and  N_19
REMARK    8  A    between atoms: C_20  and  C_21
REMARK                            x       y       z     vdW  Elec       q    Type
REMARK                         _______ _______ _______ _____ _____    ______ ____
ROOT
ATOM      1  C   UNL     1      -4.549  -3.838   0.395  0.00  0.00    -0.006 C 
ATOM      2  C   UNL     1      -3.931  -4.602  -0.779  0.00  0.00    +0.010 C 
ATOM      3  C   UNL     1      -2.479  -4.968  -0.455  0.00  0.00    +0.055 C 
ATOM      4  C   UNL     1      -1.774  -3.730   0.036  0.00  0.00    +0.040 A 
ATOM      5  C   UNL     1      -2.415  -2.611   0.454  0.00  0.00    +0.006 A 
ATOM      6  C   UNL     1      -1.407  -1.701   0.815  0.00  0.00    +0.152 A 
ATOM      7  N   UNL     1      -0.253  -2.313   0.609  0.00  0.00    -0.169 NA
ATOM      8  N   UNL     1      -0.456  -3.501   0.154  0.00  0.00    -0.281 N 
ATOM      9  H   UNL     1       0.263  -4.157  -0.077  0.00  0.00    +0.189 HD
ATOM     10  C   UNL     1      -3.909  -2.447   0.495  0.00  0.00    +0.043 C 
ENDROOT
BRANCH   6  11
ATOM     11  C   UNL     1      -1.599  -0.331   1.330  0.00  0.00    +0.284 C 
ATOM     12  O   UNL     1      -2.722   0.114   1.474  0.00  0.00    -0.267 OA
ATOM     13  N   UNL     1      -0.529   0.428   1.642  0.00  0.00    -0.202 N 
ATOM     14  H   UNL     1       0.367   0.074   1.527  0.00  0.00    +0.178 HD
BRANCH  13  15
ATOM     15  N   UNL     1      -0.711   1.729   2.130  0.00  0.00    -0.184 NA
ATOM     16  C   UNL     1       0.321   2.461   2.431  0.00  0.00    +0.176 C 
BRANCH  16  17
ATOM     17  C   UNL     1       0.131   3.822   2.942  0.00  0.00    +0.147 A 
ATOM     18  C   UNL     1       1.121   4.692   3.294  0.00  0.00    +0.051 A 
ATOM     19  C   UNL     1       0.488   5.872   3.727  0.00  0.00    +0.042 A 
ATOM     20  C   UNL     1      -0.841   5.670   3.621  0.00  0.00    +0.196 A 
ATOM     21  O   UNL     1      -1.054   4.434   3.142  0.00  0.00    -0.462 OA
ENDBRANCH  16  17
ENDBRANCH  13  15
ENDBRANCH   6  11
BRANCH   1  22
ATOM     22  C   UNL     1      -6.055  -3.691   0.171  0.00  0.00    +0.010 C 
BRANCH  22  24
ATOM     23  C   UNL     1      -6.521  -5.145   2.149  0.00  0.00    +0.010 C 
ATOM     24  C   UNL     1      -6.768  -4.957   0.651  0.00  0.00    -0.037 C 
ATOM     25  C   UNL     1      -8.271  -4.825   0.394  0.00  0.00    +0.010 C 
ATOM     26  C   UNL     1      -6.225  -6.168  -0.111  0.00  0.00    +0.010 C 
ENDBRANCH  22  24
ENDBRANCH   1  22
TORSDOF 5
