REMARK  Name = ZINC39695710
REMARK  6 active torsions:
REMARK  status: ('A' for Active; 'I' for Inactive)
REMARK    1  A    between atoms: C_1  and  C_2
REMARK    2  A    between atoms: C_9  and  C_11
REMARK    3  A    between atoms: C_11  and  C_13
REMARK    4  A    between atoms: C_11  and  N_14
REMARK    5  A    between atoms: C_15  and  C_17
REMARK    6  A    between atoms: C_28  and  C_30
REMARK                            x       y       z     vdW  Elec       q    Type
REMARK                         _______ _______ _______ _____ _____    ______ ____
ROOT
ATOM      1  C   UNL     1       1.878  -8.733   0.984  0.00  0.00    +0.100 C 
ATOM      2  C   UNL     1       0.776  -9.459   0.179  0.00  0.00    +0.121 C 
ATOM      3  N   UNL     1       1.233 -10.867   0.104  0.00  0.00    -0.296 N 
ATOM      4  C   UNL     1       1.812 -11.138   1.442  0.00  0.00    +0.115 C 
ATOM      5  C   UNL     1       2.554  -9.839   1.812  0.00  0.00    -0.004 C 
ATOM      6  C   UNL     1       2.402  -9.551   3.303  0.00  0.00    -0.010 C 
ATOM      7  C   UNL     1       3.133 -10.632   4.104  0.00  0.00    -0.082 C 
ATOM      8  N   UNL     1       4.552 -10.645   3.730  0.00  0.00    +0.379 N 
ATOM      9  C   UNL     1       4.695 -11.014   2.317  0.00  0.00    -0.082 C 
ATOM     10  C   UNL     1       4.030  -9.949   1.440  0.00  0.00    -0.010 C 
ATOM     11  C   UNL     1       1.142 -11.710  -0.943  0.00  0.00    +0.252 C 
ATOM     12  O   UNL     1       1.566 -12.845  -0.848  0.00  0.00    -0.270 OA
ATOM     13  H   UNL     1       4.946  -9.728   3.878  0.00  0.00    -0.086 HD
ATOM     14  H   UNL     1       5.043 -11.315   4.303  0.00  0.00    -0.086 HD
ENDROOT
BRANCH  11  15
ATOM     15  C   UNL     1       0.528 -11.255  -2.205  0.00  0.00    +0.107 A 
ATOM     16  C   UNL     1       1.319 -10.672  -3.202  0.00  0.00    +0.138 A 
ATOM     17  C   UNL     1       0.735 -10.249  -4.381  0.00  0.00    +0.039 A 
ATOM     18  C   UNL     1      -0.625 -10.401  -4.578  0.00  0.00    +0.006 A 
ATOM     19  C   UNL     1      -1.414 -10.975  -3.598  0.00  0.00    +0.039 A 
ATOM     20  C   UNL     1      -0.846 -11.409  -2.415  0.00  0.00    +0.138 A 
ATOM     21  F   UNL     1      -1.618 -11.976  -1.461  0.00  0.00    -0.205 F 
ATOM     22  F   UNL     1       2.648 -10.523  -3.011  0.00  0.00    -0.205 F 
ENDBRANCH  11  15
BRANCH   1  24
ATOM     23  N   UNL     1       1.974  -6.601   2.233  0.00  0.00    -0.305 N 
ATOM     24  C   UNL     1       1.268  -7.697   1.892  0.00  0.00    +0.219 C 
ATOM     25  O   UNL     1       0.141  -7.848   2.315  0.00  0.00    -0.275 OA
ATOM     26  H   UNL     1       2.875  -6.479   1.895  0.00  0.00    +0.149 HD
BRANCH  23  27
ATOM     27  C   UNL     1       1.381  -5.593   3.116  0.00  0.00    +0.136 C 
ATOM     28  C   UNL     1       0.546  -4.616   2.286  0.00  0.00    +0.036 C 
BRANCH  27  37
ATOM     29  C   UNL     1       5.863  -1.643   7.554  0.00  0.00    +0.044 C 
ATOM     30  C   UNL     1       5.346  -2.462   6.400  0.00  0.00    -0.048 A 
ATOM     31  C   UNL     1       6.194  -2.787   5.351  0.00  0.00    +0.005 A 
ATOM     32  C   UNL     1       5.745  -3.530   4.296  0.00  0.00    +0.030 A 
ATOM     33  C   UNL     1       4.418  -3.969   4.268  0.00  0.00    +0.089 A 
ATOM     34  C   UNL     1       3.559  -3.640   5.330  0.00  0.00    +0.067 A 
ATOM     35  C   UNL     1       4.035  -2.889   6.396  0.00  0.00    +0.031 A 
ATOM     36  N   UNL     1       2.338  -4.206   5.021  0.00  0.00    -0.340 N 
ATOM     37  C   UNL     1       2.477  -4.840   3.826  0.00  0.00    +0.128 A 
ATOM     38  N   UNL     1       3.693  -4.702   3.385  0.00  0.00    -0.231 NA
ATOM     39  H   UNL     1       1.531  -4.159   5.557  0.00  0.00    +0.167 HD
ENDBRANCH  27  37
ENDBRANCH  23  27
ENDBRANCH   1  24
TORSDOF 4
