REMARK  Name = ZINC17913350
REMARK  11 active torsions:
REMARK  status: ('A' for Active; 'I' for Inactive)
REMARK    1  A    between atoms: C_1  and  N_72
REMARK    2  A    between atoms: C_2  and  N_72
REMARK    3  A    between atoms: C_3  and  C_5
REMARK    4  A    between atoms: C_3  and  C_28
REMARK    5  A    between atoms: C_3  and  N_72
REMARK    6  A    between atoms: C_5  and  N_6
REMARK    7  A    between atoms: C_7  and  C_9
REMARK    8  A    between atoms: N_12  and  S_15
REMARK    9  A    between atoms: S_15  and  C_18
REMARK   10  A    between atoms: C_31  and  O_34
REMARK   11  A    between atoms: O_34  and  C_35
REMARK                            x       y       z     vdW  Elec       q    Type
REMARK                         _______ _______ _______ _____ _____    ______ ____
ROOT
ATOM      1  C   UNL     1      -1.198   0.765   0.210  0.00  0.00    +0.077 C 
ATOM      2  C   UNL     1      -1.337   1.328   1.626  0.00  0.00    +0.030 C 
ATOM      3  C   UNL     1      -2.791   1.750   1.863  0.00  0.00    +0.110 C 
ATOM      4  N   UNL     1      -3.668   0.606   1.580  0.00  0.00    -0.177 NA
ATOM      5  C   UNL     1      -3.553  -0.067   0.279  0.00  0.00    +0.110 C 
ATOM      6  C   UNL     1      -2.091  -0.469   0.060  0.00  0.00    +0.030 C 
ENDROOT
BRANCH   1   8
ATOM      7  N   UNL     1       1.207   1.312   0.035  0.00  0.00    -0.316 N 
ATOM      8  C   UNL     1       0.237   0.380  -0.038  0.00  0.00    +0.216 C 
ATOM      9  O   UNL     1       0.519  -0.769  -0.309  0.00  0.00    -0.276 OA
ATOM     10  H   UNL     1       0.982   2.231   0.251  0.00  0.00    +0.149 HD
BRANCH   7  11
ATOM     11  C   UNL     1       2.602   0.939  -0.213  0.00  0.00    +0.093 C 
BRANCH  11  12
ATOM     12  C   UNL     1       3.494   2.174  -0.068  0.00  0.00    -0.021 C 
BRANCH  12  13
ATOM     13  C   UNL     1       4.939   1.768  -0.201  0.00  0.00    -0.059 A 
ATOM     14  C   UNL     1       5.435   0.723   0.556  0.00  0.00    +0.005 A 
ATOM     15  C   UNL     1       6.758   0.346   0.432  0.00  0.00    +0.046 A 
ATOM     16  C   UNL     1       7.593   1.024  -0.445  0.00  0.00    +0.120 A 
ATOM     17  C   UNL     1       7.094   2.075  -1.200  0.00  0.00    +0.046 A 
ATOM     18  C   UNL     1       5.768   2.445  -1.077  0.00  0.00    +0.005 A 
BRANCH  16  19
ATOM     19  O   UNL     1       8.896   0.658  -0.565  0.00  0.00    -0.495 OA
ATOM     20  C   UNL     1       9.341  -0.433   0.244  0.00  0.00    +0.277 C 
ENDBRANCH  16  19
ENDBRANCH  12  13
BRANCH  12  23
ATOM     21  C   UNL     1       3.589   1.835   2.327  0.00  0.00    -0.096 C 
ATOM     22  C   UNL     1       4.056   4.020   1.394  0.00  0.00    -0.096 C 
ATOM     23  N   UNL     1       3.248   2.790   1.252  0.00  0.00    +0.382 N 
ATOM     24  H   UNL     1       2.254   3.035   1.326  0.00  0.00    -0.082 HD
ENDBRANCH  12  23
ENDBRANCH  11  12
ENDBRANCH   7  11
ENDBRANCH   1   8
BRANCH   4  25
ATOM     25  S   UNL     1      -4.766   0.086   2.705  0.00  0.00    +0.061 S 
ATOM     26  O   UNL     1      -5.038   1.195   3.551  0.00  0.00    -0.153 OA
ATOM     27  O   UNL     1      -5.788  -0.595   1.990  0.00  0.00    -0.153 OA
BRANCH  25  28
ATOM     28  C   UNL     1      -3.959  -1.122   3.702  0.00  0.00    +0.106 A 
ATOM     29  C   UNL     1      -4.006  -2.458   3.348  0.00  0.00    +0.029 A 
ATOM     30  C   UNL     1      -3.368  -3.397   4.131  0.00  0.00    +0.006 A 
ATOM     31  C   UNL     1      -2.688  -3.013   5.280  0.00  0.00    -0.044 A 
ATOM     32  C   UNL     1      -2.643  -1.684   5.634  0.00  0.00    -0.042 A 
ATOM     33  C   UNL     1      -3.282  -0.739   4.841  0.00  0.00    +0.032 A 
ATOM     34  C   UNL     1      -1.917  -1.195   6.860  0.00  0.00    +0.035 C 
ATOM     35  C   UNL     1      -1.654  -2.349   7.824  0.00  0.00    +0.005 C 
ATOM     36  C   UNL     1      -0.991  -3.490   7.044  0.00  0.00    +0.005 C 
ATOM     37  C   UNL     1      -2.027  -4.092   6.097  0.00  0.00    +0.035 C 
ENDBRANCH  25  28
ENDBRANCH   4  25
TORSDOF 8
