REMARK  Name = ZINC31308154
REMARK  8 active torsions:
REMARK  status: ('A' for Active; 'I' for Inactive)
REMARK    1  A    between atoms: C_1  and  C_2
REMARK    2  A    between atoms: C_5  and  N_9
REMARK    3  A    between atoms: C_6  and  C_8
REMARK    4  A    between atoms: C_13  and  C_15
REMARK    5  A    between atoms: C_15  and  C_17
REMARK    6  A    between atoms: C_15  and  N_18
REMARK    7  A    between atoms: N_21  and  C_24
REMARK    8  A    between atoms: C_29  and  N_30
REMARK                            x       y       z     vdW  Elec       q    Type
REMARK                         _______ _______ _______ _____ _____    ______ ____
ROOT
ATOM      1  C   UNL     1      -2.190   1.202  -0.159  0.00  0.00    +0.017 C 
ATOM      2  C   UNL     1      -2.266   0.330   1.096  0.00  0.00    -0.004 C 
ENDROOT
BRANCH   1   7
ATOM      3  N   UNL     1       2.617   1.280  -0.191  0.00  0.00    -0.269 N 
ATOM      4  C   UNL     1       1.450   1.954  -0.184  0.00  0.00    +0.310 C 
ATOM      5  O   UNL     1       1.450   3.169  -0.192  0.00  0.00    -0.252 OA
ATOM      6  N   UNL     1       0.282   1.280  -0.170  0.00  0.00    -0.241 N 
ATOM      7  C   UNL     1      -0.884   1.955  -0.169  0.00  0.00    +0.207 C 
ATOM      8  O   UNL     1      -0.884   3.167  -0.176  0.00  0.00    -0.277 OA
ATOM      9  H   UNL     1       2.620   0.185  -0.083  0.00  0.00    +0.156 HD
ATOM     10  H   UNL     1       0.282   0.181  -0.158  0.00  0.00    +0.159 HD
BRANCH   3  15
ATOM     11  C   UNL     1       7.512   4.087  -0.776  0.00  0.00    +0.044 C 
ATOM     12  C   UNL     1       6.212   3.341  -0.621  0.00  0.00    -0.050 A 
ATOM     13  C   UNL     1       5.039   3.891  -1.105  0.00  0.00    +0.005 A 
ATOM     14  C   UNL     1       3.845   3.210  -0.964  0.00  0.00    +0.024 A 
ATOM     15  C   UNL     1       3.824   1.972  -0.335  0.00  0.00    +0.038 A 
ATOM     16  C   UNL     1       5.003   1.425   0.155  0.00  0.00    -0.029 A 
ATOM     17  C   UNL     1       6.194   2.109   0.006  0.00  0.00    +0.008 A 
ATOM     18  C   UNL     1       4.983   0.086   0.845  0.00  0.00    +0.045 C 
ENDBRANCH   3  15
ENDBRANCH   1   7
BRANCH   1  19
ATOM     19  N   UNL     1      -3.306   2.157  -0.160  0.00  0.00    +0.389 N 
ATOM     20  C   UNL     1      -3.272   3.009   1.037  0.00  0.00    -0.059 C 
ATOM     21  C   UNL     1      -4.400   4.039   0.959  0.00  0.00    +0.086 C 
ATOM     22  N   UNL     1      -5.690   3.342   0.849  0.00  0.00    -0.332 N 
ATOM     23  C   UNL     1      -5.724   2.490  -0.347  0.00  0.00    +0.086 C 
ATOM     24  C   UNL     1      -4.595   1.460  -0.270  0.00  0.00    -0.059 C 
ATOM     25  H   UNL     1      -3.194   2.805  -1.042  0.00  0.00    -0.081 HD
BRANCH  22  26
ATOM     26  C   UNL     1      -6.752   4.251   0.848  0.00  0.00    +0.060 A 
ATOM     27  C   UNL     1      -6.862   5.190  -0.169  0.00  0.00    +0.027 A 
ATOM     28  C   UNL     1      -7.913   6.086  -0.168  0.00  0.00    +0.022 A 
ATOM     29  C   UNL     1      -8.855   6.049   0.845  0.00  0.00    +0.043 A 
ATOM     30  C   UNL     1      -8.747   5.114   1.860  0.00  0.00    +0.054 A 
ATOM     31  C   UNL     1      -7.701   4.212   1.861  0.00  0.00    +0.148 A 
ATOM     32 CL   UNL     1     -10.175   7.177   0.844  0.00  0.00    -0.083 Cl
BRANCH  31  33
ATOM     33  N   UNL     1      -7.589   3.209   2.944  0.00  0.00    +0.058 N 
ATOM     34  O   UNL     1      -8.367   3.234   3.880  0.00  0.00    -0.126 OA
ATOM     35  O   UNL     1      -6.718   2.358   2.898  0.00  0.00    -0.126 OA
ENDBRANCH  31  33
ENDBRANCH  22  26
ENDBRANCH   1  19
TORSDOF 5
