REMARK  Name = ZINC36005701
REMARK  10 active torsions:
REMARK  status: ('A' for Active; 'I' for Inactive)
REMARK    1  A    between atoms: C_1  and  C_2
REMARK    2  A    between atoms: C_5  and  C_27
REMARK    3  A    between atoms: C_6  and  C_8
REMARK    4  A    between atoms: C_10  and  C_13
REMARK    5  A    between atoms: C_13  and  N_14
REMARK    6  A    between atoms: N_14  and  C_15
REMARK    7  A    between atoms: N_14  and  S_18
REMARK    8  A    between atoms: C_15  and  C_16
REMARK    9  A    between atoms: C_15  and  C_17
REMARK   10  A    between atoms: S_18  and  C_21
REMARK                            x       y       z     vdW  Elec       q    Type
REMARK                         _______ _______ _______ _____ _____    ______ ____
ROOT
ATOM      1  C   UNL     1       1.136  -3.798   5.899  0.00  0.00    +0.168 C 
ENDROOT
BRANCH   1   4
ATOM      2  C   UNL     1      -0.069  -4.034   2.415  0.00  0.00    +0.168 A 
ATOM      3  C   UNL     1       0.809  -4.380   3.396  0.00  0.00    +0.077 A 
ATOM      4  C   UNL     1       0.437  -3.705   4.568  0.00  0.00    +0.100 A 
ATOM      5  N   UNL     1      -0.618  -2.985   4.308  0.00  0.00    -0.081 NA
ATOM      6  O   UNL     1      -0.957  -3.172   2.946  0.00  0.00    -0.354 OA
BRANCH   2  12
ATOM      7  C   UNL     1       2.338  -4.603  -1.919  0.00  0.00    +0.044 C 
ATOM      8  C   UNL     1       1.106  -4.790  -1.071  0.00  0.00    -0.050 A 
ATOM      9  C   UNL     1      -0.009  -5.412  -1.602  0.00  0.00    +0.003 A 
ATOM     10  C   UNL     1      -1.144  -5.588  -0.831  0.00  0.00    +0.004 A 
ATOM     11  C   UNL     1      -1.170  -5.143   0.475  0.00  0.00    -0.040 A 
ATOM     12  C   UNL     1      -0.048  -4.514   1.017  0.00  0.00    +0.023 A 
ATOM     13  C   UNL     1       1.095  -4.345   0.235  0.00  0.00    +0.015 A 
ATOM     14  C   UNL     1      -2.407  -5.334   1.314  0.00  0.00    +0.044 C 
ENDBRANCH   2  12
ENDBRANCH   1   4
BRANCH   1  15
ATOM     15  N   UNL     1       0.376  -3.050   6.904  0.00  0.00    -0.168 NA
BRANCH  15  16
ATOM     16  C   UNL     1      -0.726  -3.698   7.620  0.00  0.00    +0.074 C 
ATOM     17  C   UNL     1      -1.788  -4.155   6.617  0.00  0.00    +0.025 C 
ATOM     18  C   UNL     1      -0.194  -4.910   8.387  0.00  0.00    +0.025 C 
ENDBRANCH  15  16
BRANCH  15  19
ATOM     19  S   UNL     1       0.761  -1.473   7.229  0.00  0.00    +0.061 S 
ATOM     20  O   UNL     1       0.196  -1.170   8.497  0.00  0.00    -0.153 OA
ATOM     21  O   UNL     1       2.149  -1.331   6.960  0.00  0.00    -0.153 OA
BRANCH  19  22
ATOM     22  C   UNL     1      -0.085  -0.475   6.049  0.00  0.00    +0.105 A 
ATOM     23  C   UNL     1       0.486  -0.231   4.814  0.00  0.00    +0.028 A 
ATOM     24  C   UNL     1      -0.178   0.551   3.888  0.00  0.00    +0.002 A 
ATOM     25  C   UNL     1      -1.414   1.089   4.197  0.00  0.00    +0.000 A 
ATOM     26  C   UNL     1      -1.985   0.845   5.432  0.00  0.00    +0.002 A 
ATOM     27  C   UNL     1      -1.323   0.059   6.356  0.00  0.00    +0.028 A 
ENDBRANCH  19  22
ENDBRANCH  15  19
ENDBRANCH   1  15
TORSDOF 6
