REMARK  Name = ZINC64430443
REMARK  5 active torsions:
REMARK  status: ('A' for Active; 'I' for Inactive)
REMARK    1  A    between atoms: C_1  and  C_2
REMARK    2  A    between atoms: C_7  and  C_8
REMARK    3  A    between atoms: C_8  and  O_9
REMARK    4  A    between atoms: O_9  and  N_10
REMARK    5  A    between atoms: C_11  and  C_12
REMARK                            x       y       z     vdW  Elec       q    Type
REMARK                         _______ _______ _______ _____ _____    ______ ____
ROOT
ATOM      1  N   UNL     1      -0.477  -0.292   5.065  0.00  0.00    -0.069 NA
ATOM      2  C   UNL     1      -0.088  -1.027   6.064  0.00  0.00    +0.163 C 
ATOM      3  N   UNL     1       0.337  -0.429   7.239  0.00  0.00    -0.340 N 
ATOM      4  H   UNL     1       0.344   0.537   7.316  0.00  0.00    +0.144 HD
ATOM      5  H   UNL     1       0.628  -0.978   7.984  0.00  0.00    +0.144 HD
ENDROOT
BRANCH   2   6
ATOM      6  C   UNL     1      -0.099  -2.504   5.946  0.00  0.00    +0.022 A 
ATOM      7  C   UNL     1      -0.006  -3.125   4.694  0.00  0.00    +0.029 A 
ATOM      8  C   UNL     1      -0.020  -4.502   4.625  0.00  0.00    +0.085 A 
ATOM      9  N   UNL     1      -0.118  -5.237   5.717  0.00  0.00    -0.350 N 
ATOM     10  C   UNL     1      -0.208  -4.693   6.921  0.00  0.00    +0.099 A 
ATOM     11  C   UNL     1      -0.196  -3.312   7.079  0.00  0.00    +0.053 A 
ATOM     12  N   UNL     1      -0.309  -5.512   8.040  0.00  0.00    -0.317 N 
ATOM     13  C   UNL     1      -0.170  -6.970   7.916  0.00  0.00    +0.106 C 
ATOM     14  C   UNL     1       0.906  -7.447   8.896  0.00  0.00    +0.019 C 
ATOM     15  C   UNL     1       0.554  -6.967  10.306  0.00  0.00    +0.003 C 
ATOM     16  C   UNL     1       0.522  -5.437  10.333  0.00  0.00    +0.019 C 
ATOM     17  C   UNL     1      -0.552  -4.936   9.370  0.00  0.00    +0.106 C 
ATOM     18  H   UNL     1      -0.125  -6.203   5.636  0.00  0.00    +0.166 HD
ENDBRANCH   2   6
BRANCH   1  19
ATOM     19  O   UNL     1      -1.049  -0.899   3.920  0.00  0.00    -0.388 OA
BRANCH  19  20
ATOM     20  C   UNL     1      -1.325   0.013   2.856  0.00  0.00    +0.298 C 
BRANCH  20  27
ATOM     21  C   UNL     1      -2.245   1.470   0.536  0.00  0.00    +0.044 C 
ATOM     22  C   UNL     1      -2.483  -0.015   0.637  0.00  0.00    -0.044 A 
ATOM     23  C   UNL     1      -3.137  -0.680  -0.383  0.00  0.00    +0.004 A 
ATOM     24  C   UNL     1      -3.356  -2.042  -0.291  0.00  0.00    +0.000 A 
ATOM     25  C   UNL     1      -2.920  -2.738   0.822  0.00  0.00    +0.000 A 
ATOM     26  C   UNL     1      -2.266  -2.073   1.841  0.00  0.00    +0.007 A 
ATOM     27  C   UNL     1      -2.043  -0.711   1.747  0.00  0.00    -0.005 A 
ENDBRANCH  20  27
ENDBRANCH  19  20
ENDBRANCH   1  19
TORSDOF 4
