REMARK  Name = ZINC66709239
REMARK  5 active torsions:
REMARK  status: ('A' for Active; 'I' for Inactive)
REMARK    1  A    between atoms: C_1  and  C_2
REMARK    2  A    between atoms: C_4  and  C_14
REMARK    3  A    between atoms: C_7  and  N_8
REMARK    4  A    between atoms: C_18  and  C_25
REMARK    5  A    between atoms: C_22  and  C_24
REMARK                            x       y       z     vdW  Elec       q    Type
REMARK                         _______ _______ _______ _____ _____    ______ ____
ROOT
ATOM      1  C   UNL     1      -0.022  -2.825  -2.477  0.00  0.00    +0.247 C 
ATOM      2  O   UNL     1      -0.138  -2.217  -3.524  0.00  0.00    -0.270 OA
ATOM      3  N   UNL     1       0.120  -4.165  -2.488  0.00  0.00    -0.290 N 
ATOM      4  C   UNL     1       0.129  -4.936  -1.235  0.00  0.00    +0.144 C 
ATOM      5  C   UNL     1      -0.873  -6.088  -1.369  0.00  0.00    +0.166 C 
ATOM      6  O   UNL     1      -0.594  -6.819  -2.566  0.00  0.00    -0.369 OA
ATOM      7  C   UNL     1      -0.740  -6.054  -3.765  0.00  0.00    +0.183 C 
ATOM      8  C   UNL     1       0.264  -4.901  -3.754  0.00  0.00    +0.099 C 
ATOM      9  C   UNL     1      -0.018  -3.964  -4.930  0.00  0.00    +0.030 C 
ENDROOT
BRANCH   1  13
ATOM     10  C   UNL     1      -1.623   1.008   0.281  0.00  0.00    +0.046 C 
ATOM     11  C   UNL     1      -0.806  -0.250   0.137  0.00  0.00    -0.028 A 
ATOM     12  C   UNL     1      -0.794  -0.928  -1.061  0.00  0.00    +0.018 A 
ATOM     13  C   UNL     1      -0.036  -2.095  -1.195  0.00  0.00    +0.037 A 
ATOM     14  C   UNL     1       0.708  -2.569  -0.111  0.00  0.00    +0.015 A 
ATOM     15  C   UNL     1       0.692  -1.886   1.084  0.00  0.00    +0.024 A 
ATOM     16  C   UNL     1      -0.060  -0.722   1.212  0.00  0.00    +0.041 A 
BRANCH  16  17
ATOM     17  N   UNL     1      -0.069  -0.029   2.422  0.00  0.00    -0.254 N 
ATOM     18  C   UNL     1      -1.009  -0.260   3.529  0.00  0.00    +0.134 C 
ATOM     19  C   UNL     1      -0.577   0.761   4.599  0.00  0.00    +0.125 C 
ATOM     20  N   UNL     1       0.560   1.459   3.982  0.00  0.00    -0.297 N 
ATOM     21  C   UNL     1       0.780   0.949   2.763  0.00  0.00    +0.307 C 
ATOM     22  O   UNL     1       1.668   1.341   2.031  0.00  0.00    -0.252 OA
ATOM     23  H   UNL     1       1.072   2.173   4.393  0.00  0.00    +0.150 HD
ENDBRANCH  16  17
ENDBRANCH   1  13
BRANCH   5  24
ATOM     24  C   UNL     1      -0.749  -7.004  -0.178  0.00  0.00    -0.017 A 
ATOM     25  C   UNL     1       0.270  -7.936  -0.127  0.00  0.00    +0.006 A 
ATOM     26  C   UNL     1       0.384  -8.777   0.965  0.00  0.00    +0.000 A 
ATOM     27  C   UNL     1      -0.521  -8.684   2.006  0.00  0.00    +0.000 A 
ATOM     28  C   UNL     1      -1.540  -7.751   1.955  0.00  0.00    +0.000 A 
ATOM     29  C   UNL     1      -1.651  -6.908   0.865  0.00  0.00    +0.006 A 
ENDBRANCH   5  24
TORSDOF 3
