REMARK  Name = ZINC04401989
REMARK  7 active torsions:
REMARK  status: ('A' for Active; 'I' for Inactive)
REMARK    1  A    between atoms: C_1  and  C_2
REMARK    2  A    between atoms: C_2  and  N_3
REMARK    3  A    between atoms: N_3  and  N_4
REMARK    4  A    between atoms: C_5  and  C_7
REMARK    5  A    between atoms: N_9  and  C_10
REMARK    6  A    between atoms: C_16  and  C_17
REMARK    7  A    between atoms: N_19  and  C_20
REMARK                            x       y       z     vdW  Elec       q    Type
REMARK                         _______ _______ _______ _____ _____    ______ ____
ROOT
ATOM      1  N   UNL     1      -2.715   1.685  -0.970  0.00  0.00    -0.268 N 
ATOM      2  H   UNL     1      -2.982   1.056  -1.833  0.00  0.00    +0.170 HD
ENDROOT
BRANCH   1   3
ATOM      3  N   UNL     1      -1.510   2.400  -0.972  0.00  0.00    -0.229 N 
ATOM      4  C   UNL     1      -0.679   2.319  -2.030  0.00  0.00    +0.315 C 
ATOM      5  O   UNL     1      -0.975   1.626  -2.982  0.00  0.00    -0.264 OA
ATOM      6  H   UNL     1      -1.242   3.028  -0.109  0.00  0.00    +0.173 HD
BRANCH   4   7
ATOM      7  C   UNL     1       0.601   3.086  -2.034  0.00  0.00    +0.301 C 
ATOM      8  O   UNL     1       0.897   3.779  -1.082  0.00  0.00    -0.265 OA
ATOM      9  N   UNL     1       1.430   3.009  -3.094  0.00  0.00    -0.305 N 
ATOM     10  H   UNL     1       1.162   2.381  -3.957  0.00  0.00    +0.149 HD
BRANCH   9  11
ATOM     11  C   UNL     1       2.686   3.762  -3.099  0.00  0.00    +0.073 C 
ATOM     12  C   UNL     1       2.426   5.187  -3.591  0.00  0.00    +0.022 C 
ATOM     13  C   UNL     1       3.738   5.973  -3.595  0.00  0.00    +0.002 C 
ATOM     14  C   UNL     1       4.740   5.287  -4.526  0.00  0.00    +0.000 C 
ATOM     15  C   UNL     1       5.001   3.863  -4.033  0.00  0.00    +0.002 C 
ATOM     16  C   UNL     1       3.689   3.076  -4.029  0.00  0.00    +0.022 C 
ENDBRANCH   9  11
ENDBRANCH   4   7
ENDBRANCH   1   3
BRANCH   1  18
ATOM     17  C   UNL     1      -3.137   2.622   1.216  0.00  0.00    +0.062 C 
ATOM     18  C   UNL     1      -3.504   1.762   0.035  0.00  0.00    +0.024 C 
ATOM     19  C   UNL     1      -4.799   0.992   0.036  0.00  0.00    +0.087 C 
BRANCH  19  20
ATOM     20  C   UNL     1      -5.537   1.254   1.324  0.00  0.00    +0.243 C 
ATOM     21  O   UNL     1      -5.058   1.992   2.158  0.00  0.00    -0.270 OA
ATOM     22  N   UNL     1      -6.730   0.667   1.548  0.00  0.00    -0.281 N 
ATOM     23  H   UNL     1      -7.207   0.070   0.757  0.00  0.00    +0.155 HD
BRANCH  22  24
ATOM     24  C   UNL     1      -7.361   0.816   2.789  0.00  0.00    +0.052 A 
ATOM     25  C   UNL     1      -6.609   1.093   3.923  0.00  0.00    +0.026 A 
ATOM     26  C   UNL     1      -7.234   1.240   5.146  0.00  0.00    +0.022 A 
ATOM     27  C   UNL     1      -8.609   1.113   5.242  0.00  0.00    +0.042 A 
ATOM     28  C   UNL     1      -9.361   0.837   4.114  0.00  0.00    +0.041 A 
ATOM     29  C   UNL     1      -8.742   0.693   2.887  0.00  0.00    +0.064 A 
ATOM     30 CL   UNL     1      -9.686   0.354   1.471  0.00  0.00    -0.082 Cl
ATOM     31 CL   UNL     1      -9.391   1.299   6.781  0.00  0.00    -0.083 Cl
ENDBRANCH  22  24
ENDBRANCH  19  20
ENDBRANCH   1  18
TORSDOF 6
