REMARK  Name = ZINC63541322
REMARK  7 active torsions:
REMARK  status: ('A' for Active; 'I' for Inactive)
REMARK    1  A    between atoms: C_7  and  C_10
REMARK    2  A    between atoms: C_10  and  C_11
REMARK    3  A    between atoms: C_11  and  N_12
REMARK    4  A    between atoms: C_13  and  S_24
REMARK    5  A    between atoms: S_24  and  C_25
REMARK    6  A    between atoms: C_25  and  C_26
REMARK    7  A    between atoms: N_28  and  C_29
REMARK                            x       y       z     vdW  Elec       q    Type
REMARK                         _______ _______ _______ _____ _____    ______ ____
ROOT
ATOM      1  N   UNL     1      -0.462  -4.836  -1.436  0.00  0.00    -0.268 N 
ATOM      2  C   UNL     1       0.080  -6.192  -1.343  0.00  0.00    +0.223 C 
ATOM      3  N   UNL     1      -0.853  -7.065  -0.622  0.00  0.00    -0.300 N 
ATOM      4  C   UNL     1      -2.204  -6.987  -0.915  0.00  0.00    +0.151 A 
ATOM      5  C   UNL     1      -2.720  -5.756  -1.357  0.00  0.00    +0.165 A 
ATOM      6  N   UNL     1      -4.014  -5.639  -1.622  0.00  0.00    -0.246 NA
ATOM      7  C   UNL     1      -4.806  -6.685  -1.481  0.00  0.00    +0.131 A 
ATOM      8  C   UNL     1      -4.294  -7.904  -1.059  0.00  0.00    +0.132 A 
ATOM      9  N   UNL     1      -3.006  -8.031  -0.784  0.00  0.00    -0.237 NA
ATOM     10  C   UNL     1      -1.790  -4.621  -1.524  0.00  0.00    +0.270 C 
ATOM     11  O   UNL     1      -2.218  -3.505  -1.743  0.00  0.00    -0.268 OA
ATOM     12  H   UNL     1      -0.528  -7.687   0.048  0.00  0.00    +0.150 HD
ENDROOT
BRANCH   1  13
ATOM     13  C   UNL     1       0.454  -3.692  -1.427  0.00  0.00    +0.115 C 
BRANCH  13  14
ATOM     14  C   UNL     1       0.686  -3.237   0.015  0.00  0.00    +0.052 C 
BRANCH  14  21
ATOM     15  C   UNL     1      -0.018   1.297   0.085  0.00  0.00    +0.001 A 
ATOM     16  C   UNL     1       1.165   2.050   0.085  0.00  0.00    +0.002 A 
ATOM     17  C   UNL     1       2.390   1.483   0.068  0.00  0.00    +0.026 A 
ATOM     18  C   UNL     1       2.527   0.067   0.047  0.00  0.00    +0.043 A 
ATOM     19  N   UNL     1       3.584  -0.708   0.026  0.00  0.00    -0.380 N 
ATOM     20  C   UNL     1       3.139  -2.106   0.010  0.00  0.00    +0.144 C 
ATOM     21  C   UNL     1       1.628  -2.060   0.024  0.00  0.00    -0.040 C 
ATOM     22  C   UNL     1       1.292  -0.750   0.046  0.00  0.00    -0.001 A 
ATOM     23  C   UNL     1      -0.000  -0.055   0.066  0.00  0.00    +0.010 A 
ATOM     24  H   UNL     1       4.506  -0.407   0.022  0.00  0.00    +0.160 HD
ENDBRANCH  14  21
ENDBRANCH  13  14
ENDBRANCH   1  13
BRANCH   2  25
ATOM     25  S   UNL     1       0.342  -6.849  -3.014  0.00  0.00    -0.110 S 
BRANCH  25  26
ATOM     26  C   UNL     1      -1.311  -6.822  -3.760  0.00  0.00    +0.168 C 
BRANCH  26  27
ATOM     27  C   UNL     1      -1.235  -7.350  -5.170  0.00  0.00    +0.227 C 
ATOM     28  O   UNL     1      -0.170  -7.710  -5.625  0.00  0.00    -0.275 OA
ATOM     29  N   UNL     1      -2.350  -7.423  -5.924  0.00  0.00    -0.283 N 
ATOM     30  H   UNL     1      -3.211  -7.196  -5.539  0.00  0.00    +0.155 HD
BRANCH  29  31
ATOM     31  C   UNL     1      -2.265  -7.825  -7.262  0.00  0.00    +0.069 A 
ATOM     32  C   UNL     1      -1.330  -8.778  -7.644  0.00  0.00    +0.026 A 
ATOM     33  C   UNL     1      -1.249  -9.173  -8.966  0.00  0.00    +0.002 A 
ATOM     34  C   UNL     1      -2.097  -8.621  -9.908  0.00  0.00    +0.003 A 
ATOM     35  C   UNL     1      -3.029  -7.672  -9.533  0.00  0.00    +0.040 A 
ATOM     36  C   UNL     1      -3.120  -7.276  -8.211  0.00  0.00    +0.144 A 
ATOM     37  F   UNL     1      -4.035  -6.352  -7.843  0.00  0.00    -0.204 F 
ENDBRANCH  29  31
ENDBRANCH  26  27
ENDBRANCH  25  26
ENDBRANCH   2  25
TORSDOF 7
