REMARK  Name = ZINC25436720
REMARK  16 active torsions:
REMARK  status: ('A' for Active; 'I' for Inactive)
REMARK    1  A    between atoms: C_1  and  C_2
REMARK    2  A    between atoms: C_2  and  N_3
REMARK    3  A    between atoms: N_3  and  C_4
REMARK    4  A    between atoms: C_12  and  C_14
REMARK    5  A    between atoms: C_14  and  O_15
REMARK    6  A    between atoms: O_15  and  C_16
REMARK    7  A    between atoms: C_16  and  C_18
REMARK    8  A    between atoms: C_20  and  C_32
REMARK    9  A    between atoms: C_21  and  C_31
REMARK   10  A    between atoms: C_23  and  C_30
REMARK   11  A    between atoms: C_25  and  O_27
REMARK   12  A    between atoms: O_27  and  C_28
REMARK   13  A    between atoms: C_28  and  C_29
REMARK   14  A    between atoms: C_32  and  O_34
REMARK   15  A    between atoms: O_34  and  C_35
REMARK   16  A    between atoms: C_35  and  C_36
REMARK                            x       y       z     vdW  Elec       q    Type
REMARK                         _______ _______ _______ _____ _____    ______ ____
ROOT
ATOM      1  C   UNL     1      -1.800  -1.016   5.927  0.00  0.00    +0.175 C 
ATOM      2  C   UNL     1      -2.558  -2.331   5.959  0.00  0.00    +0.076 C 
ATOM      3  C   UNL     1      -2.638  -2.989   7.176  0.00  0.00    +0.050 C 
ATOM      4  N   UNL     1      -2.085  -2.505   8.271  0.00  0.00    -0.256 NA
ATOM      5  C   UNL     1      -1.408  -1.376   8.350  0.00  0.00    +0.050 C 
ATOM      6  C   UNL     1      -1.207  -0.565   7.249  0.00  0.00    +0.076 C 
ATOM      7  C   UNL     1      -0.488   0.621   7.352  0.00  0.00    +0.338 C 
ATOM      8  O   UNL     1       0.022   0.991   8.527  0.00  0.00    -0.245 OA
ATOM      9  C   UNL     1      -0.836  -0.960   9.681  0.00  0.00    +0.066 C 
ATOM     10  C   UNL     1      -3.381  -4.298   7.251  0.00  0.00    +0.066 C 
ENDROOT
BRANCH   1  11
ATOM     11  C   UNL     1      -0.681  -1.142   4.926  0.00  0.00    +0.320 C 
ATOM     12  O   UNL     1       0.212  -1.934   5.115  0.00  0.00    -0.250 OA
BRANCH  11  13
ATOM     13  O   UNL     1      -0.675  -0.374   3.825  0.00  0.00    -0.455 OA
BRANCH  13  14
ATOM     14  C   UNL     1       0.359  -0.619   2.869  0.00  0.00    +0.327 C 
BRANCH  14  16
ATOM     15  N   UNL     1       1.195   0.415   0.783  0.00  0.00    -0.294 N 
ATOM     16  C   UNL     1       0.257   0.386   1.750  0.00  0.00    +0.254 C 
ATOM     17  O   UNL     1      -0.669   1.168   1.721  0.00  0.00    -0.272 OA
BRANCH  15  18
ATOM     18  C   UNL     1       1.096   1.392  -0.304  0.00  0.00    +0.099 C 
ATOM     19  C   UNL     1       1.086   2.816   0.277  0.00  0.00    +0.046 C 
ATOM     20  C   UNL     1       0.664   3.828  -0.815  0.00  0.00    +0.168 C 
ATOM     21  S   UNL     1      -0.401   2.812  -1.918  0.00  0.00    -0.029 S 
ATOM     22  O   UNL     1      -1.746   3.255  -1.798  0.00  0.00    -0.174 OA
ATOM     23  O   UNL     1       0.200   2.740  -3.203  0.00  0.00    -0.174 OA
ATOM     24  C   UNL     1      -0.233   1.178  -1.083  0.00  0.00    +0.188 C 
ENDBRANCH  15  18
BRANCH  15  26
ATOM     25  C   UNL     1       3.474   0.082   1.608  0.00  0.00    +0.024 C 
ATOM     26  C   UNL     1       2.314  -0.530   0.819  0.00  0.00    +0.105 C 
ENDBRANCH  15  26
ENDBRANCH  14  16
ENDBRANCH  13  14
ENDBRANCH  11  13
ENDBRANCH   1  11
BRANCH   2  27
ATOM     27  C   UNL     1      -3.148  -2.854   4.814  0.00  0.00    +0.338 C 
ATOM     28  O   UNL     1      -3.687  -4.072   4.840  0.00  0.00    -0.245 OA
BRANCH  27  29
ATOM     29  O   UNL     1      -3.174  -2.129   3.678  0.00  0.00    -0.462 OA
BRANCH  29  30
ATOM     30  C   UNL     1      -3.830  -2.713   2.550  0.00  0.00    +0.229 C 
ATOM     31  C   UNL     1      -3.690  -1.785   1.342  0.00  0.00    +0.048 C 
ENDBRANCH  29  30
ENDBRANCH  27  29
ENDBRANCH   2  27
BRANCH   7  32
ATOM     32  O   UNL     1      -0.307   1.396   6.264  0.00  0.00    -0.462 OA
BRANCH  32  33
ATOM     33  C   UNL     1       0.441   2.601   6.443  0.00  0.00    +0.229 C 
ATOM     34  C   UNL     1       0.541   3.342   5.109  0.00  0.00    +0.048 C 
ENDBRANCH  32  33
ENDBRANCH   7  32
TORSDOF 11
