REMARK  Name = ZINC62430886
REMARK  5 active torsions:
REMARK  status: ('A' for Active; 'I' for Inactive)
REMARK    1  A    between atoms: C_1  and  C_2
REMARK    2  A    between atoms: C_8  and  N_10
REMARK    3  A    between atoms: N_10  and  S_11
REMARK    4  A    between atoms: S_11  and  C_14
REMARK    5  A    between atoms: C_16  and  N_20
REMARK                            x       y       z     vdW  Elec       q    Type
REMARK                         _______ _______ _______ _____ _____    ______ ____
ROOT
ATOM      1  S   UNL     1       0.932   0.360   3.795  0.00  0.00    +0.060 S 
ATOM      2  O   UNL     1      -0.003   0.801   4.770  0.00  0.00    -0.153 OA
ATOM      3  O   UNL     1       1.827  -0.718   4.031  0.00  0.00    -0.153 OA
ENDROOT
BRANCH   1   4
ATOM      4  C   UNL     1       1.922   1.756   3.379  0.00  0.00    +0.125 A 
ATOM      5  C   UNL     1       3.192   1.583   2.854  0.00  0.00    +0.054 A 
ATOM      6  C   UNL     1       3.939   2.716   2.539  0.00  0.00    +0.045 A 
ATOM      7  C   UNL     1       3.386   3.970   2.763  0.00  0.00    +0.133 A 
ATOM      8  N   UNL     1       2.173   4.090   3.265  0.00  0.00    -0.259 NA
ATOM      9  C   UNL     1       1.439   3.038   3.568  0.00  0.00    +0.139 A 
BRANCH   6  10
ATOM     10  N   UNL     1       5.225   2.592   2.007  0.00  0.00    -0.357 N 
ATOM     11  H   UNL     1       5.604   1.713   1.854  0.00  0.00    +0.142 HD
ATOM     12  H   UNL     1       5.738   3.386   1.791  0.00  0.00    +0.142 HD
ENDBRANCH   6  10
ENDBRANCH   1   4
BRANCH   1  13
ATOM     13  N   UNL     1       0.056  -0.038   2.447  0.00  0.00    -0.187 NA
ATOM     14  H   UNL     1      -0.910   0.041   2.455  0.00  0.00    +0.148 HD
BRANCH  13  21
ATOM     15  C   UNL     1      -0.019   1.526   0.010  0.00  0.00    +0.009 C 
ATOM     16  C   UNL     1       0.002  -0.004   0.002  0.00  0.00    +0.005 C 
ATOM     17  C   UNL     1      -1.433  -0.534   0.013  0.00  0.00    +0.005 C 
ATOM     18  C   UNL     1      -1.413  -2.063   0.004  0.00  0.00    +0.000 C 
ATOM     19  C   UNL     1      -0.673  -2.570   1.244  0.00  0.00    +0.002 C 
ATOM     20  C   UNL     1       0.763  -2.041   1.233  0.00  0.00    +0.020 C 
ATOM     21  C   UNL     1       0.742  -0.511   1.242  0.00  0.00    +0.079 C 
ENDBRANCH  13  21
ENDBRANCH   1  13
TORSDOF 4
