REMARK  Name = ZINC12568823
REMARK  16 active torsions:
REMARK  status: ('A' for Active; 'I' for Inactive)
REMARK    1  A    between atoms: C_1  and  C_2
REMARK    2  A    between atoms: C_2  and  C_3
REMARK    3  A    between atoms: C_2  and  C_4
REMARK    4  A    between atoms: C_2  and  C_5
REMARK    5  A    between atoms: C_7  and  C_16
REMARK    6  A    between atoms: C_9  and  C_12
REMARK    7  A    between atoms: C_10  and  O_11
REMARK    8  A    between atoms: C_12  and  C_13
REMARK    9  A    between atoms: C_12  and  C_14
REMARK   10  A    between atoms: C_12  and  C_15
REMARK   11  A    between atoms: C_16  and  C_17
REMARK   12  A    between atoms: C_17  and  C_18
REMARK   13  A    between atoms: N_20  and  C_21
REMARK   14  A    between atoms: C_21  and  C_22
REMARK   15  A    between atoms: C_25  and  S_27
REMARK   16  A    between atoms: S_27  and  N_30
REMARK                            x       y       z     vdW  Elec       q    Type
REMARK                         _______ _______ _______ _____ _____    ______ ____
ROOT
ATOM      1  C   UNL     1      -3.658   1.831   0.029  0.00  0.00    +0.044 C 
ENDROOT
BRANCH   1   4
ATOM      2  C   UNL     1      -6.727  -0.007   1.235  0.00  0.00    -0.000 A 
ATOM      3  C   UNL     1      -5.540   0.700   1.230  0.00  0.00    +0.011 A 
ATOM      4  C   UNL     1      -4.953   1.060   0.031  0.00  0.00    -0.046 A 
ATOM      5  C   UNL     1      -5.555   0.718  -1.166  0.00  0.00    +0.011 A 
ATOM      6  C   UNL     1      -6.739   0.006  -1.167  0.00  0.00    -0.000 A 
ATOM      7  C   UNL     1      -7.330  -0.356   0.035  0.00  0.00    +0.124 A 
BRANCH   2   9
ATOM      8  C   UNL     1      -6.506   0.106   3.702  0.00  0.00    +0.015 C 
ATOM      9  C   UNL     1      -7.367  -0.398   2.542  0.00  0.00    -0.009 C 
ATOM     10  C   UNL     1      -8.761   0.225   2.634  0.00  0.00    +0.015 C 
ATOM     11  C   UNL     1      -7.483  -1.922   2.617  0.00  0.00    +0.015 C 
ENDBRANCH   2   9
BRANCH   6  12
ATOM     12  C   UNL     1      -7.391  -0.371  -2.472  0.00  0.00    -0.009 C 
ATOM     13  C   UNL     1      -6.540   0.145  -3.635  0.00  0.00    +0.015 C 
ATOM     14  C   UNL     1      -7.507  -1.894  -2.562  0.00  0.00    +0.015 C 
ATOM     15  C   UNL     1      -8.786   0.252  -2.544  0.00  0.00    +0.015 C 
ENDBRANCH   6  12
BRANCH   7  16
ATOM     16  O   UNL     1      -8.497  -1.052   0.037  0.00  0.00    -0.506 OA
ATOM     17  H   UNL     1      -9.287  -0.494   0.044  0.00  0.00    +0.292 HD
ENDBRANCH   7  16
ENDBRANCH   1   4
BRANCH   1  18
ATOM     18  C   UNL     1      -2.482   0.853   0.018  0.00  0.00    +0.100 C 
BRANCH  18  19
ATOM     19  C   UNL     1      -1.187   1.624   0.017  0.00  0.00    +0.214 C 
ATOM     20  O   UNL     1      -1.204   2.837   0.023  0.00  0.00    -0.276 OA
ATOM     21  N   UNL     1      -0.011   0.966   0.007  0.00  0.00    -0.311 N 
ATOM     22  H   UNL     1       0.002  -0.004   0.002  0.00  0.00    +0.149 HD
BRANCH  21  23
ATOM     23  C   UNL     1       1.248   1.716  -0.001  0.00  0.00    +0.146 C 
BRANCH  23  24
ATOM     24  C   UNL     1       2.406   0.752  -0.017  0.00  0.00    +0.009 A 
ATOM     25  C   UNL     1       3.052   0.212  -1.079  0.00  0.00    +0.015 A 
ATOM     26  C   UNL     1       4.101  -0.659  -0.853  0.00  0.00    +0.036 A 
ATOM     27  C   UNL     1       4.453  -0.948   0.424  0.00  0.00    +0.142 A 
ATOM     28  S   UNL     1       3.289   0.032   1.358  0.00  0.00    -0.072 S 
BRANCH  27  29
ATOM     29  S   UNL     1       5.732  -2.008   1.010  0.00  0.00    +0.062 S 
ATOM     30  O   UNL     1       5.358  -2.410   2.321  0.00  0.00    -0.153 OA
ATOM     31  O   UNL     1       5.992  -2.943  -0.028  0.00  0.00    -0.153 OA
BRANCH  29  32
ATOM     32  N   UNL     1       7.099  -1.087   1.169  0.00  0.00    -0.203 NA
ATOM     33  H   UNL     1       7.075  -0.142   0.948  0.00  0.00    +0.144 HD
ATOM     34  H   UNL     1       7.923  -1.491   1.483  0.00  0.00    +0.144 HD
ENDBRANCH  29  32
ENDBRANCH  27  29
ENDBRANCH  23  24
ENDBRANCH  21  23
ENDBRANCH  18  19
ENDBRANCH   1  18
TORSDOF 10
