REMARK  Name = ZINC20893860
REMARK  7 active torsions:
REMARK  status: ('A' for Active; 'I' for Inactive)
REMARK    1  A    between atoms: C_1  and  C_2
REMARK    2  A    between atoms: C_2  and  C_3
REMARK    3  A    between atoms: C_7  and  N_9
REMARK    4  A    between atoms: N_9  and  S_10
REMARK    5  A    between atoms: S_10  and  C_13
REMARK    6  A    between atoms: C_15  and  C_20
REMARK    7  A    between atoms: C_18  and  C_19
REMARK                            x       y       z     vdW  Elec       q    Type
REMARK                         _______ _______ _______ _____ _____    ______ ____
ROOT
ATOM      1  C   UNL     1       0.883  -0.482   2.789  0.00  0.00    +0.112 A 
ATOM      2  C   UNL     1       0.493  -1.510   3.624  0.00  0.00    +0.039 A 
ATOM      3  C   UNL     1      -0.453  -1.275   4.619  0.00  0.00    +0.004 A 
ATOM      4  C   UNL     1      -1.009  -0.004   4.759  0.00  0.00    +0.010 A 
ATOM      5  C   UNL     1      -0.616   1.014   3.915  0.00  0.00    +0.006 A 
ATOM      6  C   UNL     1       0.328   0.777   2.932  0.00  0.00    -0.024 A 
ATOM      7  C   UNL     1       0.753   1.893   2.014  0.00  0.00    +0.046 C 
ENDROOT
BRANCH   3   8
ATOM      8  C   UNL     1      -0.873  -2.374   5.522  0.00  0.00    +0.095 A 
ATOM      9  C   UNL     1       0.102  -3.250   6.068  0.00  0.00    -0.011 A 
ATOM     10  C   UNL     1      -0.317  -4.239   6.893  0.00  0.00    +0.024 A 
ATOM     11  C   UNL     1      -1.705  -4.344   7.154  0.00  0.00    +0.268 A 
ATOM     12  O   UNL     1      -2.128  -5.224   7.886  0.00  0.00    -0.266 OA
ATOM     13  N   UNL     1      -2.555  -3.468   6.588  0.00  0.00    -0.242 N 
ATOM     14  H   UNL     1      -3.635  -3.545   6.783  0.00  0.00    +0.192 HD
ATOM     15  N   UNL     1      -2.141  -2.529   5.817  0.00  0.00    -0.171 NA
ATOM     16  C   UNL     1       0.620  -5.219   7.539  0.00  0.00    +0.041 C 
ATOM     17  C   UNL     1       1.968  -5.225   6.819  0.00  0.00    +0.005 C 
ATOM     18  C   UNL     1       2.455  -3.777   6.690  0.00  0.00    +0.005 C 
ATOM     19  C   UNL     1       1.545  -3.047   5.703  0.00  0.00    +0.038 C 
ENDBRANCH   3   8
BRANCH   1  20
ATOM     20  S   UNL     1       2.085  -0.776   1.535  0.00  0.00    +0.073 S 
ATOM     21  O   UNL     1       1.560  -0.227   0.333  0.00  0.00    -0.150 OA
ATOM     22  O   UNL     1       2.464  -2.141   1.647  0.00  0.00    -0.150 OA
BRANCH  20  23
ATOM     23  N   UNL     1       3.423   0.120   1.919  0.00  0.00    -0.216 N 
ATOM     24  H   UNL     1       3.767   0.914   1.240  0.00  0.00    +0.174 HD
BRANCH  23  29
ATOM     25  C   UNL     1       5.194   0.670   5.092  0.00  0.00    -0.046 A 
ATOM     26  C   UNL     1       5.487  -0.631   5.457  0.00  0.00    +0.004 A 
ATOM     27  C   UNL     1       5.096  -1.683   4.649  0.00  0.00    +0.002 A 
ATOM     28  C   UNL     1       4.411  -1.438   3.475  0.00  0.00    +0.024 A 
ATOM     29  C   UNL     1       4.115  -0.132   3.106  0.00  0.00    +0.048 A 
ATOM     30  C   UNL     1       4.514   0.923   3.917  0.00  0.00    +0.028 A 
BRANCH  25  32
ATOM     31  C   UNL     1       7.019   2.283   5.560  0.00  0.00    +0.009 C 
ATOM     32  C   UNL     1       5.623   1.814   5.974  0.00  0.00    +0.032 C 
ENDBRANCH  25  32
ENDBRANCH  23  29
ENDBRANCH  20  23
ENDBRANCH   1  20
TORSDOF 5
