REMARK  Name = ZINC63686631
REMARK  11 active torsions:
REMARK  status: ('A' for Active; 'I' for Inactive)
REMARK    1  A    between atoms: C_1  and  C_2
REMARK    2  A    between atoms: C_2  and  N_3
REMARK    3  A    between atoms: C_4  and  C_24
REMARK    4  A    between atoms: C_8  and  S_10
REMARK    5  A    between atoms: S_10  and  C_11
REMARK    6  A    between atoms: C_11  and  C_12
REMARK    7  A    between atoms: C_24  and  O_25
REMARK    8  A    between atoms: O_25  and  C_26
REMARK    9  A    between atoms: C_29  and  C_32
REMARK   10  A    between atoms: C_32  and  C_33
REMARK   11  A    between atoms: C_32  and  C_34
REMARK                            x       y       z     vdW  Elec       q    Type
REMARK                         _______ _______ _______ _____ _____    ______ ____
ROOT
ATOM      1  N   UNL     1      -1.282  -0.747  -0.058  0.00  0.00    -0.259 NA
ATOM      2  C   UNL     1      -1.276  -2.219   0.101  0.00  0.00    +0.178 C 
ATOM      3  N   UNL     1      -2.414  -2.681  -0.736  0.00  0.00    -0.234 NA
ATOM      4  N   UNL     1      -2.356  -1.782  -1.900  0.00  0.00    -0.229 NA
ATOM      5  C   UNL     1      -1.972  -0.469  -1.334  0.00  0.00    +0.200 C 
ATOM      6  H   UNL     1      -2.291  -3.643  -1.016  0.00  0.00    +0.142 HD
ATOM      7  H   UNL     1      -1.672  -2.102  -2.570  0.00  0.00    +0.143 HD
ENDROOT
BRANCH   1   9
ATOM      8  C   UNL     1       0.704  -0.352   1.321  0.00  0.00    +0.020 C 
ATOM      9  C   UNL     1       0.087  -0.214  -0.073  0.00  0.00    +0.085 C 
ENDBRANCH   1   9
BRANCH   5  10
ATOM     10  S   UNL     1      -0.853   0.394  -2.471  0.00  0.00    -0.119 S 
BRANCH  10  11
ATOM     11  C   UNL     1      -1.950   1.028  -3.770  0.00  0.00    +0.125 C 
BRANCH  11  12
ATOM     12  C   UNL     1      -1.155   1.878  -4.728  0.00  0.00    +0.030 A 
ATOM     13  N   UNL     1      -0.774   3.118  -4.336  0.00  0.00    -0.356 N 
ATOM     14  C   UNL     1      -0.048   3.945  -5.164  0.00  0.00    +0.069 A 
ATOM     15  C   UNL     1       0.312   3.498  -6.447  0.00  0.00    +0.046 A 
ATOM     16  C   UNL     1       1.047   4.327  -7.295  0.00  0.00    +0.014 A 
ATOM     17  C   UNL     1       1.415   5.574  -6.871  0.00  0.00    +0.002 A 
ATOM     18  C   UNL     1       1.065   6.021  -5.605  0.00  0.00    +0.022 A 
ATOM     19  C   UNL     1       0.338   5.218  -4.752  0.00  0.00    +0.065 A 
ATOM     20 CL   UNL     1      -0.095   5.792  -3.171  0.00  0.00    -0.081 Cl
ATOM     21  C   UNL     1      -0.106   2.148  -6.864  0.00  0.00    +0.190 A 
ATOM     22  O   UNL     1       0.179   1.712  -7.967  0.00  0.00    -0.287 OA
ATOM     23  C   UNL     1      -0.846   1.373  -5.940  0.00  0.00    +0.073 A 
ATOM     24  H   UNL     1      -1.020   3.431  -3.451  0.00  0.00    +0.166 HD
ENDBRANCH  11  12
ENDBRANCH  10  11
ENDBRANCH   5  10
BRANCH   2  25
ATOM     25  C   UNL     1      -1.498  -2.600   1.567  0.00  0.00    +0.265 C 
BRANCH  25  26
ATOM     26  O   UNL     1      -2.758  -2.090   2.006  0.00  0.00    -0.489 OA
BRANCH  26  27
ATOM     27  C   UNL     1      -3.110  -2.343   3.295  0.00  0.00    +0.121 A 
ATOM     28  C   UNL     1      -2.257  -3.062   4.120  0.00  0.00    +0.046 A 
ATOM     29  C   UNL     1      -2.618  -3.317   5.429  0.00  0.00    +0.007 A 
ATOM     30  C   UNL     1      -3.827  -2.856   5.917  0.00  0.00    -0.045 A 
ATOM     31  C   UNL     1      -4.678  -2.140   5.096  0.00  0.00    +0.007 A 
ATOM     32  C   UNL     1      -4.320  -1.877   3.788  0.00  0.00    +0.046 A 
BRANCH  30  33
ATOM     33  C   UNL     1      -4.217  -3.136   7.345  0.00  0.00    +0.013 C 
ATOM     34  C   UNL     1      -4.420  -1.813   8.087  0.00  0.00    +0.012 C 
ATOM     35  C   UNL     1      -5.519  -3.940   7.370  0.00  0.00    +0.012 C 
ENDBRANCH  30  33
ENDBRANCH  26  27
ENDBRANCH  25  26
ENDBRANCH   2  25
TORSDOF 8
