REMARK  Name = ZINC09533644
REMARK  6 active torsions:
REMARK  status: ('A' for Active; 'I' for Inactive)
REMARK    1  A    between atoms: C_4  and  N_16
REMARK    2  A    between atoms: C_5  and  C_7
REMARK    3  A    between atoms: N_9  and  C_10
REMARK    4  A    between atoms: C_10  and  C_11
REMARK    5  A    between atoms: C_17  and  C_19
REMARK    6  A    between atoms: C_19  and  N_20
REMARK                            x       y       z     vdW  Elec       q    Type
REMARK                         _______ _______ _______ _____ _____    ______ ____
ROOT
ATOM      1  N   UNL     1       1.944  -3.704  -1.703  0.00  0.00    -0.284 N 
ATOM      2  C   UNL     1       1.663  -2.411  -1.447  0.00  0.00    +0.235 C 
ATOM      3  O   UNL     1       1.496  -1.634  -2.364  0.00  0.00    -0.274 OA
ATOM      4  H   UNL     1       2.157  -4.307  -0.973  0.00  0.00    +0.155 HD
ENDROOT
BRANCH   1   8
ATOM      5  C   UNL     1       1.902  -5.110  -5.628  0.00  0.00    +0.001 A 
ATOM      6  C   UNL     1       1.147  -4.003  -5.274  0.00  0.00    +0.002 A 
ATOM      7  C   UNL     1       1.160  -3.535  -3.976  0.00  0.00    +0.024 A 
ATOM      8  C   UNL     1       1.931  -4.174  -3.014  0.00  0.00    +0.046 A 
ATOM      9  C   UNL     1       2.700  -5.291  -3.370  0.00  0.00    +0.058 A 
ATOM     10  C   UNL     1       2.674  -5.756  -4.687  0.00  0.00    +0.015 A 
BRANCH   9  11
ATOM     11  C   UNL     1       3.529  -5.975  -2.359  0.00  0.00    +0.246 C 
ATOM     12  O   UNL     1       3.477  -5.627  -1.195  0.00  0.00    -0.270 OA
ATOM     13  N   UNL     1       4.343  -6.985  -2.725  0.00  0.00    -0.304 N 
ATOM     14  H   UNL     1       4.384  -7.262  -3.654  0.00  0.00    +0.149 HD
BRANCH  13  15
ATOM     15  C   UNL     1       5.165  -7.663  -1.721  0.00  0.00    +0.179 C 
BRANCH  15  16
ATOM     16  C   UNL     1       5.978  -8.745  -2.385  0.00  0.00    +0.122 A 
ATOM     17  C   UNL     1       7.207  -8.596  -2.909  0.00  0.00    +0.046 A 
ATOM     18  C   UNL     1       7.589  -9.857  -3.423  0.00  0.00    +0.041 A 
ATOM     19  C   UNL     1       6.570 -10.701  -3.183  0.00  0.00    +0.195 A 
ATOM     20  O   UNL     1       5.599 -10.023  -2.548  0.00  0.00    -0.466 OA
ENDBRANCH  15  16
ENDBRANCH  13  15
ENDBRANCH   9  11
ENDBRANCH   1   8
BRANCH   2  21
ATOM     21  C   UNL     1       1.555  -1.930  -0.023  0.00  0.00    +0.214 C 
BRANCH  21  22
ATOM     22  N   UNL     1       1.244  -0.499  -0.013  0.00  0.00    -0.215 N 
ATOM     23  C   UNL     1       2.173   0.479  -0.005  0.00  0.00    +0.252 C 
ATOM     24  O   UNL     1       3.378   0.347  -0.005  0.00  0.00    -0.272 OA
ATOM     25  C   UNL     1       1.395   1.775   0.005  0.00  0.00    +0.144 C 
ATOM     26  C   UNL     1       1.706   2.573   1.268  0.00  0.00    +0.081 C 
ATOM     27  C   UNL     1       1.108   3.977   1.110  0.00  0.00    +0.232 C 
ATOM     28  O   UNL     1       1.761   4.628   0.020  0.00  0.00    -0.492 OA
ATOM     29  C   UNL     1       1.867   3.956  -1.156  0.00  0.00    +0.126 A 
ATOM     30  C   UNL     1       1.704   2.582  -1.224  0.00  0.00    +0.027 A 
ATOM     31  C   UNL     1       1.827   1.935  -2.442  0.00  0.00    +0.010 A 
ATOM     32  C   UNL     1       2.107   2.653  -3.588  0.00  0.00    +0.001 A 
ATOM     33  C   UNL     1       2.266   4.025  -3.523  0.00  0.00    +0.004 A 
ATOM     34  C   UNL     1       2.147   4.676  -2.312  0.00  0.00    +0.046 A 
ATOM     35  N   UNL     1      -0.010   1.348   0.001  0.00  0.00    -0.281 N 
ATOM     36  C   UNL     1       0.002   0.001  -0.010  0.00  0.00    +0.310 C 
ATOM     37  O   UNL     1      -1.002  -0.683  -0.016  0.00  0.00    -0.252 OA
ATOM     38  H   UNL     1      -0.791   1.922   0.001  0.00  0.00    +0.152 HD
ENDBRANCH  21  22
ENDBRANCH   2  21
TORSDOF 6
