REMARK  Name = ZINC08826955
REMARK  15 active torsions:
REMARK  status: ('A' for Active; 'I' for Inactive)
REMARK    1  A    between atoms: C_1  and  C_2
REMARK    2  A    between atoms: C_9  and  C_36
REMARK    3  A    between atoms: C_10  and  C_11
REMARK    4  A    between atoms: C_11  and  C_13
REMARK    5  A    between atoms: C_14  and  O_35
REMARK    6  A    between atoms: N_17  and  C_30
REMARK    7  A    between atoms: C_18  and  C_20
REMARK    8  A    between atoms: C_23  and  C_26
REMARK    9  A    between atoms: C_26  and  O_28
REMARK   10  A    between atoms: O_28  and  C_29
REMARK   11  A    between atoms: C_30  and  C_31
REMARK   12  A    between atoms: C_31  and  C_32
REMARK   13  A    between atoms: C_32  and  N_66
REMARK   14  A    between atoms: C_33  and  N_66
REMARK   15  A    between atoms: C_34  and  N_66
REMARK                            x       y       z     vdW  Elec       q    Type
REMARK                         _______ _______ _______ _____ _____    ______ ____
ROOT
ATOM      1  C   UNL     1      -4.550  -3.195   1.564  0.00  0.00    +0.073 C 
ATOM      2  C   UNL     1      -4.799  -3.046   0.244  0.00  0.00    +0.188 C 
ATOM      3  C   UNL     1      -3.526  -2.830  -0.470  0.00  0.00    +0.282 C 
ATOM      4  O   UNL     1      -3.418  -2.664  -1.669  0.00  0.00    -0.267 OA
ATOM      5  N   UNL     1      -2.501  -2.846   0.402  0.00  0.00    -0.284 N 
ATOM      6  C   UNL     1      -3.053  -3.080   1.742  0.00  0.00    +0.145 C 
ENDROOT
BRANCH   6   7
ATOM      7  C   UNL     1      -2.729  -1.919   2.646  0.00  0.00    -0.022 A 
ATOM      8  C   UNL     1      -2.947  -0.624   2.210  0.00  0.00    +0.006 A 
ATOM      9  C   UNL     1      -2.657   0.443   3.035  0.00  0.00    +0.015 A 
ATOM     10  C   UNL     1      -2.132   0.214   4.308  0.00  0.00    +0.059 A 
ATOM     11  C   UNL     1      -1.909  -1.095   4.740  0.00  0.00    +0.015 A 
ATOM     12  C   UNL     1      -2.209  -2.153   3.907  0.00  0.00    +0.006 A 
BRANCH  10  13
ATOM     13  C   UNL     1      -1.813   1.352   5.195  0.00  0.00    +0.339 C 
ATOM     14  O   UNL     1      -1.355   1.150   6.301  0.00  0.00    -0.245 OA
BRANCH  13  15
ATOM     15  O   UNL     1      -2.029   2.614   4.775  0.00  0.00    -0.464 OA
ATOM     16  C   UNL     1      -1.692   3.682   5.699  0.00  0.00    +0.280 C 
ENDBRANCH  13  15
ENDBRANCH  10  13
ENDBRANCH   6   7
BRANCH   1  17
ATOM     17  C   UNL     1      -5.541  -3.428   2.622  0.00  0.00    +0.213 C 
ATOM     18  O   UNL     1      -5.936  -2.497   3.303  0.00  0.00    -0.285 OA
BRANCH  17  28
ATOM     19  C   UNL     1      -8.330  -8.597   4.322  0.00  0.00    +0.047 C 
ATOM     20  C   UNL     1      -8.141  -7.106   4.433  0.00  0.00    -0.008 A 
ATOM     21  C   UNL     1      -8.892  -6.380   5.309  0.00  0.00    +0.008 A 
ATOM     22  C   UNL     1      -8.704  -4.995   5.400  0.00  0.00    +0.018 A 
ATOM     23  C   UNL     1      -7.782  -4.382   4.622  0.00  0.00    +0.093 A 
ATOM     24  N   UNL     1      -7.029  -5.099   3.745  0.00  0.00    -0.296 N 
ATOM     25  C   UNL     1      -7.189  -6.451   3.633  0.00  0.00    +0.141 A 
ATOM     26  N   UNL     1      -6.338  -6.905   2.712  0.00  0.00    -0.232 NA
ATOM     27  C   UNL     1      -5.635  -5.902   2.216  0.00  0.00    +0.068 A 
ATOM     28  C   UNL     1      -6.040  -4.734   2.851  0.00  0.00    +0.116 A 
ATOM     29  C   UNL     1      -4.576  -6.007   1.150  0.00  0.00    +0.068 C 
ENDBRANCH  17  28
ENDBRANCH   1  17
BRANCH   2  30
ATOM     30  O   UNL     1      -6.024  -3.089  -0.333  0.00  0.00    -0.502 OA
ATOM     31  H   UNL     1      -5.933  -2.951  -1.319  0.00  0.00    +0.292 HD
ENDBRANCH   2  30
BRANCH   5  32
ATOM     32  C   UNL     1      -1.085  -2.667   0.072  0.00  0.00    +0.107 C 
BRANCH  32  33
ATOM     33  C   UNL     1      -0.728  -1.181   0.143  0.00  0.00    +0.000 C 
BRANCH  33  34
ATOM     34  C   UNL     1       0.751  -0.995  -0.201  0.00  0.00    -0.078 C 
BRANCH  34  37
ATOM     35  C   UNL     1       2.546   0.629  -0.223  0.00  0.00    -0.097 C 
ATOM     36  C   UNL     1       0.393   1.192  -1.177  0.00  0.00    -0.097 C 
ATOM     37  N   UNL     1       1.085   0.442  -0.107  0.00  0.00    +0.376 N 
ATOM     38  H   UNL     1       0.774   0.798   0.804  0.00  0.00    -0.083 HD
ENDBRANCH  34  37
ENDBRANCH  33  34
ENDBRANCH  32  33
ENDBRANCH   5  32
TORSDOF 10
