REMARK  Name = ZINC39676556
REMARK  11 active torsions:
REMARK  status: ('A' for Active; 'I' for Inactive)
REMARK    1  A    between atoms: C_1  and  O_2
REMARK    2  A    between atoms: O_2  and  C_3
REMARK    3  A    between atoms: C_6  and  C_9
REMARK    4  A    between atoms: C_9  and  C_10
REMARK    5  A    between atoms: C_9  and  N_18
REMARK    6  A    between atoms: C_13  and  O_16
REMARK    7  A    between atoms: O_16  and  C_17
REMARK    8  A    between atoms: C_19  and  C_21
REMARK    9  A    between atoms: C_32  and  C_34
REMARK   10  A    between atoms: C_34  and  C_35
REMARK   11  A    between atoms: C_35  and  C_36
REMARK                            x       y       z     vdW  Elec       q    Type
REMARK                         _______ _______ _______ _____ _____    ______ ____
ROOT
ATOM      1  N   UNL     1       0.452  -2.945  -4.438  0.00  0.00    -0.304 N 
ATOM      2  C   UNL     1       0.681  -3.526  -5.633  0.00  0.00    +0.219 C 
ATOM      3  O   UNL     1       1.535  -3.081  -6.370  0.00  0.00    -0.275 OA
ATOM      4  H   UNL     1      -0.231  -3.300  -3.849  0.00  0.00    +0.150 HD
ENDROOT
BRANCH   2   5
ATOM      5  C   UNL     1      -0.125  -4.728  -6.052  0.00  0.00    +0.100 C 
ATOM      6  C   UNL     1       0.726  -5.662  -6.942  0.00  0.00    +0.121 C 
ATOM      7  N   UNL     1      -0.221  -6.173  -7.961  0.00  0.00    -0.300 N 
ATOM      8  C   UNL     1      -1.072  -5.005  -8.293  0.00  0.00    +0.115 C 
ATOM      9  C   UNL     1      -1.303  -4.299  -6.942  0.00  0.00    -0.004 C 
ATOM     10  C   UNL     1      -2.623  -4.756  -6.328  0.00  0.00    -0.010 C 
ATOM     11  C   UNL     1      -3.783  -4.269  -7.201  0.00  0.00    -0.082 C 
ATOM     12  N   UNL     1      -3.744  -2.804  -7.296  0.00  0.00    +0.379 N 
ATOM     13  C   UNL     1      -2.513  -2.378  -7.972  0.00  0.00    -0.082 C 
ATOM     14  C   UNL     1      -1.300  -2.786  -7.132  0.00  0.00    -0.010 C 
ATOM     15  C   UNL     1      -0.293  -7.419  -8.470  0.00  0.00    +0.216 C 
ATOM     16  O   UNL     1      -1.131  -7.686  -9.305  0.00  0.00    -0.276 OA
ATOM     17  H   UNL     1      -4.543  -2.482  -7.821  0.00  0.00    -0.086 HD
ATOM     18  H   UNL     1      -3.772  -2.408  -6.369  0.00  0.00    -0.086 HD
BRANCH  15  19
ATOM     19  C   UNL     1       0.668  -8.481  -8.001  0.00  0.00    +0.096 C 
BRANCH  19  20
ATOM     20  C   UNL     1       0.373  -9.793  -8.731  0.00  0.00    +0.013 C 
BRANCH  20  21
ATOM     21  C   UNL     1       1.349 -10.872  -8.255  0.00  0.00    -0.011 C 
ATOM     22  C   UNL     1       2.779 -10.535  -8.726  0.00  0.00    +0.003 C 
ATOM     23  C   UNL     1       3.397 -11.911  -9.077  0.00  0.00    +0.000 C 
ATOM     24  C   UNL     1       2.208 -12.667  -9.720  0.00  0.00    +0.000 C 
ATOM     25  C   UNL     1       0.986 -12.227  -8.887  0.00  0.00    +0.003 C 
ENDBRANCH  20  21
ENDBRANCH  19  20
ENDBRANCH  15  19
ENDBRANCH   2   5
BRANCH   1  26
ATOM     26  C   UNL     1       1.235  -1.775  -4.030  0.00  0.00    +0.134 C 
BRANCH  26  30
ATOM     27  C   UNL     1      -0.548   1.762  -5.633  0.00  0.00    +0.120 A 
ATOM     28  C   UNL     1       0.833   1.627  -5.614  0.00  0.00    +0.046 A 
ATOM     29  C   UNL     1       1.406   0.483  -5.095  0.00  0.00    +0.009 A 
ATOM     30  C   UNL     1       0.606  -0.528  -4.595  0.00  0.00    -0.023 A 
ATOM     31  C   UNL     1      -0.770  -0.396  -4.614  0.00  0.00    +0.009 A 
ATOM     32  C   UNL     1      -1.349   0.749  -5.126  0.00  0.00    +0.046 A 
BRANCH  27  34
ATOM     33  C   UNL     1      -0.229   3.889  -6.647  0.00  0.00    +0.277 C 
ATOM     34  O   UNL     1      -1.115   2.887  -6.143  0.00  0.00    -0.495 OA
ENDBRANCH  27  34
ENDBRANCH  26  30
BRANCH  26  35
ATOM     35  C   UNL     1       1.261  -1.688  -2.526  0.00  0.00    -0.023 A 
ATOM     36  C   UNL     1       0.122  -1.980  -1.798  0.00  0.00    +0.009 A 
ATOM     37  C   UNL     1       0.143  -1.900  -0.419  0.00  0.00    +0.046 A 
ATOM     38  C   UNL     1       1.308  -1.527   0.235  0.00  0.00    +0.120 A 
ATOM     39  C   UNL     1       2.449  -1.235  -0.498  0.00  0.00    +0.046 A 
ATOM     40  C   UNL     1       2.425  -1.322  -1.876  0.00  0.00    +0.009 A 
BRANCH  38  41
ATOM     41  O   UNL     1       1.331  -1.448   1.592  0.00  0.00    -0.495 OA
ATOM     42  C   UNL     1       2.565  -1.058   2.198  0.00  0.00    +0.277 C 
ENDBRANCH  38  41
ENDBRANCH  26  35
ENDBRANCH   1  26
TORSDOF 9
