REMARK  Name = ZINC41788097
REMARK  9 active torsions:
REMARK  status: ('A' for Active; 'I' for Inactive)
REMARK    1  A    between atoms: C_1  and  C_2
REMARK    2  A    between atoms: C_2  and  C_3
REMARK    3  A    between atoms: C_2  and  C_4
REMARK    4  A    between atoms: C_4  and  C_6
REMARK    5  A    between atoms: C_4  and  N_23
REMARK    6  A    between atoms: C_6  and  N_7
REMARK    7  A    between atoms: C_8  and  C_10
REMARK    8  A    between atoms: C_10  and  C_11
REMARK    9  A    between atoms: N_23  and  C_24
REMARK                            x       y       z     vdW  Elec       q    Type
REMARK                         _______ _______ _______ _____ _____    ______ ____
ROOT
ATOM      1  N   UNL     1      -2.850  -2.207  -0.157  0.00  0.00    -0.313 N 
ATOM      2  C   UNL     1      -3.204  -3.492  -0.359  0.00  0.00    +0.215 C 
ATOM      3  O   UNL     1      -2.349  -4.340  -0.505  0.00  0.00    -0.276 OA
ATOM      4  H   UNL     1      -3.534  -1.529  -0.041  0.00  0.00    +0.149 HD
ENDROOT
BRANCH   1   5
ATOM      5  C   UNL     1      -1.434  -1.835  -0.115  0.00  0.00    +0.126 C 
BRANCH   5   6
ATOM      6  C   UNL     1      -1.310  -0.329   0.125  0.00  0.00    +0.090 C 
BRANCH   6   8
ATOM      7  C   UNL     1       0.301   1.561   0.401  0.00  0.00    +0.009 C 
ATOM      8  C   UNL     1       0.165   0.040   0.294  0.00  0.00    +0.004 C 
ATOM      9  C   UNL     1       0.712  -0.611   1.565  0.00  0.00    +0.009 C 
ENDBRANCH   6   8
BRANCH   6  10
ATOM     10  N   UNL     1      -2.046   0.035   1.338  0.00  0.00    -0.339 N 
ATOM     11  H   UNL     1      -1.691  -0.200   2.210  0.00  0.00    +0.146 HD
BRANCH  10  12
ATOM     12  C   UNL     1      -3.260   0.720   1.239  0.00  0.00    +0.027 A 
ATOM     13  C   UNL     1      -3.831   0.947  -0.006  0.00  0.00    +0.023 A 
ATOM     14  C   UNL     1      -5.031   1.624  -0.100  0.00  0.00    +0.002 A 
ATOM     15  C   UNL     1      -5.663   2.076   1.044  0.00  0.00    +0.000 A 
ATOM     16  C   UNL     1      -5.097   1.851   2.285  0.00  0.00    +0.002 A 
ATOM     17  C   UNL     1      -3.900   1.170   2.386  0.00  0.00    +0.023 A 
ENDBRANCH  10  12
ENDBRANCH   6  10
ENDBRANCH   5   6
ENDBRANCH   1   5
BRANCH   2  18
ATOM     18  C   UNL     1      -4.660  -3.875  -0.403  0.00  0.00    +0.119 C 
BRANCH  18  19
ATOM     19  C   UNL     1      -4.785  -5.381  -0.642  0.00  0.00    +0.146 C 
ATOM     20  C   UNL     1      -6.237  -5.751  -0.799  0.00  0.00    +0.231 C 
ATOM     21  O   UNL     1      -6.681  -5.882  -1.920  0.00  0.00    -0.274 OA
ATOM     22  N   UNL     1      -7.055  -5.940   0.231  0.00  0.00    -0.284 N 
ATOM     23  C   UNL     1      -6.706  -5.949   1.578  0.00  0.00    +0.047 A 
ATOM     24  C   UNL     1      -7.703  -5.815   2.539  0.00  0.00    +0.024 A 
ATOM     25  C   UNL     1      -7.381  -5.812   3.882  0.00  0.00    +0.002 A 
ATOM     26  C   UNL     1      -6.066  -5.941   4.287  0.00  0.00    +0.001 A 
ATOM     27  C   UNL     1      -5.064  -6.079   3.344  0.00  0.00    +0.016 A 
ATOM     28  C   UNL     1      -5.382  -6.088   1.996  0.00  0.00    +0.030 A 
ATOM     29  S   UNL     1      -4.106  -6.285   0.783  0.00  0.00    -0.110 S 
ATOM     30  H   UNL     1      -7.991  -6.087   0.023  0.00  0.00    +0.155 HD
ENDBRANCH  18  19
ENDBRANCH   2  18
TORSDOF 7
