REMARK  Name = ZINC22959973
REMARK  9 active torsions:
REMARK  status: ('A' for Active; 'I' for Inactive)
REMARK    1  A    between atoms: C_1  and  C_2
REMARK    2  A    between atoms: C_2  and  C_3
REMARK    3  A    between atoms: C_2  and  C_4
REMARK    4  A    between atoms: C_2  and  N_5
REMARK    5  A    between atoms: C_6  and  C_8
REMARK    6  A    between atoms: C_11  and  N_14
REMARK    7  A    between atoms: N_14  and  S_15
REMARK    8  A    between atoms: S_15  and  C_18
REMARK    9  A    between atoms: C_23  and  C_24
REMARK                            x       y       z     vdW  Elec       q    Type
REMARK                         _______ _______ _______ _____ _____    ______ ____
ROOT
ATOM      1  C   UNL     1      -2.087   0.524  -0.117  0.00  0.00    +0.037 A 
ATOM      2  C   UNL     1      -2.210  -0.866  -0.195  0.00  0.00    +0.015 A 
ATOM      3  C   UNL     1      -3.455  -1.449  -0.144  0.00  0.00    +0.027 A 
ATOM      4  C   UNL     1      -4.593  -0.655  -0.027  0.00  0.00    +0.074 A 
ATOM      5  C   UNL     1      -4.474   0.730   0.044  0.00  0.00    +0.027 A 
ATOM      6  C   UNL     1      -3.231   1.319  -0.000  0.00  0.00    +0.015 A 
ENDROOT
BRANCH   1   8
ATOM      7  N   UNL     1       0.349   0.385  -0.278  0.00  0.00    -0.307 N 
ATOM      8  C   UNL     1      -0.753   1.152  -0.165  0.00  0.00    +0.244 C 
ATOM      9  O   UNL     1      -0.648   2.362  -0.103  0.00  0.00    -0.270 OA
ATOM     10  H   UNL     1       0.255  -0.710  -0.330  0.00  0.00    +0.150 HD
BRANCH   7  12
ATOM     11  C   UNL     1       1.915   1.806   0.952  0.00  0.00    +0.031 C 
ATOM     12  C   UNL     1       1.674   1.009  -0.332  0.00  0.00    +0.026 C 
ATOM     13  C   UNL     1       2.744  -0.077  -0.466  0.00  0.00    +0.031 C 
ATOM     14  C   UNL     1       1.746   1.949  -1.537  0.00  0.00    +0.031 C 
ENDBRANCH   7  12
ENDBRANCH   1   8
BRANCH   4  15
ATOM     15  N   UNL     1      -5.850  -1.247   0.018  0.00  0.00    -0.098 NA
BRANCH  15  16
ATOM     16  S   UNL     1      -6.245  -2.438  -1.063  0.00  0.00    +0.092 S 
ATOM     17  O   UNL     1      -5.213  -3.412  -0.988  0.00  0.00    -0.148 OA
ATOM     18  O   UNL     1      -7.611  -2.755  -0.837  0.00  0.00    -0.148 OA
BRANCH  16  19
ATOM     19  C   UNL     1      -6.152  -1.730  -2.674  0.00  0.00    +0.122 A 
ATOM     20  C   UNL     1      -5.191  -2.166  -3.567  0.00  0.00    +0.029 A 
ATOM     21  C   UNL     1      -5.122  -1.615  -4.832  0.00  0.00    +0.002 A 
ATOM     22  C   UNL     1      -6.007  -0.619  -5.201  0.00  0.00    +0.001 A 
ATOM     23  C   UNL     1      -6.965  -0.179  -4.307  0.00  0.00    +0.014 A 
ATOM     24  C   UNL     1      -7.037  -0.734  -3.043  0.00  0.00    +0.081 A 
BRANCH  24  25
ATOM     25  C   UNL     1      -8.081  -0.254  -2.068  0.00  0.00    +0.419 C 
ATOM     26  F   UNL     1      -8.761   0.840  -2.614  0.00  0.00    -0.166 F 
ATOM     27  F   UNL     1      -8.989  -1.287  -1.811  0.00  0.00    -0.166 F 
ATOM     28  F   UNL     1      -7.462   0.131  -0.874  0.00  0.00    -0.166 F 
ENDBRANCH  24  25
ENDBRANCH  16  19
ENDBRANCH  15  16
ENDBRANCH   4  15
TORSDOF 6
