REMARK  Name = ZINC29848136
REMARK  9 active torsions:
REMARK  status: ('A' for Active; 'I' for Inactive)
REMARK    1  A    between atoms: C_1  and  C_2
REMARK    2  A    between atoms: C_3  and  C_15
REMARK    3  A    between atoms: C_4  and  S_13
REMARK    4  A    between atoms: C_6  and  C_8
REMARK    5  A    between atoms: S_13  and  C_14
REMARK    6  A    between atoms: C_15  and  O_17
REMARK    7  A    between atoms: O_17  and  C_18
REMARK    8  A    between atoms: C_18  and  C_19
REMARK    9  A    between atoms: C_27  and  N_29
REMARK                            x       y       z     vdW  Elec       q    Type
REMARK                         _______ _______ _______ _____ _____    ______ ____
ROOT
ATOM      1  C   UNL     1       2.346   7.376  -1.529  0.00  0.00    +0.344 C 
ATOM      2  O   UNL     1       2.352   8.111  -0.561  0.00  0.00    -0.245 OA
ENDROOT
BRANCH   1   5
ATOM      3  C   UNL     1       4.854   7.958  -2.906  0.00  0.00    +0.066 C 
ATOM      4  C   UNL     1       3.523   8.229  -3.560  0.00  0.00    +0.057 A 
ATOM      5  C   UNL     1       2.330   7.944  -2.884  0.00  0.00    +0.112 A 
ATOM      6  C   UNL     1       1.108   8.213  -3.544  0.00  0.00    +0.115 A 
ATOM      7  N   UNL     1       1.141   8.731  -4.766  0.00  0.00    -0.218 NA
ATOM      8  C   UNL     1       2.299   8.984  -5.365  0.00  0.00    +0.197 A 
ATOM      9  N   UNL     1       3.467   8.739  -4.775  0.00  0.00    -0.229 NA
BRANCH   8  10
ATOM     10  C   UNL     1       2.291   9.553  -6.724  0.00  0.00    +0.172 A 
ATOM     11  C   UNL     1       1.184   9.858  -7.457  0.00  0.00    +0.053 A 
ATOM     12  C   UNL     1       1.640  10.373  -8.683  0.00  0.00    +0.042 A 
ATOM     13  C   UNL     1       2.989  10.358  -8.642  0.00  0.00    +0.196 A 
ATOM     14  O   UNL     1       3.378   9.868  -7.457  0.00  0.00    -0.460 OA
ENDBRANCH   8  10
BRANCH   6  15
ATOM     15  S   UNL     1      -0.430   7.872  -2.756  0.00  0.00    -0.108 S 
ATOM     16  C   UNL     1      -1.573   8.408  -4.052  0.00  0.00    +0.091 C 
ENDBRANCH   6  15
ENDBRANCH   1   5
BRANCH   1  17
ATOM     17  O   UNL     1       2.356   6.038  -1.359  0.00  0.00    -0.453 OA
BRANCH  17  18
ATOM     18  C   UNL     1       2.372   5.548   0.007  0.00  0.00    +0.308 C 
BRANCH  18  19
ATOM     19  C   UNL     1       2.380   4.041  -0.000  0.00  0.00    +0.169 A 
ATOM     20  N   UNL     1       1.231   3.408   0.009  0.00  0.00    -0.228 NA
ATOM     21  C   UNL     1       1.193   2.067   0.002  0.00  0.00    +0.076 A 
ATOM     22  C   UNL     1      -0.016   1.359   0.009  0.00  0.00    +0.028 A 
ATOM     23  C   UNL     1       0.002  -0.004   0.002  0.00  0.00    +0.002 A 
ATOM     24  C   UNL     1       1.204  -0.705  -0.013  0.00  0.00    +0.001 A 
ATOM     25  C   UNL     1       2.399  -0.047  -0.021  0.00  0.00    +0.013 A 
ATOM     26  C   UNL     1       2.415   1.352  -0.014  0.00  0.00    +0.040 A 
ATOM     27  C   UNL     1       3.623   2.091  -0.023  0.00  0.00    +0.128 A 
ATOM     28  N   UNL     1       3.547   3.416  -0.015  0.00  0.00    -0.214 NA
BRANCH  27  29
ATOM     29  N   UNL     1       4.844   1.452  -0.038  0.00  0.00    -0.343 N 
ATOM     30  H   UNL     1       5.773   2.041  -0.044  0.00  0.00    +0.144 HD
ATOM     31  H   UNL     1       4.890   0.353  -0.043  0.00  0.00    +0.144 HD
ENDBRANCH  27  29
ENDBRANCH  18  19
ENDBRANCH  17  18
ENDBRANCH   1  17
TORSDOF 7
