REMARK  Name = ZINC55631512
REMARK  7 active torsions:
REMARK  status: ('A' for Active; 'I' for Inactive)
REMARK    1  A    between atoms: C_3  and  O_20
REMARK    2  A    between atoms: C_6  and  N_7
REMARK    3  A    between atoms: N_7  and  S_8
REMARK    4  A    between atoms: S_8  and  C_11
REMARK    5  A    between atoms: C_15  and  C_17
REMARK    6  A    between atoms: O_20  and  C_21
REMARK    7  A    between atoms: C_21  and  C_22
REMARK                            x       y       z     vdW  Elec       q    Type
REMARK                         _______ _______ _______ _____ _____    ______ ____
ROOT
ATOM      1  C   UNL     1      -0.017   1.384   0.010  0.00  0.00    +0.030 A 
ATOM      2  C   UNL     1       1.170   2.091   0.002  0.00  0.00    +0.047 A 
ATOM      3  C   UNL     1       2.380   1.414  -0.013  0.00  0.00    +0.121 A 
ATOM      4  C   UNL     1       2.400   0.027  -0.021  0.00  0.00    +0.047 A 
ATOM      5  C   UNL     1       1.214  -0.681  -0.013  0.00  0.00    +0.030 A 
ATOM      6  C   UNL     1       0.002  -0.004   0.002  0.00  0.00    +0.075 A 
ENDROOT
BRANCH   6   7
ATOM      7  N   UNL     1      -1.200  -0.721   0.010  0.00  0.00    -0.098 NA
BRANCH   7   8
ATOM      8  S   UNL     1      -1.177  -2.376   0.001  0.00  0.00    +0.092 S 
ATOM      9  O   UNL     1      -0.633  -2.768  -1.252  0.00  0.00    -0.148 OA
ATOM     10  O   UNL     1      -0.608  -2.781   1.239  0.00  0.00    -0.148 OA
BRANCH   8  11
ATOM     11  C   UNL     1      -2.853  -2.921   0.015  0.00  0.00    +0.112 A 
ATOM     12  C   UNL     1      -3.499  -3.135   1.220  0.00  0.00    +0.030 A 
ATOM     13  C   UNL     1      -4.814  -3.562   1.241  0.00  0.00    +0.023 A 
ATOM     14  C   UNL     1      -5.492  -3.778   0.057  0.00  0.00    +0.058 A 
ATOM     15  C   UNL     1      -4.845  -3.563  -1.163  0.00  0.00    +0.072 A 
ATOM     16  C   UNL     1      -3.518  -3.127  -1.175  0.00  0.00    +0.049 A 
ATOM     17 CL   UNL     1      -7.143  -4.315   0.084  0.00  0.00    -0.082 Cl
BRANCH  15  18
ATOM     18  C   UNL     1      -5.541  -3.784  -2.395  0.00  0.00    +0.101 C 
ATOM     19  N   UNL     1      -6.093  -3.960  -3.372  0.00  0.00    -0.191 NA
ENDBRANCH  15  18
ENDBRANCH   8  11
ENDBRANCH   7   8
ENDBRANCH   6   7
BRANCH   3  20
ATOM     20  O   UNL     1       3.549   2.110  -0.021  0.00  0.00    -0.489 OA
BRANCH  20  21
ATOM     21  C   UNL     1       4.758   1.349  -0.036  0.00  0.00    +0.260 C 
BRANCH  21  22
ATOM     22  C   UNL     1       5.958   2.297  -0.043  0.00  0.00    +0.156 C 
ATOM     23  C   UNL     1       7.280   1.493   0.031  0.00  0.00    +0.037 C 
ATOM     24  C   UNL     1       8.272   2.494  -0.621  0.00  0.00    +0.031 C 
ATOM     25  C   UNL     1       7.389   3.187  -1.681  0.00  0.00    +0.160 C 
ATOM     26  O   UNL     1       6.021   3.012  -1.288  0.00  0.00    -0.373 OA
ENDBRANCH  21  22
ENDBRANCH  20  21
ENDBRANCH   3  20
TORSDOF 7
