REMARK  Name = ZINC35238824
REMARK  8 active torsions:
REMARK  status: ('A' for Active; 'I' for Inactive)
REMARK    1  A    between atoms: C_1  and  C_2
REMARK    2  A    between atoms: C_2  and  C_3
REMARK    3  A    between atoms: C_3  and  N_4
REMARK    4  A    between atoms: N_4  and  C_5
REMARK    5  A    between atoms: C_5  and  C_6
REMARK    6  A    between atoms: C_11  and  C_14
REMARK    7  A    between atoms: C_14  and  C_15
REMARK    8  A    between atoms: C_23  and  C_25
REMARK                            x       y       z     vdW  Elec       q    Type
REMARK                         _______ _______ _______ _____ _____    ______ ____
ROOT
ATOM      1  C   UNL     1      -1.082  -2.760  -2.436  0.00  0.00    +0.236 C 
ATOM      2  O   UNL     1      -0.260  -2.491  -3.287  0.00  0.00    -0.274 OA
ATOM      3  N   UNL     1      -2.256  -3.321  -2.786  0.00  0.00    -0.263 N 
ATOM      4  C   UNL     1      -2.525  -3.593  -4.122  0.00  0.00    +0.165 A 
ATOM      5  N   UNL     1      -3.607  -4.128  -4.645  0.00  0.00    -0.229 NA
ATOM      6  C   UNL     1      -3.711  -4.322  -5.947  0.00  0.00    +0.059 A 
ATOM      7  C   UNL     1      -2.656  -3.948  -6.712  0.00  0.00    +0.072 A 
ATOM      8  S   UNL     1      -1.550  -3.311  -5.464  0.00  0.00    -0.060 S 
ATOM      9  H   UNL     1      -2.913  -3.536  -2.105  0.00  0.00    +0.157 HD
ENDROOT
BRANCH   1  10
ATOM     10  C   UNL     1      -0.789  -2.465  -0.987  0.00  0.00    +0.204 C 
BRANCH  10  11
ATOM     11  N   UNL     1       0.540  -1.861  -0.870  0.00  0.00    -0.289 N 
ATOM     12  C   UNL     1       1.602  -2.626  -0.548  0.00  0.00    +0.247 C 
ATOM     13  O   UNL     1       2.691  -2.114  -0.377  0.00  0.00    -0.270 OA
BRANCH  12  14
ATOM     14  C   UNL     1       1.443  -4.088  -0.403  0.00  0.00    +0.037 A 
ATOM     15  C   UNL     1       0.771  -4.821  -1.384  0.00  0.00    +0.014 A 
ATOM     16  C   UNL     1       0.626  -6.185  -1.243  0.00  0.00    +0.021 A 
ATOM     17  C   UNL     1       1.145  -6.828  -0.132  0.00  0.00    +0.041 A 
ATOM     18  C   UNL     1       1.812  -6.107   0.844  0.00  0.00    +0.021 A 
ATOM     19  C   UNL     1       1.968  -4.743   0.712  0.00  0.00    +0.014 A 
ATOM     20 CL   UNL     1       0.957  -8.546   0.039  0.00  0.00    -0.084 Cl
ENDBRANCH  12  14
BRANCH  11  21
ATOM     21  C   UNL     1       0.715  -0.425  -1.103  0.00  0.00    +0.108 C 
BRANCH  21  23
ATOM     22  C   UNL     1       0.612   1.839  -0.052  0.00  0.00    +0.005 C 
ATOM     23  C   UNL     1       0.429   0.340   0.191  0.00  0.00    +0.016 C 
ENDBRANCH  21  23
ENDBRANCH  11  21
ENDBRANCH  10  11
ENDBRANCH   1  10
BRANCH   6  24
ATOM     24  C   UNL     1      -4.947  -4.934  -6.555  0.00  0.00    +0.152 C 
BRANCH  24  25
ATOM     25  C   UNL     1      -5.228  -6.260  -5.895  0.00  0.00    +0.221 C 
ATOM     26  O   UNL     1      -4.497  -6.667  -5.017  0.00  0.00    -0.275 OA
ATOM     27  N   UNL     1      -6.292  -6.992  -6.280  0.00  0.00    -0.301 N 
ATOM     28  C   UNL     1      -7.183  -6.515  -7.347  0.00  0.00    +0.108 C 
ATOM     29  C   UNL     1      -7.301  -7.606  -8.416  0.00  0.00    +0.019 C 
ATOM     30  C   UNL     1      -7.751  -8.912  -7.758  0.00  0.00    +0.003 C 
ATOM     31  C   UNL     1      -6.707  -9.354  -6.730  0.00  0.00    +0.019 C 
ATOM     32  C   UNL     1      -6.579  -8.286  -5.646  0.00  0.00    +0.108 C 
ENDBRANCH  24  25
ENDBRANCH   6  24
TORSDOF 7
