REMARK  Name = ZINC15109936
REMARK  7 active torsions:
REMARK  status: ('A' for Active; 'I' for Inactive)
REMARK    1  A    between atoms: C_1  and  O_2
REMARK    2  A    between atoms: O_2  and  C_3
REMARK    3  A    between atoms: C_4  and  C_14
REMARK    4  A    between atoms: C_8  and  O_9
REMARK    5  A    between atoms: O_9  and  C_10
REMARK    6  A    between atoms: C_16  and  C_27
REMARK    7  A    between atoms: C_17  and  N_26
REMARK                            x       y       z     vdW  Elec       q    Type
REMARK                         _______ _______ _______ _____ _____    ______ ____
ROOT
ATOM      1  C   UNL     1       5.555   2.164  -0.212  0.00  0.00    +0.105 C 
ATOM      2  C   UNL     1       6.013   1.880  -1.615  0.00  0.00    +0.098 C 
ATOM      3  C   UNL     1       6.544   0.674  -1.933  0.00  0.00    +0.198 C 
ATOM      4  O   UNL     1       6.672  -0.296  -1.015  0.00  0.00    -0.445 OA
ATOM      5  C   UNL     1       6.697   0.019   0.294  0.00  0.00    +0.115 C 
ATOM      6  C   UNL     1       6.175   1.175   0.745  0.00  0.00    +0.046 C 
ATOM      7  C   UNL     1       6.188   1.497   2.116  0.00  0.00    +0.163 C 
ATOM      8  O   UNL     1       5.718   2.556   2.484  0.00  0.00    -0.292 OA
ATOM      9  C   UNL     1       6.772   0.555   3.133  0.00  0.00    +0.080 C 
ATOM     10  C   UNL     1       6.645  -0.879   2.611  0.00  0.00    +0.016 C 
ATOM     11  C   UNL     1       7.335  -0.963   1.248  0.00  0.00    +0.075 C 
ENDROOT
BRANCH   1  13
ATOM     12  C   UNL     1       3.295   3.146   0.240  0.00  0.00    +0.169 A 
ATOM     13  C   UNL     1       4.054   2.051  -0.144  0.00  0.00    +0.014 A 
ATOM     14  C   UNL     1       3.436   0.857  -0.465  0.00  0.00    +0.058 A 
ATOM     15  C   UNL     1       2.055   0.748  -0.404  0.00  0.00    +0.170 A 
ATOM     16  C   UNL     1       1.289   1.844  -0.019  0.00  0.00    +0.211 A 
ATOM     17  C   UNL     1       1.910   3.043   0.304  0.00  0.00    +0.208 A 
ATOM     18  O   UNL     1      -0.029   1.484  -0.039  0.00  0.00    -0.449 OA
ATOM     19  C   UNL     1      -0.034   0.044  -0.044  0.00  0.00    +0.467 C 
ATOM     20  O   UNL     1       1.218  -0.299  -0.665  0.00  0.00    -0.452 OA
BRANCH  12  22
ATOM     21  C   UNL     1       4.202   5.207  -0.525  0.00  0.00    +0.277 C 
ATOM     22  O   UNL     1       3.905   4.320   0.555  0.00  0.00    -0.491 OA
ENDBRANCH  12  22
BRANCH  17  23
ATOM     23  O   UNL     1       1.164   4.117   0.681  0.00  0.00    -0.488 OA
ATOM     24  C   UNL     1       0.613   4.923  -0.363  0.00  0.00    +0.277 C 
ENDBRANCH  17  23
ENDBRANCH   1  13
BRANCH   3  25
ATOM     25  N   UNL     1       6.959   0.441  -3.220  0.00  0.00    -0.328 N 
ATOM     26  H   UNL     1       6.871   1.135  -3.892  0.00  0.00    +0.145 HD
ATOM     27  H   UNL     1       7.340  -0.419  -3.458  0.00  0.00    +0.145 HD
ENDBRANCH   3  25
BRANCH   2  28
ATOM     28  C   UNL     1       5.887   2.890  -2.623  0.00  0.00    +0.101 C 
ATOM     29  N   UNL     1       5.787   3.691  -3.422  0.00  0.00    -0.191 NA
ENDBRANCH   2  28
TORSDOF 5
