REMARK  Name = ZINC08979900
REMARK  5 active torsions:
REMARK  status: ('A' for Active; 'I' for Inactive)
REMARK    1  A    between atoms: C_1  and  C_2
REMARK    2  A    between atoms: C_2  and  C_4
REMARK    3  A    between atoms: C_7  and  N_10
REMARK    4  A    between atoms: C_16  and  C_18
REMARK    5  A    between atoms: N_26  and  C_27
REMARK                            x       y       z     vdW  Elec       q    Type
REMARK                         _______ _______ _______ _____ _____    ______ ____
ROOT
ATOM      1  N   UNL     1      -4.383   4.028  -0.664  0.00  0.00    -0.327 N 
ATOM      2  C   UNL     1      -5.334   3.624  -1.709  0.00  0.00    +0.124 C 
ATOM      3  C   UNL     1      -6.699   4.259  -1.426  0.00  0.00    +0.127 C 
ATOM      4  N   UNL     1      -6.518   5.711  -1.278  0.00  0.00    -0.293 N 
ATOM      5  C   UNL     1      -5.485   6.192  -0.348  0.00  0.00    +0.127 C 
ATOM      6  C   UNL     1      -4.167   5.481  -0.674  0.00  0.00    +0.124 C 
ATOM      7  C   UNL     1      -7.278   6.578  -1.976  0.00  0.00    +0.266 C 
ATOM      8  O   UNL     1      -8.034   6.168  -2.836  0.00  0.00    -0.268 OA
ENDROOT
BRANCH   7   9
ATOM      9  C   UNL     1      -7.192   8.021  -1.699  0.00  0.00    +0.135 A 
ATOM     10  C   UNL     1      -7.821   8.924  -2.514  0.00  0.00    +0.081 A 
ATOM     11  S   UNL     1      -7.407  10.429  -1.753  0.00  0.00    -0.060 S 
ATOM     12  C   UNL     1      -6.433   9.763  -0.413  0.00  0.00    +0.166 A 
ATOM     13  N   UNL     1      -6.505   8.468  -0.645  0.00  0.00    -0.220 NA
ATOM     14  N   UNL     1      -5.777  10.434   0.610  0.00  0.00    -0.248 N 
ATOM     15  C   UNL     1      -5.830  11.779   0.677  0.00  0.00    +0.310 C 
ATOM     16  O   UNL     1      -6.452  12.405  -0.160  0.00  0.00    -0.252 OA
ATOM     17  N   UNL     1      -5.193  12.431   1.670  0.00  0.00    -0.269 N 
ATOM     18  H   UNL     1      -5.280   9.935   1.277  0.00  0.00    +0.158 HD
ATOM     19  H   UNL     1      -4.628  11.940   2.287  0.00  0.00    +0.156 HD
BRANCH  17  20
ATOM     20  C   UNL     1      -5.347  13.814   1.811  0.00  0.00    +0.035 A 
ATOM     21  C   UNL     1      -4.291  14.589   2.273  0.00  0.00    +0.023 A 
ATOM     22  C   UNL     1      -4.446  15.955   2.407  0.00  0.00    +0.002 A 
ATOM     23  C   UNL     1      -5.653  16.550   2.090  0.00  0.00    +0.000 A 
ATOM     24  C   UNL     1      -6.708  15.781   1.634  0.00  0.00    +0.002 A 
ATOM     25  C   UNL     1      -6.558  14.415   1.494  0.00  0.00    +0.023 A 
ENDBRANCH  17  20
ENDBRANCH   7   9
BRANCH   1  29
ATOM     26  C   UNL     1      -0.789   1.986  -1.053  0.00  0.00    +0.017 A 
ATOM     27  C   UNL     1      -0.803   3.387  -1.034  0.00  0.00    +0.013 A 
ATOM     28  C   UNL     1      -1.988   4.055  -0.911  0.00  0.00    +0.024 A 
ATOM     29  C   UNL     1      -3.181   3.345  -0.794  0.00  0.00    +0.030 A 
ATOM     30  C   UNL     1      -3.171   1.952  -0.808  0.00  0.00    +0.024 A 
ATOM     31  C   UNL     1      -1.992   1.276  -0.935  0.00  0.00    +0.013 A 
BRANCH  26  33
ATOM     32  C   UNL     1       1.772   2.030  -1.323  0.00  0.00    +0.091 C 
ATOM     33  C   UNL     1       0.481   1.265  -1.190  0.00  0.00    +0.160 C 
ATOM     34  O   UNL     1       0.491   0.052  -1.202  0.00  0.00    -0.292 OA
ENDBRANCH  26  33
ENDBRANCH   1  29
TORSDOF 4
