REMARK  Name = ZINC22430787
REMARK  10 active torsions:
REMARK  status: ('A' for Active; 'I' for Inactive)
REMARK    1  A    between atoms: C_1  and  C_2
REMARK    2  A    between atoms: C_5  and  S_8
REMARK    3  A    between atoms: S_8  and  N_11
REMARK    4  A    between atoms: N_11  and  C_12
REMARK    5  A    between atoms: N_11  and  C_29
REMARK    6  A    between atoms: C_12  and  C_13
REMARK    7  A    between atoms: N_15  and  C_16
REMARK    8  A    between atoms: C_16  and  C_17
REMARK    9  A    between atoms: C_22  and  N_23
REMARK   10  A    between atoms: C_27  and  C_28
REMARK                            x       y       z     vdW  Elec       q    Type
REMARK                         _______ _______ _______ _____ _____    ______ ____
ROOT
ATOM      1  N   UNL     1      -0.505  -3.776  -3.016  0.00  0.00    -0.193 N 
ENDROOT
BRANCH   1   2
ATOM      2  C   UNL     1       0.709  -4.457  -3.136  0.00  0.00    +0.070 A 
ATOM      3  C   UNL     1       1.483  -4.705  -2.010  0.00  0.00    +0.026 A 
ATOM      4  C   UNL     1       2.680  -5.384  -2.132  0.00  0.00    +0.002 A 
ATOM      5  C   UNL     1       3.114  -5.807  -3.375  0.00  0.00    +0.002 A 
ATOM      6  C   UNL     1       2.349  -5.557  -4.500  0.00  0.00    +0.022 A 
ATOM      7  C   UNL     1       1.148  -4.883  -4.385  0.00  0.00    +0.064 A 
ATOM      8 CL   UNL     1       0.188  -4.569  -5.797  0.00  0.00    -0.082 Cl
ENDBRANCH   1   2
BRANCH   1   9
ATOM      9  S   UNL     1      -1.921  -4.623  -2.882  0.00  0.00    +0.075 S 
ATOM     10  O   UNL     1      -1.580  -5.903  -2.367  0.00  0.00    -0.150 OA
ATOM     11  O   UNL     1      -2.849  -3.764  -2.234  0.00  0.00    -0.150 OA
BRANCH   9  16
ATOM     12  C   UNL     1      -4.004  -5.513  -8.474  0.00  0.00    +0.044 C 
ATOM     13  C   UNL     1      -3.484  -5.291  -7.077  0.00  0.00    -0.050 A 
ATOM     14  C   UNL     1      -2.635  -6.217  -6.500  0.00  0.00    +0.005 A 
ATOM     15  C   UNL     1      -2.158  -6.013  -5.219  0.00  0.00    +0.029 A 
ATOM     16  C   UNL     1      -2.529  -4.883  -4.515  0.00  0.00    +0.109 A 
ATOM     17  C   UNL     1      -3.382  -3.960  -5.090  0.00  0.00    +0.029 A 
ATOM     18  C   UNL     1      -3.855  -4.161  -6.373  0.00  0.00    +0.005 A 
ENDBRANCH   9  16
ENDBRANCH   1   9
BRANCH   1  19
ATOM     19  C   UNL     1      -0.524  -2.311  -3.007  0.00  0.00    +0.227 C 
BRANCH  19  20
ATOM     20  C   UNL     1      -0.271  -1.812  -1.608  0.00  0.00    +0.232 C 
ATOM     21  O   UNL     1      -0.092  -2.603  -0.706  0.00  0.00    -0.274 OA
ATOM     22  N   UNL     1      -0.244  -0.488  -1.359  0.00  0.00    -0.310 N 
ATOM     23  H   UNL     1      -0.407   0.229  -2.176  0.00  0.00    +0.149 HD
BRANCH  22  24
ATOM     24  C   UNL     1       0.002  -0.004   0.002  0.00  0.00    +0.141 C 
BRANCH  24  25
ATOM     25  C   UNL     1      -0.018   1.503   0.010  0.00  0.00    -0.006 A 
ATOM     26  C   UNL     1       1.168   2.210   0.003  0.00  0.00    +0.007 A 
ATOM     27  C   UNL     1       1.150   3.593   0.010  0.00  0.00    +0.000 A 
ATOM     28  C   UNL     1      -0.055   4.271   0.025  0.00  0.00    +0.002 A 
ATOM     29  C   UNL     1      -1.244   3.569   0.033  0.00  0.00    +0.026 A 
ATOM     30  C   UNL     1      -1.229   2.181   0.020  0.00  0.00    +0.052 A 
BRANCH  30  31
ATOM     31  N   UNL     1      -2.435   1.466   0.021  0.00  0.00    -0.303 N 
ATOM     32  C   UNL     1      -3.381   1.461  -0.971  0.00  0.00    +0.112 A 
ATOM     33  C   UNL     1      -4.370   0.643  -0.564  0.00  0.00    +0.131 A 
ATOM     34  N   UNL     1      -4.046   0.165   0.647  0.00  0.00    -0.241 NA
ATOM     35  C   UNL     1      -2.890   0.651   1.008  0.00  0.00    +0.111 A 
ATOM     36  C   UNL     1      -2.178   0.356   2.303  0.00  0.00    +0.086 C 
ENDBRANCH  30  31
ENDBRANCH  24  25
ENDBRANCH  22  24
ENDBRANCH  19  20
ENDBRANCH   1  19
TORSDOF 8
