REMARK  Name = ZINC35555682
REMARK  6 active torsions:
REMARK  status: ('A' for Active; 'I' for Inactive)
REMARK    1  A    between atoms: C_6  and  C_7
REMARK    2  A    between atoms: C_7  and  N_8
REMARK    3  A    between atoms: C_9  and  C_11
REMARK    4  A    between atoms: C_16  and  C_35
REMARK    5  A    between atoms: N_24  and  C_27
REMARK    6  A    between atoms: C_27  and  C_28
REMARK                            x       y       z     vdW  Elec       q    Type
REMARK                         _______ _______ _______ _____ _____    ______ ____
ROOT
ATOM      1  C   UNL     1      -3.312  -1.942  -3.025  0.00  0.00    +0.098 C 
ATOM      2  C   UNL     1      -2.212  -2.691  -3.748  0.00  0.00    +0.051 C 
ATOM      3  C   UNL     1      -2.180  -4.144  -3.377  0.00  0.00    -0.025 A 
ATOM      4  C   UNL     1      -0.982  -4.836  -3.414  0.00  0.00    +0.017 A 
ATOM      5  C   UNL     1      -0.943  -6.176  -3.076  0.00  0.00    +0.055 A 
ATOM      6  C   UNL     1      -2.102  -6.831  -2.700  0.00  0.00    +0.014 A 
ATOM      7  C   UNL     1      -3.300  -6.146  -2.660  0.00  0.00    +0.024 A 
ATOM      8  C   UNL     1      -3.342  -4.798  -2.997  0.00  0.00    +0.033 A 
ATOM      9  N   UNL     1      -4.547  -4.109  -2.946  0.00  0.00    -0.329 N 
ATOM     10  C   UNL     1      -4.634  -2.659  -2.990  0.00  0.00    +0.069 C 
ATOM     11  C   UNL     1      -5.543  -2.255  -4.152  0.00  0.00    -0.055 C 
ATOM     12  N   UNL     1      -6.841  -2.929  -3.999  0.00  0.00    +0.388 N 
ATOM     13  C   UNL     1      -6.676  -4.385  -4.066  0.00  0.00    -0.059 C 
ATOM     14  C   UNL     1      -5.819  -4.858  -2.890  0.00  0.00    +0.087 C 
ATOM     15  H   UNL     1      -7.243  -2.680  -3.107  0.00  0.00    -0.081 HD
ENDROOT
BRANCH   1  17
ATOM     16  N   UNL     1      -1.726  -1.017  -1.368  0.00  0.00    -0.311 N 
ATOM     17  C   UNL     1      -2.867  -1.693  -1.607  0.00  0.00    +0.218 C 
ATOM     18  O   UNL     1      -3.535  -2.101  -0.681  0.00  0.00    -0.275 OA
ATOM     19  H   UNL     1      -1.191  -0.691  -2.109  0.00  0.00    +0.149 HD
BRANCH  16  20
ATOM     20  C   UNL     1      -1.293  -0.775   0.010  0.00  0.00    +0.139 C 
BRANCH  20  26
ATOM     21  C   UNL     1      -0.017   1.378   0.010  0.00  0.00    +0.008 A 
ATOM     22  C   UNL     1       1.170   2.086   0.002  0.00  0.00    +0.038 A 
ATOM     23  C   UNL     1       2.379   1.410  -0.013  0.00  0.00    +0.123 A 
ATOM     24  C   UNL     1       2.396   0.026  -0.021  0.00  0.00    +0.038 A 
ATOM     25  C   UNL     1       1.208  -0.680  -0.013  0.00  0.00    +0.008 A 
ATOM     26  C   UNL     1       0.002  -0.004   0.002  0.00  0.00    -0.030 A 
ATOM     27  F   UNL     1       3.540   2.101  -0.021  0.00  0.00    -0.205 F 
ENDBRANCH  20  26
ENDBRANCH  16  20
ENDBRANCH   1  17
BRANCH   5  28
ATOM     28  C   UNL     1       0.365  -6.924  -3.117  0.00  0.00    +0.417 C 
ATOM     29  F   UNL     1       0.994  -6.831  -1.871  0.00  0.00    -0.166 F 
ATOM     30  F   UNL     1       0.123  -8.268  -3.418  0.00  0.00    -0.166 F 
ATOM     31  F   UNL     1       1.190  -6.366  -4.099  0.00  0.00    -0.166 F 
ENDBRANCH   5  28
BRANCH  12  32
ATOM     32  C   UNL     1      -7.743  -2.494  -5.073  0.00  0.00    +0.019 C 
BRANCH  32  33
ATOM     33  C   UNL     1      -9.111  -3.086  -4.852  0.00  0.00    +0.199 C 
ATOM     34  O   UNL     1      -9.315  -3.800  -3.893  0.00  0.00    -0.278 OA
ATOM     35  N   UNL     1     -10.108  -2.821  -5.719  0.00  0.00    -0.303 N 
ATOM     36  C   UNL     1      -9.998  -1.981  -6.921  0.00  0.00    +0.108 C 
ATOM     37  C   UNL     1     -11.391  -1.947  -7.585  0.00  0.00    +0.020 C 
ATOM     38  C   UNL     1     -12.343  -2.307  -6.413  0.00  0.00    +0.020 C 
ATOM     39  C   UNL     1     -11.488  -3.332  -5.624  0.00  0.00    +0.108 C 
ENDBRANCH  32  33
ENDBRANCH  12  32
TORSDOF 6
