REMARK  Name = ZINC46705512
REMARK  7 active torsions:
REMARK  status: ('A' for Active; 'I' for Inactive)
REMARK    1  A    between atoms: C_1  and  C_2
REMARK    2  A    between atoms: C_7  and  C_13
REMARK    3  A    between atoms: C_8  and  C_12
REMARK    4  A    between atoms: N_15  and  C_16
REMARK    5  A    between atoms: C_16  and  C_17
REMARK    6  A    between atoms: C_17  and  N_18
REMARK    7  A    between atoms: C_22  and  C_23
REMARK                            x       y       z     vdW  Elec       q    Type
REMARK                         _______ _______ _______ _____ _____    ______ ____
ROOT
ATOM      1  C   UNL     1       1.517  -8.868  -2.407  0.00  0.00    +0.136 C 
ENDROOT
BRANCH   1   2
ATOM      2  N   UNL     1       1.810 -10.303  -2.463  0.00  0.00    -0.227 N 
ATOM      3  C   UNL     1       3.065 -10.710  -2.381  0.00  0.00    +0.260 C 
ATOM      4  O   UNL     1       3.986  -9.923  -2.260  0.00  0.00    -0.269 OA
ATOM      5  C   UNL     1       3.294 -12.167  -2.443  0.00  0.00    +0.080 C 
ATOM      6  C   UNL     1       4.457 -12.863  -2.384  0.00  0.00    +0.028 C 
ATOM      7  S   UNL     1       1.617 -12.762  -2.616  0.00  0.00    -0.026 S 
ATOM      8  C   UNL     1       0.792 -11.179  -2.592  0.00  0.00    +0.286 C 
ATOM      9  O   UNL     1      -0.399 -10.946  -2.674  0.00  0.00    -0.262 OA
BRANCH   6  10
ATOM     10  C   UNL     1       4.459 -14.312  -2.625  0.00  0.00    -0.020 A 
ATOM     11  C   UNL     1       3.395 -14.912  -3.309  0.00  0.00    +0.012 A 
ATOM     12  C   UNL     1       3.400 -16.270  -3.534  0.00  0.00    +0.050 A 
ATOM     13  C   UNL     1       4.457 -17.050  -3.083  0.00  0.00    +0.166 A 
ATOM     14  C   UNL     1       5.521 -16.460  -2.400  0.00  0.00    +0.167 A 
ATOM     15  C   UNL     1       5.527 -15.098  -2.175  0.00  0.00    +0.057 A 
ATOM     16  O   UNL     1       6.420 -17.433  -2.069  0.00  0.00    -0.453 OA
ATOM     17  C   UNL     1       5.703 -18.676  -2.194  0.00  0.00    +0.466 C 
ATOM     18  O   UNL     1       4.692 -18.391  -3.179  0.00  0.00    -0.453 OA
ENDBRANCH   6  10
ENDBRANCH   1   2
BRANCH   1  19
ATOM     19  C   UNL     1       1.301  -8.448  -0.952  0.00  0.00    +0.124 C 
BRANCH  19  22
ATOM     20  C   UNL     1       0.781  -6.419   0.291  0.00  0.00    +0.246 C 
ATOM     21  O   UNL     1       0.819  -7.072   1.316  0.00  0.00    -0.270 OA
ATOM     22  N   UNL     1       1.008  -7.014  -0.896  0.00  0.00    -0.310 N 
ATOM     23  H   UNL     1       0.977  -6.493  -1.714  0.00  0.00    +0.149 HD
BRANCH  20  30
ATOM     24  C   UNL     1      -0.613   1.341  -0.303  0.00  0.00    +0.044 C 
ATOM     25  C   UNL     1      -0.300  -0.128  -0.425  0.00  0.00    -0.048 A 
ATOM     26  C   UNL     1       0.066  -0.649  -1.665  0.00  0.00    +0.004 A 
ATOM     27  C   UNL     1       0.355  -1.972  -1.807  0.00  0.00    +0.010 A 
ATOM     28  C   UNL     1       0.284  -2.823  -0.691  0.00  0.00    +0.001 A 
ATOM     29  C   UNL     1       0.576  -4.193  -0.800  0.00  0.00    +0.024 A 
ATOM     30  C   UNL     1       0.486  -4.972   0.348  0.00  0.00    +0.058 A 
ATOM     31  C   UNL     1       0.110  -4.372   1.563  0.00  0.00    +0.051 A 
ATOM     32  N   UNL     1      -0.158  -3.094   1.641  0.00  0.00    -0.251 NA
ATOM     33  C   UNL     1      -0.087  -2.294   0.571  0.00  0.00    +0.072 A 
ATOM     34  C   UNL     1      -0.373  -0.922   0.678  0.00  0.00    +0.031 A 
ATOM     35  C   UNL     1       0.013  -5.222   2.804  0.00  0.00    +0.066 C 
ENDBRANCH  20  30
ENDBRANCH  19  22
ENDBRANCH   1  19
TORSDOF 5
