REMARK  Name = ZINC20703954
REMARK  5 active torsions:
REMARK  status: ('A' for Active; 'I' for Inactive)
REMARK    1  A    between atoms: C_4  and  N_33
REMARK    2  A    between atoms: C_6  and  C_7
REMARK    3  A    between atoms: C_18  and  S_23
REMARK    4  A    between atoms: S_23  and  N_26
REMARK    5  A    between atoms: N_26  and  C_27
REMARK                            x       y       z     vdW  Elec       q    Type
REMARK                         _______ _______ _______ _____ _____    ______ ____
ROOT
ATOM      1  C   UNL     1      -3.768  -5.381   2.536  0.00  0.00    +0.105 C 
ATOM      2  C   UNL     1      -2.340  -5.704   2.132  0.00  0.00    +0.029 C 
ATOM      3  C   UNL     1      -1.885  -7.162   2.275  0.00  0.00    +0.033 C 
ATOM      4  C   UNL     1      -0.386  -6.993   2.530  0.00  0.00    -0.030 C 
ATOM      5  C   UNL     1      -0.149  -5.804   3.071  0.00  0.00    -0.023 C 
ATOM      6  C   UNL     1      -1.444  -5.099   3.254  0.00  0.00    +0.049 C 
ATOM      7  C   UNL     1      -1.550  -3.626   3.174  0.00  0.00    -0.018 A 
ATOM      8  C   UNL     1      -0.492  -2.791   3.462  0.00  0.00    +0.034 A 
ATOM      9  C   UNL     1      -0.646  -1.419   3.389  0.00  0.00    +0.106 A 
ATOM     10  C   UNL     1      -1.869  -0.879   3.035  0.00  0.00    +0.030 A 
ATOM     11  C   UNL     1      -2.933  -1.706   2.738  0.00  0.00    +0.025 A 
ATOM     12  C   UNL     1      -2.786  -3.087   2.800  0.00  0.00    +0.031 A 
ATOM     13  N   UNL     1      -3.874  -3.907   2.476  0.00  0.00    -0.336 N 
ATOM     14  H   UNL     1      -4.821  -3.436   2.173  0.00  0.00    +0.147 HD
ENDROOT
BRANCH   1  20
ATOM     15  C   UNL     1      -3.818  -5.024   5.013  0.00  0.00    +0.007 A 
ATOM     16  C   UNL     1      -4.062  -5.467   6.299  0.00  0.00    +0.022 A 
ATOM     17  C   UNL     1      -4.523  -6.754   6.510  0.00  0.00    +0.071 A 
ATOM     18  C   UNL     1      -4.739  -7.597   5.434  0.00  0.00    +0.145 A 
ATOM     19  C   UNL     1      -4.500  -7.150   4.149  0.00  0.00    +0.039 A 
ATOM     20  C   UNL     1      -4.034  -5.865   3.938  0.00  0.00    -0.025 A 
ATOM     21 CL   UNL     1      -4.830  -7.312   8.125  0.00  0.00    -0.081 Cl
BRANCH  18  22
ATOM     22  N   UNL     1      -5.233  -8.974   5.659  0.00  0.00    +0.058 N 
ATOM     23  O   UNL     1      -5.423  -9.715   4.712  0.00  0.00    -0.126 OA
ATOM     24  O   UNL     1      -5.449  -9.365   6.792  0.00  0.00    -0.126 OA
ENDBRANCH  18  22
ENDBRANCH   1  20
BRANCH   9  25
ATOM     25  S   UNL     1       0.713  -0.359   3.755  0.00  0.00    +0.059 S 
ATOM     26  O   UNL     1       1.590  -1.098   4.594  0.00  0.00    -0.153 OA
ATOM     27  O   UNL     1       0.160   0.891   4.144  0.00  0.00    -0.153 OA
BRANCH  25  28
ATOM     28  N   UNL     1       1.524  -0.096   2.336  0.00  0.00    -0.187 NA
ATOM     29  H   UNL     1       2.484  -0.606   2.163  0.00  0.00    +0.148 HD
BRANCH  28  30
ATOM     30  C   UNL     1       0.872   0.627   1.242  0.00  0.00    +0.077 C 
ATOM     31  C   UNL     1       1.326   0.043  -0.098  0.00  0.00    +0.020 C 
ATOM     32  C   UNL     1       0.644   0.799  -1.241  0.00  0.00    +0.002 C 
ATOM     33  C   UNL     1       1.026   2.279  -1.173  0.00  0.00    +0.000 C 
ATOM     34  C   UNL     1       0.571   2.862   0.166  0.00  0.00    +0.002 C 
ATOM     35  C   UNL     1       1.253   2.107   1.309  0.00  0.00    +0.020 C 
ENDBRANCH  28  30
ENDBRANCH  25  28
ENDBRANCH   9  25
TORSDOF 5
