REMARK  Name = ZINC63230045
REMARK  5 active torsions:
REMARK  status: ('A' for Active; 'I' for Inactive)
REMARK    1  A    between atoms: C_6  and  C_11
REMARK    2  A    between atoms: N_13  and  C_14
REMARK    3  A    between atoms: C_14  and  C_15
REMARK    4  A    between atoms: C_15  and  C_17
REMARK    5  A    between atoms: C_15  and  C_23
REMARK                            x       y       z     vdW  Elec       q    Type
REMARK                         _______ _______ _______ _____ _____    ______ ____
ROOT
ATOM      1  C   UNL     1       6.144  -6.294  -0.133  0.00  0.00    +0.048 C 
ENDROOT
BRANCH   1   2
ATOM      2  C   UNL     1       7.378  -7.110   0.152  0.00  0.00    -0.036 C 
ATOM      3  C   UNL     1       7.579  -7.942   1.199  0.00  0.00    -0.001 A 
ATOM      4  C   UNL     1       6.741  -8.323   2.342  0.00  0.00    +0.010 A 
ATOM      5  C   UNL     1       7.227  -9.200   3.249  0.00  0.00    +0.001 A 
ATOM      6  C   UNL     1       8.509  -9.753   3.125  0.00  0.00    +0.002 A 
ATOM      7  C   UNL     1       9.338  -9.453   2.103  0.00  0.00    +0.026 A 
ATOM      8  C   UNL     1       8.929  -8.541   1.091  0.00  0.00    +0.043 A 
ATOM      9  N   UNL     1       9.539  -8.096   0.019  0.00  0.00    -0.380 N 
ATOM     10  C   UNL     1       8.641  -7.168  -0.678  0.00  0.00    +0.145 C 
ATOM     11  H   UNL     1      10.432  -8.342  -0.267  0.00  0.00    +0.160 HD
ENDBRANCH   1   2
BRANCH   1  12
ATOM     12  C   UNL     1       5.559  -6.708  -1.485  0.00  0.00    +0.063 C 
ATOM     13  C   UNL     1       5.042  -8.171  -1.457  0.00  0.00    +0.042 C 
ATOM     14  C   UNL     1       3.774  -8.299  -2.239  0.00  0.00    -0.019 C 
ATOM     15  C   UNL     1       3.067  -7.223  -2.524  0.00  0.00    +0.036 C 
ATOM     16  S   UNL     1       3.966  -5.848  -1.825  0.00  0.00    -0.129 S 
ENDBRANCH   1  12
BRANCH   1  17
ATOM     17  C   UNL     1       6.511  -4.809  -0.169  0.00  0.00    +0.113 C 
BRANCH  17  20
ATOM     18  C   UNL     1       7.425  -3.134   1.346  0.00  0.00    +0.244 C 
ATOM     19  O   UNL     1       7.486  -2.362   0.408  0.00  0.00    -0.270 OA
ATOM     20  N   UNL     1       6.952  -4.382   1.161  0.00  0.00    -0.311 N 
ATOM     21  H   UNL     1       6.903  -4.998   1.909  0.00  0.00    +0.149 HD
BRANCH  18  27
ATOM     22  C   UNL     1       9.598  -0.262   6.688  0.00  0.00    +0.001 A 
ATOM     23  C   UNL     1       9.675   0.636   5.625  0.00  0.00    +0.001 A 
ATOM     24  C   UNL     1       9.275   0.278   4.375  0.00  0.00    +0.008 A 
ATOM     25  C   UNL     1       8.776  -1.018   4.148  0.00  0.00    -0.017 A 
ATOM     26  C   UNL     1       8.356  -1.420   2.871  0.00  0.00    +0.021 A 
ATOM     27  C   UNL     1       7.870  -2.704   2.688  0.00  0.00    +0.037 A 
ATOM     28  C   UNL     1       7.796  -3.601   3.768  0.00  0.00    +0.013 A 
ATOM     29  C   UNL     1       8.198  -3.229   5.010  0.00  0.00    +0.009 A 
ATOM     30  C   UNL     1       8.697  -1.931   5.229  0.00  0.00    -0.018 A 
ATOM     31  C   UNL     1       9.120  -1.524   6.506  0.00  0.00    +0.008 A 
ENDBRANCH  18  27
ENDBRANCH  17  20
ENDBRANCH   1  17
TORSDOF 5
