REMARK  Name = ZINC09279177
REMARK  6 active torsions:
REMARK  status: ('A' for Active; 'I' for Inactive)
REMARK    1  A    between atoms: C_1  and  C_2
REMARK    2  A    between atoms: N_7  and  S_9
REMARK    3  A    between atoms: S_9  and  C_12
REMARK    4  A    between atoms: C_15  and  C_18
REMARK    5  A    between atoms: C_18  and  N_20
REMARK    6  A    between atoms: N_22  and  C_31
REMARK                            x       y       z     vdW  Elec       q    Type
REMARK                         _______ _______ _______ _____ _____    ______ ____
ROOT
ATOM      1  C   UNL     1      -2.633   3.952   0.872  0.00  0.00    +0.106 A 
ATOM      2  C   UNL     1      -1.339   4.440   0.827  0.00  0.00    +0.029 A 
ATOM      3  C   UNL     1      -0.278   3.576   0.650  0.00  0.00    +0.015 A 
ATOM      4  C   UNL     1      -0.512   2.207   0.516  0.00  0.00    +0.039 A 
ATOM      5  C   UNL     1      -1.819   1.722   0.557  0.00  0.00    +0.015 A 
ATOM      6  C   UNL     1      -2.871   2.595   0.740  0.00  0.00    +0.029 A 
ENDROOT
BRANCH   1   7
ATOM      7  S   UNL     1      -3.982   5.061   1.099  0.00  0.00    +0.061 S 
ATOM      8  O   UNL     1      -5.046   4.299   1.652  0.00  0.00    -0.153 OA
ATOM      9  O   UNL     1      -3.456   6.214   1.743  0.00  0.00    -0.153 OA
BRANCH   7  15
ATOM     10  C   UNL     1      -2.885   7.602  -3.156  0.00  0.00    +0.009 C 
ATOM     11  C   UNL     1      -3.373   6.348  -2.427  0.00  0.00    +0.002 C 
ATOM     12  C   UNL     1      -4.503   5.698  -3.229  0.00  0.00    +0.006 C 
ATOM     13  C   UNL     1      -4.969   4.426  -2.518  0.00  0.00    +0.017 C 
ATOM     14  C   UNL     1      -5.509   4.790  -1.131  0.00  0.00    +0.109 C 
ATOM     15  N   UNL     1      -4.478   5.544  -0.405  0.00  0.00    -0.176 NA
ATOM     16  C   UNL     1      -3.899   6.738  -1.037  0.00  0.00    +0.112 C 
ENDBRANCH   7  15
ENDBRANCH   1   7
BRANCH   4  17
ATOM     17  C   UNL     1       0.623   1.274   0.326  0.00  0.00    +0.269 C 
ATOM     18  O   UNL     1       1.763   1.702   0.281  0.00  0.00    -0.268 OA
BRANCH  17  19
ATOM     19  N   UNL     1       0.396  -0.037   0.199  0.00  0.00    -0.152 NA
ATOM     20  C   UNL     1       0.769  -0.671  -0.908  0.00  0.00    +0.166 A 
ATOM     21  N   UNL     1       1.267  -0.141  -2.057  0.00  0.00    -0.324 N 
ATOM     22  C   UNL     1       1.607  -0.968  -3.111  0.00  0.00    +0.057 A 
ATOM     23  C   UNL     1       2.134  -0.611  -4.363  0.00  0.00    +0.028 A 
ATOM     24  C   UNL     1       2.413  -1.570  -5.308  0.00  0.00    +0.017 A 
ATOM     25  C   UNL     1       2.183  -2.913  -5.057  0.00  0.00    +0.019 A 
ATOM     26  C   UNL     1       1.663  -3.293  -3.831  0.00  0.00    +0.032 A 
ATOM     27  C   UNL     1       1.385  -2.334  -2.886  0.00  0.00    +0.040 A 
ATOM     28  S   UNL     1       0.732  -2.374  -1.236  0.00  0.00    -0.052 S 
ATOM     29 BR   UNL     1       2.573  -4.213  -6.374  0.00  0.00    -0.050 Br
ATOM     30  C   UNL     1       1.447   1.308  -2.176  0.00  0.00    +0.151 C 
ENDBRANCH  17  19
ENDBRANCH   4  17
TORSDOF 4
