REMARK  Name = ZINC00976845
REMARK  17 active torsions:
REMARK  status: ('A' for Active; 'I' for Inactive)
REMARK    1  A    between atoms: C_1  and  C_2
REMARK    2  A    between atoms: C_2  and  C_3
REMARK    3  A    between atoms: C_3  and  C_5
REMARK    4  A    between atoms: C_3  and  O_6
REMARK    5  A    between atoms: O_6  and  C_7
REMARK    6  A    between atoms: C_7  and  C_9
REMARK    7  A    between atoms: C_10  and  C_42
REMARK    8  A    between atoms: C_14  and  C_16
REMARK    9  A    between atoms: C_21  and  O_22
REMARK   10  A    between atoms: O_22  and  C_23
REMARK   11  A    between atoms: C_23  and  C_24
REMARK   12  A    between atoms: C_23  and  C_25
REMARK   13  A    between atoms: C_29  and  C_32
REMARK   14  A    between atoms: C_35  and  O_40
REMARK   15  A    between atoms: C_36  and  O_38
REMARK   16  A    between atoms: O_38  and  C_39
REMARK   17  A    between atoms: O_40  and  C_41
REMARK                            x       y       z     vdW  Elec       q    Type
REMARK                         _______ _______ _______ _____ _____    ______ ____
ROOT
ATOM      1  C   UNL     1       4.079   1.266   0.687  0.00  0.00    +0.065 C 
ATOM      2  C   UNL     1       4.997   0.298   0.522  0.00  0.00    +0.016 C 
ATOM      3  N   UNL     1       4.991  -0.478  -0.604  0.00  0.00    -0.321 N 
ATOM      4  C   UNL     1       4.346  -0.058  -1.736  0.00  0.00    +0.016 C 
ATOM      5  C   UNL     1       3.395   0.897  -1.669  0.00  0.00    +0.024 C 
ATOM      6  C   UNL     1       3.021   1.520  -0.347  0.00  0.00    +0.096 C 
ATOM      7  C   UNL     1       2.724   1.337  -2.823  0.00  0.00    +0.162 C 
ATOM      8  O   UNL     1       1.884   2.210  -2.730  0.00  0.00    -0.292 OA
ATOM      9  C   UNL     1       3.030   0.747  -4.173  0.00  0.00    +0.088 C 
ATOM     10  C   UNL     1       3.514  -0.695  -3.988  0.00  0.00    +0.032 C 
ATOM     11  C   UNL     1       4.727  -0.683  -3.055  0.00  0.00    +0.059 C 
ATOM     12  C   UNL     1       6.040   0.066   1.585  0.00  0.00    +0.061 C 
ATOM     13  H   UNL     1       5.508  -1.449  -0.606  0.00  0.00    +0.152 HD
ENDROOT
BRANCH   6  14
ATOM     14  C   UNL     1       1.717   0.932   0.126  0.00  0.00    +0.006 A 
ATOM     15  C   UNL     1       1.646  -0.404   0.475  0.00  0.00    +0.008 A 
ATOM     16  C   UNL     1       0.450  -0.944   0.908  0.00  0.00    +0.001 A 
ATOM     17  C   UNL     1      -0.679  -0.150   0.994  0.00  0.00    +0.004 A 
ATOM     18  C   UNL     1      -0.614   1.185   0.646  0.00  0.00    +0.046 A 
ATOM     19  C   UNL     1       0.586   1.730   0.211  0.00  0.00    +0.125 A 
BRANCH  19  20
ATOM     20  O   UNL     1       0.652   3.043  -0.132  0.00  0.00    -0.489 OA
BRANCH  20  21
ATOM     21  C   UNL     1      -0.574   3.777  -0.133  0.00  0.00    +0.167 C 
ATOM     22  C   UNL     1      -0.849   4.313   1.274  0.00  0.00    +0.051 C 
ATOM     23  C   UNL     1      -0.469   4.946  -1.113  0.00  0.00    +0.051 C 
ENDBRANCH  20  21
ENDBRANCH  19  20
ENDBRANCH   6  14
BRANCH  10  24
ATOM     24  C   UNL     1       3.906  -1.276  -5.322  0.00  0.00    -0.040 A 
ATOM     25  C   UNL     1       4.898  -0.673  -6.073  0.00  0.00    +0.008 A 
ATOM     26  C   UNL     1       5.261  -1.202  -7.297  0.00  0.00    +0.049 A 
ATOM     27  C   UNL     1       4.632  -2.341  -7.774  0.00  0.00    +0.161 A 
ATOM     28  C   UNL     1       3.635  -2.949  -7.017  0.00  0.00    +0.162 A 
ATOM     29  C   UNL     1       3.278  -2.416  -5.789  0.00  0.00    +0.053 A 
BRANCH  28  30
ATOM     30  O   UNL     1       3.014  -4.067  -7.481  0.00  0.00    -0.491 OA
ATOM     31  C   UNL     1       2.000  -4.638  -6.651  0.00  0.00    +0.277 C 
ENDBRANCH  28  30
BRANCH  27  32
ATOM     32  O   UNL     1       4.989  -2.864  -8.977  0.00  0.00    -0.491 OA
ATOM     33  C   UNL     1       6.020  -2.188  -9.698  0.00  0.00    +0.277 C 
ENDBRANCH  27  32
ENDBRANCH  10  24
BRANCH   1  34
ATOM     34  C   UNL     1       4.111   2.060   1.856  0.00  0.00    +0.338 C 
ATOM     35  O   UNL     1       5.021   1.931   2.655  0.00  0.00    -0.245 OA
BRANCH  34  36
ATOM     36  O   UNL     1       3.134   2.961   2.087  0.00  0.00    -0.458 OA
BRANCH  36  37
ATOM     37  C   UNL     1       3.285   3.804   3.232  0.00  0.00    +0.173 C 
ATOM     38  C   UNL     1       2.634   3.137   4.445  0.00  0.00    +0.052 C 
BRANCH  37  40
ATOM     39  C   UNL     1       3.337   5.871   1.830  0.00  0.00    +0.007 C 
ATOM     40  C   UNL     1       2.609   5.151   2.966  0.00  0.00    +0.041 C 
ENDBRANCH  37  40
ENDBRANCH  36  37
ENDBRANCH  34  36
ENDBRANCH   1  34
TORSDOF 10
