REMARK  Name = ZINC54959722
REMARK  7 active torsions:
REMARK  status: ('A' for Active; 'I' for Inactive)
REMARK    1  A    between atoms: C_1  and  C_2
REMARK    2  A    between atoms: C_2  and  C_3
REMARK    3  A    between atoms: C_2  and  C_4
REMARK    4  A    between atoms: C_2  and  C_5
REMARK    5  A    between atoms: C_7  and  C_11
REMARK    6  A    between atoms: N_13  and  N_14
REMARK    7  A    between atoms: C_15  and  C_16
REMARK                            x       y       z     vdW  Elec       q    Type
REMARK                         _______ _______ _______ _____ _____    ______ ____
ROOT
ATOM      1  C   UNL     1       3.523  -1.023  -3.534  0.00  0.00    +0.281 C 
ATOM      2  O   UNL     1       4.557  -0.569  -3.079  0.00  0.00    -0.267 OA
ATOM      3  N   UNL     1       3.549  -1.745  -4.672  0.00  0.00    -0.202 N 
ATOM      4  H   UNL     1       2.719  -2.045  -5.075  0.00  0.00    +0.178 HD
ENDROOT
BRANCH   1   7
ATOM      5  C   UNL     1       0.689  -0.167  -1.400  0.00  0.00    +0.069 A 
ATOM      6  C   UNL     1       2.067  -0.149  -1.626  0.00  0.00    +0.058 A 
ATOM      7  C   UNL     1       2.247  -0.783  -2.844  0.00  0.00    +0.122 A 
ATOM      8  N   UNL     1       1.001  -1.139  -3.276  0.00  0.00    -0.272 N 
ATOM      9  H   UNL     1       0.809  -1.602  -4.106  0.00  0.00    +0.189 HD
ATOM     10  N   UNL     1       0.124  -0.771  -2.413  0.00  0.00    -0.178 NA
BRANCH   5  12
ATOM     11  C   UNL     1      -0.062   1.929  -0.307  0.00  0.00    +0.017 C 
ATOM     12  C   UNL     1      -0.020   0.403  -0.198  0.00  0.00    +0.006 C 
ATOM     13  C   UNL     1       0.729   0.003   1.074  0.00  0.00    +0.017 C 
ATOM     14  C   UNL     1      -1.448  -0.143  -0.142  0.00  0.00    +0.017 C 
ENDBRANCH   5  12
ENDBRANCH   1   7
BRANCH   3  15
ATOM     15  N   UNL     1       4.774  -2.064  -5.272  0.00  0.00    -0.187 NA
ATOM     16  C   UNL     1       4.796  -2.660  -6.427  0.00  0.00    +0.141 C 
BRANCH  16  17
ATOM     17  C   UNL     1       3.536  -3.051  -7.077  0.00  0.00    +0.038 A 
ATOM     18  C   UNL     1       2.405  -2.167  -7.409  0.00  0.00    +0.010 A 
ATOM     19  C   UNL     1       2.161  -0.805  -7.242  0.00  0.00    +0.011 A 
ATOM     20  C   UNL     1       0.968  -0.268  -7.673  0.00  0.00    +0.001 A 
ATOM     21  C   UNL     1       0.011  -1.076  -8.271  0.00  0.00    +0.002 A 
ATOM     22  C   UNL     1       0.239  -2.424  -8.443  0.00  0.00    +0.026 A 
ATOM     23  C   UNL     1       1.437  -2.986  -8.014  0.00  0.00    +0.048 A 
ATOM     24  N   UNL     1       1.942  -4.269  -8.047  0.00  0.00    -0.345 N 
ATOM     25  H   UNL     1       1.479  -5.038  -8.414  0.00  0.00    +0.167 HD
ATOM     26  C   UNL     1       3.189  -4.300  -7.496  0.00  0.00    +0.116 A 
ATOM     27 CL   UNL     1       4.181  -5.717  -7.346  0.00  0.00    -0.063 Cl
ENDBRANCH  16  17
ENDBRANCH   3  15
TORSDOF 4
