REMARK  Name = ZINC15954133
REMARK  6 active torsions:
REMARK  status: ('A' for Active; 'I' for Inactive)
REMARK    1  A    between atoms: C_1  and  O_2
REMARK    2  A    between atoms: O_2  and  C_3
REMARK    3  A    between atoms: C_8  and  C_9
REMARK    4  A    between atoms: N_28  and  C_31
REMARK    5  A    between atoms: C_31  and  C_32
REMARK    6  A    between atoms: C_32  and  C_33
REMARK                            x       y       z     vdW  Elec       q    Type
REMARK                         _______ _______ _______ _____ _____    ______ ____
ROOT
ATOM      1  C   UNL     1      -0.034   4.250   0.026  0.00  0.00    +0.157 C 
ATOM      2  C   UNL     1      -0.548   4.427  -1.385  0.00  0.00    +0.046 A 
ATOM      3  C   UNL     1      -0.927   5.618  -1.896  0.00  0.00    -0.015 A 
ATOM      4  C   UNL     1      -1.357   5.377  -3.258  0.00  0.00    +0.003 A 
ATOM      5  C   UNL     1      -1.848   6.220  -4.260  0.00  0.00    +0.010 A 
ATOM      6  C   UNL     1      -2.163   5.636  -5.463  0.00  0.00    +0.001 A 
ATOM      7  C   UNL     1      -2.005   4.278  -5.685  0.00  0.00    +0.002 A 
ATOM      8  C   UNL     1      -1.521   3.421  -4.712  0.00  0.00    +0.026 A 
ATOM      9  C   UNL     1      -1.194   3.986  -3.480  0.00  0.00    +0.047 A 
ATOM     10  N   UNL     1      -0.704   3.445  -2.326  0.00  0.00    -0.356 N 
ATOM     11  H   UNL     1      -0.497   2.506  -2.194  0.00  0.00    +0.166 HD
ATOM     12  C   UNL     1      -0.886   6.926  -1.146  0.00  0.00    +0.069 C 
ATOM     13  C   UNL     1      -0.778   6.632   0.357  0.00  0.00    +0.167 C 
ATOM     14  N   UNL     1       0.232   5.597   0.573  0.00  0.00    -0.276 N 
ATOM     15  C   UNL     1       1.371   5.816   1.233  0.00  0.00    +0.234 C 
ATOM     16  O   UNL     1       2.171   4.907   1.296  0.00  0.00    -0.274 OA
ATOM     17  C   UNL     1       1.726   7.104   1.901  0.00  0.00    +0.203 C 
ATOM     18  N   UNL     1       0.668   8.093   1.777  0.00  0.00    -0.291 N 
ATOM     19  C   UNL     1      -0.456   7.893   1.092  0.00  0.00    +0.237 C 
ATOM     20  O   UNL     1      -1.270   8.792   1.063  0.00  0.00    -0.274 OA
ENDROOT
BRANCH   1  26
ATOM     21  C   UNL     1       1.543   2.602   1.068  0.00  0.00    +0.125 A 
ATOM     22  C   UNL     1       2.719   1.866   1.052  0.00  0.00    +0.046 A 
ATOM     23  C   UNL     1       3.581   1.966  -0.023  0.00  0.00    +0.004 A 
ATOM     24  C   UNL     1       3.276   2.807  -1.078  0.00  0.00    +0.001 A 
ATOM     25  C   UNL     1       2.108   3.545  -1.062  0.00  0.00    +0.009 A 
ATOM     26  C   UNL     1       1.240   3.444   0.009  0.00  0.00    +0.020 A 
BRANCH  21  28
ATOM     27  C   UNL     1       1.068   1.614   3.178  0.00  0.00    +0.277 C 
ATOM     28  O   UNL     1       0.691   2.501   2.123  0.00  0.00    -0.495 OA
ENDBRANCH  21  28
ENDBRANCH   1  26
BRANCH  18  29
ATOM     29  C   UNL     1       0.850   9.384   2.445  0.00  0.00    +0.113 C 
BRANCH  29  30
ATOM     30  C   UNL     1       0.283   9.309   3.864  0.00  0.00    +0.056 C 
BRANCH  30  31
ATOM     31  C   UNL     1       0.469  10.637   4.550  0.00  0.00    -0.021 A 
ATOM     32  C   UNL     1       1.485  10.984   5.357  0.00  0.00    +0.087 A 
ATOM     33  N   UNL     1       1.316  12.270   5.794  0.00  0.00    -0.360 N 
ATOM     34  H   UNL     1       1.922  12.741   6.387  0.00  0.00    +0.165 HD
ATOM     35  C   UNL     1       0.158  12.795   5.266  0.00  0.00    +0.047 A 
ATOM     36  C   UNL     1      -0.421  11.798   4.460  0.00  0.00    +0.003 A 
ATOM     37  C   UNL     1      -1.621  12.050   3.794  0.00  0.00    +0.010 A 
ATOM     38  C   UNL     1      -2.225  13.270   3.921  0.00  0.00    +0.001 A 
ATOM     39  C   UNL     1      -1.655  14.258   4.711  0.00  0.00    +0.002 A 
ATOM     40  C   UNL     1      -0.473  14.029   5.381  0.00  0.00    +0.026 A 
ENDBRANCH  30  31
ENDBRANCH  29  30
ENDBRANCH  18  29
TORSDOF 5
