REMARK  Name = ZINC50553357
REMARK  9 active torsions:
REMARK  status: ('A' for Active; 'I' for Inactive)
REMARK    1  A    between atoms: C_1  and  N_2
REMARK    2  A    between atoms: N_2  and  C_3
REMARK    3  A    between atoms: N_2  and  C_4
REMARK    4  A    between atoms: C_4  and  C_5
REMARK    5  A    between atoms: C_10  and  C_11
REMARK    6  A    between atoms: C_11  and  N_12
REMARK    7  A    between atoms: C_13  and  C_15
REMARK    8  A    between atoms: C_18  and  C_20
REMARK    9  A    between atoms: C_23  and  N_26
REMARK                            x       y       z     vdW  Elec       q    Type
REMARK                         _______ _______ _______ _____ _____    ______ ____
ROOT
ATOM      1  N   UNL     1      -1.613  -3.187  -1.858  0.00  0.00    -0.306 N 
ATOM      2  C   UNL     1      -0.972  -4.367  -1.746  0.00  0.00    +0.263 C 
ATOM      3  O   UNL     1       0.188  -4.465  -2.101  0.00  0.00    -0.269 OA
ATOM      4  H   UNL     1      -2.537  -3.108  -1.574  0.00  0.00    +0.149 HD
ENDROOT
BRANCH   2   5
ATOM      5  C   UNL     1      -1.674  -5.537  -1.193  0.00  0.00    +0.133 A 
ATOM      6  C   UNL     1      -1.030  -6.740  -1.071  0.00  0.00    +0.080 A 
ATOM      7  S   UNL     1      -2.223  -7.726  -0.410  0.00  0.00    -0.075 S 
ATOM      8  C   UNL     1      -3.531  -6.516  -0.318  0.00  0.00    +0.109 A 
ATOM      9  N   UNL     1      -2.938  -5.440  -0.803  0.00  0.00    -0.234 NA
BRANCH   8  10
ATOM     10  C   UNL     1      -4.916  -6.675   0.176  0.00  0.00    +0.007 A 
ATOM     11  C   UNL     1      -5.795  -5.592   0.156  0.00  0.00    +0.013 A 
ATOM     12  C   UNL     1      -7.086  -5.746   0.619  0.00  0.00    +0.033 A 
ATOM     13  C   UNL     1      -7.509  -6.972   1.102  0.00  0.00    +0.126 A 
ATOM     14  C   UNL     1      -6.642  -8.050   1.124  0.00  0.00    +0.033 A 
ATOM     15  C   UNL     1      -5.350  -7.909   0.660  0.00  0.00    +0.013 A 
BRANCH  13  16
ATOM     16  N   UNL     1      -8.895  -7.130   1.597  0.00  0.00    +0.056 N 
ATOM     17  O   UNL     1      -9.655  -6.190   1.579  0.00  0.00    -0.126 OA
ATOM     18  O   UNL     1      -9.267  -8.200   2.019  0.00  0.00    -0.126 OA
ENDBRANCH  13  16
ENDBRANCH   8  10
ENDBRANCH   2   5
BRANCH   1  19
ATOM     19  C   UNL     1      -0.914  -2.022  -2.407  0.00  0.00    +0.140 C 
BRANCH  19  25
ATOM     20  C   UNL     1      -2.067  -0.116  -1.267  0.00  0.00    -0.059 A 
ATOM     21  C   UNL     1      -2.918   0.973  -1.283  0.00  0.00    +0.002 A 
ATOM     22  C   UNL     1      -3.553   1.337  -2.457  0.00  0.00    +0.000 A 
ATOM     23  C   UNL     1      -3.336   0.611  -3.613  0.00  0.00    +0.000 A 
ATOM     24  C   UNL     1      -2.484  -0.477  -3.597  0.00  0.00    +0.005 A 
ATOM     25  C   UNL     1      -1.846  -0.838  -2.424  0.00  0.00    -0.029 A 
BRANCH  20  26
ATOM     26  C   UNL     1      -1.376  -0.512   0.012  0.00  0.00    -0.043 C 
BRANCH  26  28
ATOM     27  C   UNL     1      -0.018   1.465   0.010  0.00  0.00    -0.096 C 
ATOM     28  N   UNL     1       0.002  -0.004   0.002  0.00  0.00    +0.379 N 
ATOM     29  C   UNL     1       0.713  -0.491   1.192  0.00  0.00    -0.096 C 
ATOM     30  H   UNL     1       0.474  -0.330  -0.828  0.00  0.00    -0.082 HD
ENDBRANCH  26  28
ENDBRANCH  20  26
ENDBRANCH  19  25
ENDBRANCH   1  19
TORSDOF 7
