REMARK  Name = ZINC59437684
REMARK  5 active torsions:
REMARK  status: ('A' for Active; 'I' for Inactive)
REMARK    1  A    between atoms: C_1  and  C_2
REMARK    2  A    between atoms: C_5  and  C_9
REMARK    3  A    between atoms: C_7  and  C_8
REMARK    4  A    between atoms: N_11  and  C_12
REMARK    5  A    between atoms: C_12  and  N_14
REMARK                            x       y       z     vdW  Elec       q    Type
REMARK                         _______ _______ _______ _____ _____    ______ ____
ROOT
ATOM      1  C   UNL     1       0.056  -4.256  -0.016  0.00  0.00    +0.250 C 
ATOM      2  O   UNL     1       0.077  -4.871   1.032  0.00  0.00    -0.270 OA
ATOM      3  N   UNL     1       0.057  -4.921  -1.188  0.00  0.00    -0.262 N 
ATOM      4  H   UNL     1       0.040  -4.430  -2.024  0.00  0.00    +0.157 HD
ENDROOT
BRANCH   1   9
ATOM      5  C   UNL     1      -0.051   1.497   0.028  0.00  0.00    +0.044 C 
ATOM      6  C   UNL     1      -0.023  -0.009   0.017  0.00  0.00    -0.047 A 
ATOM      7  C   UNL     1      -0.021  -0.689  -1.189  0.00  0.00    +0.004 A 
ATOM      8  C   UNL     1       0.004  -2.068  -1.207  0.00  0.00    +0.013 A 
ATOM      9  C   UNL     1       0.029  -2.778  -0.005  0.00  0.00    +0.037 A 
ATOM     10  C   UNL     1       0.027  -2.086   1.208  0.00  0.00    +0.016 A 
ATOM     11  C   UNL     1       0.007  -0.707   1.211  0.00  0.00    -0.047 A 
ATOM     12  C   UNL     1       0.012   0.042   2.519  0.00  0.00    +0.044 C 
ENDBRANCH   1   9
BRANCH   3  13
ATOM     13  C   UNL     1       0.082  -6.268  -1.198  0.00  0.00    +0.163 C 
ATOM     14  S   UNL     1       0.112  -7.135   0.278  0.00  0.00    -0.016 S 
BRANCH  13  15
ATOM     15  N   UNL     1       0.083  -6.927  -2.360  0.00  0.00    -0.169 NA
ATOM     16  C   UNL     1      -0.850  -7.843  -2.606  0.00  0.00    +0.162 A 
ATOM     17  N   UNL     1      -1.934  -8.171  -1.849  0.00  0.00    -0.342 N 
ATOM     18  C   UNL     1      -2.771  -9.149  -2.293  0.00  0.00    +0.092 A 
ATOM     19  C   UNL     1      -2.470  -9.732  -3.458  0.00  0.00    +0.066 A 
ATOM     20  S   UNL     1      -0.981  -8.872  -3.929  0.00  0.00    -0.061 S 
ATOM     21  H   UNL     1      -2.107  -7.717  -1.010  0.00  0.00    +0.167 HD
ENDBRANCH  13  15
ENDBRANCH   3  13
TORSDOF 3
