REMARK  Name = ZINC39672156
REMARK  9 active torsions:
REMARK  status: ('A' for Active; 'I' for Inactive)
REMARK    1  A    between atoms: C_1  and  N_2
REMARK    2  A    between atoms: C_10  and  C_12
REMARK    3  A    between atoms: C_12  and  N_13
REMARK    4  A    between atoms: C_14  and  C_16
REMARK    5  A    between atoms: C_27  and  C_29
REMARK    6  A    between atoms: C_32  and  O_37
REMARK    7  A    between atoms: C_33  and  O_35
REMARK    8  A    between atoms: O_35  and  C_36
REMARK    9  A    between atoms: O_37  and  C_38
REMARK                            x       y       z     vdW  Elec       q    Type
REMARK                         _______ _______ _______ _____ _____    ______ ____
ROOT
ATOM      1  C   UNL     1       7.116  -2.793   2.396  0.00  0.00    +0.100 C 
ATOM      2  C   UNL     1       7.260  -1.296   2.751  0.00  0.00    +0.121 C 
ATOM      3  N   UNL     1       8.533  -1.211   3.505  0.00  0.00    -0.296 N 
ATOM      4  C   UNL     1       9.443  -2.146   2.800  0.00  0.00    +0.115 C 
ATOM      5  C   UNL     1       8.550  -3.346   2.429  0.00  0.00    -0.004 C 
ATOM      6  C   UNL     1       8.939  -3.887   1.056  0.00  0.00    -0.010 C 
ATOM      7  C   UNL     1      10.347  -4.485   1.128  0.00  0.00    -0.082 C 
ATOM      8  N   UNL     1      10.373  -5.562   2.126  0.00  0.00    +0.379 N 
ATOM      9  C   UNL     1      10.089  -5.016   3.458  0.00  0.00    -0.082 C 
ATOM     10  C   UNL     1       8.671  -4.441   3.485  0.00  0.00    -0.010 C 
ATOM     11  C   UNL     1       8.803  -0.455   4.588  0.00  0.00    +0.247 C 
ATOM     12  O   UNL     1       7.915   0.184   5.120  0.00  0.00    -0.270 OA
ATOM     13  H   UNL     1       9.676  -6.253   1.891  0.00  0.00    -0.086 HD
ATOM     14  H   UNL     1      11.285  -5.994   2.128  0.00  0.00    -0.086 HD
ENDROOT
BRANCH  11  15
ATOM     15  C   UNL     1      10.175  -0.404   5.129  0.00  0.00    +0.041 A 
ATOM     16  C   UNL     1      11.266  -0.672   4.298  0.00  0.00    +0.017 A 
ATOM     17  C   UNL     1      12.546  -0.623   4.804  0.00  0.00    +0.050 A 
ATOM     18  C   UNL     1      12.756  -0.308   6.140  0.00  0.00    +0.162 A 
ATOM     19  C   UNL     1      11.673  -0.040   6.975  0.00  0.00    +0.162 A 
ATOM     20  C   UNL     1      10.387  -0.081   6.472  0.00  0.00    +0.062 A 
BRANCH  19  21
ATOM     21  O   UNL     1      11.882   0.267   8.283  0.00  0.00    -0.491 OA
ATOM     22  C   UNL     1      10.726   0.531   9.081  0.00  0.00    +0.277 C 
ENDBRANCH  19  21
BRANCH  18  23
ATOM     23  O   UNL     1      14.020  -0.262   6.634  0.00  0.00    -0.491 OA
ATOM     24  C   UNL     1      15.084  -0.548   5.724  0.00  0.00    +0.277 C 
ENDBRANCH  18  23
ENDBRANCH  11  15
BRANCH   1  26
ATOM     25  N   UNL     1       5.762  -4.026   0.733  0.00  0.00    -0.311 N 
ATOM     26  C   UNL     1       6.523  -2.951   1.020  0.00  0.00    +0.218 C 
ATOM     27  O   UNL     1       6.731  -2.111   0.170  0.00  0.00    -0.275 OA
ATOM     28  H   UNL     1       5.596  -4.697   1.413  0.00  0.00    +0.149 HD
BRANCH  25  29
ATOM     29  C   UNL     1       5.186  -4.179  -0.605  0.00  0.00    +0.139 C 
BRANCH  29  39
ATOM     30  C   UNL     1       0.830  -9.021  -0.195  0.00  0.00    +0.129 C 
ATOM     31  N   UNL     1       2.158  -8.971  -0.812  0.00  0.00    -0.333 N 
ATOM     32  C   UNL     1       2.710 -10.151  -1.492  0.00  0.00    +0.105 C 
ATOM     33  C   UNL     1       4.172 -10.305  -1.051  0.00  0.00    +0.024 C 
ATOM     34  C   UNL     1       4.960  -9.082  -1.518  0.00  0.00    +0.038 C 
ATOM     35  C   UNL     1       4.268  -7.814  -1.093  0.00  0.00    -0.026 A 
ATOM     36  C   UNL     1       2.919  -7.798  -0.769  0.00  0.00    +0.033 A 
ATOM     37  C   UNL     1       2.307  -6.608  -0.390  0.00  0.00    +0.024 A 
ATOM     38  C   UNL     1       3.041  -5.440  -0.338  0.00  0.00    +0.007 A 
ATOM     39  C   UNL     1       4.384  -5.454  -0.663  0.00  0.00    -0.030 A 
ATOM     40  C   UNL     1       4.999  -6.640  -1.032  0.00  0.00    +0.010 A 
ENDBRANCH  29  39
ENDBRANCH  25  29
ENDBRANCH   1  26
TORSDOF 6
