REMARK  Name = ZINC37941962
REMARK  3 active torsions:
REMARK  status: ('A' for Active; 'I' for Inactive)
REMARK    1  A    between atoms: C_4  and  N_7
REMARK    2  A    between atoms: N_7  and  C_8
REMARK    3  A    between atoms: C_8  and  C_18
REMARK                            x       y       z     vdW  Elec       q    Type
REMARK                         _______ _______ _______ _____ _____    ______ ____
ROOT
ATOM      1  C   UNL     1       3.736  -2.107  -0.102  0.00  0.00    +0.134 C 
ATOM      2  C   UNL     1       5.235  -2.363   0.040  0.00  0.00    +0.040 C 
ATOM      3  C   UNL     1       5.924  -1.931  -1.260  0.00  0.00    +0.008 C 
ATOM      4  C   UNL     1       5.534  -2.916  -2.361  0.00  0.00    +0.035 C 
ATOM      5  C   UNL     1       4.038  -3.083  -2.415  0.00  0.00    -0.042 A 
ATOM      6  C   UNL     1       3.213  -2.716  -1.376  0.00  0.00    -0.012 A 
ATOM      7  C   UNL     1       1.842  -2.904  -1.488  0.00  0.00    +0.006 A 
ATOM      8  C   UNL     1       1.300  -3.452  -2.632  0.00  0.00    +0.000 A 
ATOM      9  C   UNL     1       2.128  -3.817  -3.677  0.00  0.00    +0.000 A 
ATOM     10  C   UNL     1       3.491  -3.633  -3.567  0.00  0.00    +0.004 A 
ENDROOT
BRANCH   1  11
ATOM     11  C   UNL     1       3.015  -2.717   1.073  0.00  0.00    +0.238 C 
ATOM     12  O   UNL     1       3.495  -3.670   1.650  0.00  0.00    -0.273 OA
ATOM     13  N   UNL     1       1.838  -2.205   1.481  0.00  0.00    -0.327 N 
ATOM     14  H   UNL     1       1.489  -1.401   1.066  0.00  0.00    +0.145 HD
ATOM     15  H   UNL     1       1.339  -2.640   2.190  0.00  0.00    +0.145 HD
ENDBRANCH   1  11
BRANCH   1  16
ATOM     16  N   UNL     1       3.492  -0.663  -0.120  0.00  0.00    -0.327 N 
ATOM     17  H   UNL     1       3.068  -0.252  -0.890  0.00  0.00    +0.147 HD
BRANCH  16  21
ATOM     18  C   UNL     1       4.616   1.681   3.132  0.00  0.00    +0.000 A 
ATOM     19  C   UNL     1       4.141   2.281   1.981  0.00  0.00    +0.002 A 
ATOM     20  C   UNL     1       3.767   1.507   0.900  0.00  0.00    +0.023 A 
ATOM     21  C   UNL     1       3.869   0.124   0.971  0.00  0.00    +0.028 A 
ATOM     22  C   UNL     1       4.348  -0.476   2.129  0.00  0.00    +0.023 A 
ATOM     23  C   UNL     1       4.719   0.304   3.206  0.00  0.00    +0.002 A 
ENDBRANCH  16  21
ENDBRANCH   1  16
TORSDOF 3
