REMARK  Name = ZINC63731638
REMARK  9 active torsions:
REMARK  status: ('A' for Active; 'I' for Inactive)
REMARK    1  A    between atoms: C_1  and  C_2
REMARK    2  A    between atoms: N_4  and  C_5
REMARK    3  A    between atoms: C_5  and  C_7
REMARK    4  A    between atoms: C_5  and  C_17
REMARK    5  A    between atoms: C_7  and  C_8
REMARK    6  A    between atoms: C_17  and  O_19
REMARK    7  A    between atoms: O_19  and  C_20
REMARK    8  A    between atoms: C_20  and  C_21
REMARK    9  A    between atoms: N_23  and  C_24
REMARK                            x       y       z     vdW  Elec       q    Type
REMARK                         _______ _______ _______ _____ _____    ______ ____
ROOT
ATOM      1  C   UNL     1      -1.120  -2.166  -0.012  0.00  0.00    +0.186 C 
ENDROOT
BRANCH   1   5
ATOM      2  C   UNL     1       0.019   1.489  -0.018  0.00  0.00    +0.109 C 
ATOM      3  C   UNL     1       0.030  -0.018  -0.021  0.00  0.00    +0.211 C 
ATOM      4  O   UNL     1       1.085  -0.616  -0.034  0.00  0.00    -0.276 OA
ATOM      5  N   UNL     1      -1.131  -0.701  -0.009  0.00  0.00    -0.302 N 
ATOM      6  H   UNL     1      -1.975  -0.223   0.001  0.00  0.00    +0.150 HD
ENDBRANCH   1   5
BRANCH   1   7
ATOM      7  C   UNL     1      -0.392  -2.665   1.210  0.00  0.00    +0.328 C 
ATOM      8  O   UNL     1       0.368  -1.934   1.800  0.00  0.00    -0.249 OA
BRANCH   7   9
ATOM      9  O   UNL     1      -0.587  -3.921   1.641  0.00  0.00    -0.454 OA
BRANCH   9  10
ATOM     10  C   UNL     1       0.136  -4.327   2.805  0.00  0.00    +0.328 C 
BRANCH  10  11
ATOM     11  C   UNL     1      -0.208  -5.755   3.137  0.00  0.00    +0.255 C 
ATOM     12  O   UNL     1      -0.995  -6.366   2.446  0.00  0.00    -0.272 OA
ATOM     13  N   UNL     1       0.359  -6.355   4.203  0.00  0.00    -0.281 N 
ATOM     14  H   UNL     1       1.037  -5.890   4.718  0.00  0.00    +0.155 HD
BRANCH  13  15
ATOM     15  C   UNL     1      -0.030  -7.646   4.567  0.00  0.00    +0.062 A 
ATOM     16  C   UNL     1      -0.366  -8.551   3.609  0.00  0.00    +0.025 A 
ATOM     17  C   UNL     1      -0.758  -9.846   3.939  0.00  0.00    +0.004 A 
ATOM     18  C   UNL     1      -0.823 -10.261   5.226  0.00  0.00    +0.031 A 
ATOM     19  C   UNL     1      -0.488  -9.372   6.284  0.00  0.00    +0.102 A 
ATOM     20  C   UNL     1      -0.070  -8.017   5.944  0.00  0.00    +0.121 A 
ATOM     21  N   UNL     1       0.225  -7.276   7.012  0.00  0.00    -0.189 NA
ATOM     22  S   UNL     1      -0.007  -8.234   8.283  0.00  0.00    +0.117 S 
ATOM     23  N   UNL     1      -0.495  -9.605   7.597  0.00  0.00    -0.191 NA
ENDBRANCH  13  15
ENDBRANCH  10  11
ENDBRANCH   9  10
ENDBRANCH   7   9
ENDBRANCH   1   7
BRANCH   1  24
ATOM     24  C   UNL     1      -0.409  -2.668  -1.270  0.00  0.00    +0.067 C 
BRANCH  24  25
ATOM     25  C   UNL     1      -1.204  -2.273  -2.488  0.00  0.00    -0.039 C 
ATOM     26  C   UNL     1      -1.017  -1.181  -3.262  0.00  0.00    -0.001 A 
ATOM     27  C   UNL     1      -0.055  -0.074  -3.204  0.00  0.00    +0.010 A 
ATOM     28  C   UNL     1      -0.117   0.899  -4.141  0.00  0.00    +0.001 A 
ATOM     29  C   UNL     1      -1.076   0.878  -5.164  0.00  0.00    +0.002 A 
ATOM     30  C   UNL     1      -1.993  -0.106  -5.283  0.00  0.00    +0.026 A 
ATOM     31  C   UNL     1      -2.019  -1.180  -4.352  0.00  0.00    +0.043 A 
ATOM     32  N   UNL     1      -2.795  -2.232  -4.255  0.00  0.00    -0.380 N 
ATOM     33  C   UNL     1      -2.369  -3.023  -3.095  0.00  0.00    +0.144 C 
ATOM     34  H   UNL     1      -3.526  -2.453  -4.853  0.00  0.00    +0.160 HD
ENDBRANCH  24  25
ENDBRANCH   1  24
TORSDOF 8
