REMARK  Name = ZINC35590782
REMARK  13 active torsions:
REMARK  status: ('A' for Active; 'I' for Inactive)
REMARK    1  A    between atoms: C_1  and  C_2
REMARK    2  A    between atoms: C_5  and  S_8
REMARK    3  A    between atoms: S_8  and  N_11
REMARK    4  A    between atoms: N_11  and  C_12
REMARK    5  A    between atoms: N_11  and  C_27
REMARK    6  A    between atoms: C_12  and  C_13
REMARK    7  A    between atoms: C_13  and  C_15
REMARK    8  A    between atoms: C_13  and  O_26
REMARK    9  A    between atoms: C_15  and  N_16
REMARK   10  A    between atoms: C_17  and  C_25
REMARK   11  A    between atoms: C_22  and  C_24
REMARK   12  A    between atoms: C_30  and  O_33
REMARK   13  A    between atoms: O_33  and  C_34
REMARK                            x       y       z     vdW  Elec       q    Type
REMARK                         _______ _______ _______ _____ _____    ______ ____
ROOT
ATOM      1  N   UNL     1       2.179  -4.995  -0.421  0.00  0.00    -0.201 N 
ENDROOT
BRANCH   1   2
ATOM      2  C   UNL     1       3.111  -4.978  -1.466  0.00  0.00    +0.052 A 
ATOM      3  C   UNL     1       4.199  -4.118  -1.412  0.00  0.00    +0.028 A 
ATOM      4  C   UNL     1       5.118  -4.103  -2.443  0.00  0.00    +0.047 A 
ATOM      5  C   UNL     1       4.953  -4.946  -3.532  0.00  0.00    +0.120 A 
ATOM      6  C   UNL     1       3.866  -5.805  -3.586  0.00  0.00    +0.047 A 
ATOM      7  C   UNL     1       2.949  -5.826  -2.554  0.00  0.00    +0.028 A 
BRANCH   5   8
ATOM      8  O   UNL     1       5.859  -4.930  -4.547  0.00  0.00    -0.495 OA
ATOM      9  C   UNL     1       5.627  -5.825  -5.637  0.00  0.00    +0.277 C 
ENDBRANCH   5   8
ENDBRANCH   1   2
BRANCH   1  10
ATOM     10  S   UNL     1       0.591  -4.638  -0.722  0.00  0.00    +0.075 S 
ATOM     11  O   UNL     1      -0.155  -5.148   0.374  0.00  0.00    -0.150 OA
ATOM     12  O   UNL     1       0.335  -5.026  -2.065  0.00  0.00    -0.150 OA
BRANCH  10  17
ATOM     13  C   UNL     1       0.043   1.368  -0.531  0.00  0.00    +0.044 C 
ATOM     14  C   UNL     1       0.180  -0.132  -0.579  0.00  0.00    -0.050 A 
ATOM     15  C   UNL     1       0.579  -0.753  -1.747  0.00  0.00    +0.005 A 
ATOM     16  C   UNL     1       0.705  -2.129  -1.791  0.00  0.00    +0.029 A 
ATOM     17  C   UNL     1       0.432  -2.884  -0.666  0.00  0.00    +0.109 A 
ATOM     18  C   UNL     1       0.033  -2.263   0.503  0.00  0.00    +0.029 A 
ATOM     19  C   UNL     1      -0.089  -0.887   0.548  0.00  0.00    +0.005 A 
ENDBRANCH  10  17
ENDBRANCH   1  10
BRANCH   1  20
ATOM     20  C   UNL     1       2.610  -5.329   0.939  0.00  0.00    +0.161 C 
BRANCH  20  21
ATOM     21  C   UNL     1       2.720  -6.848   1.081  0.00  0.00    +0.117 C 
BRANCH  21  22
ATOM     22  O   UNL     1       1.441  -7.442   0.849  0.00  0.00    -0.392 OA
ATOM     23  H   UNL     1       0.754  -7.147   1.462  0.00  0.00    +0.210 HD
ENDBRANCH  21  22
BRANCH  21  24
ATOM     24  C   UNL     1       3.196  -7.195   2.493  0.00  0.00    -0.045 C 
BRANCH  24  25
ATOM     25  N   UNL     1       3.473  -8.636   2.576  0.00  0.00    +0.385 N 
ATOM     26  C   UNL     1       2.219  -9.383   2.430  0.00  0.00    -0.071 C 
ATOM     27  C   UNL     1       2.490 -10.880   2.596  0.00  0.00    -0.016 C 
ATOM     28  C   UNL     1       3.485 -11.335   1.525  0.00  0.00    -0.003 C 
ATOM     29  C   UNL     1       4.762 -10.497   1.639  0.00  0.00    -0.016 C 
ATOM     30  C   UNL     1       4.406  -9.015   1.508  0.00  0.00    -0.071 C 
ATOM     31  C   UNL     1       5.679  -8.173   1.622  0.00  0.00    -0.013 C 
ATOM     32  C   UNL     1       1.225  -8.925   3.499  0.00  0.00    -0.013 C 
ATOM     33  H   UNL     1       3.886  -8.846   3.472  0.00  0.00    -0.081 HD
ENDBRANCH  24  25
ENDBRANCH  21  24
ENDBRANCH  20  21
ENDBRANCH   1  20
TORSDOF 9
