REMARK  Name = ZINC04532485
REMARK  3 active torsions:
REMARK  status: ('A' for Active; 'I' for Inactive)
REMARK    1  A    between atoms: C_1  and  O_2
REMARK    2  A    between atoms: O_2  and  C_3
REMARK    3  A    between atoms: C_12  and  C_18
REMARK                            x       y       z     vdW  Elec       q    Type
REMARK                         _______ _______ _______ _____ _____    ______ ____
ROOT
ATOM      1  C   UNL     1      -0.728   1.579   1.267  0.00  0.00    +0.118 C 
ATOM      2  C   UNL     1      -0.013   1.086   0.008  0.00  0.00    +0.030 C 
ATOM      3  C   UNL     1      -0.752   1.593  -1.232  0.00  0.00    -0.013 C 
ATOM      4  C   UNL     1      -0.773   3.122  -1.222  0.00  0.00    -0.066 C 
ATOM      5  C   UNL     1      -1.494   3.612   0.036  0.00  0.00    -0.009 C 
ATOM      6  C   UNL     1      -0.752   3.109   1.276  0.00  0.00    +0.034 C 
ATOM      7  C   UNL     1      -1.520   5.143   0.039  0.00  0.00    +0.103 C 
ATOM      8  C   UNL     1      -2.213   5.634  -1.235  0.00  0.00    +0.015 C 
ATOM      9  C   UNL     1      -1.476   5.083  -2.458  0.00  0.00    +0.024 C 
ATOM     10 CL   UNL     1      -2.306   5.638  -3.959  0.00  0.00    -0.143 Cl
ATOM     11  N   UNL     1      -1.481   3.608  -2.421  0.00  0.00    +0.392 N 
ATOM     12  H   UNL     1      -2.452   3.274  -2.400  0.00  0.00    -0.083 HD
ATOM     13  H   UNL     1      -1.013   3.247  -3.260  0.00  0.00    -0.083 HD
ENDROOT
BRANCH   7  14
ATOM     14  C   UNL     1      -2.277   5.633   1.246  0.00  0.00    +0.359 C 
ATOM     15  O   UNL     1      -2.744   4.841   2.030  0.00  0.00    -0.246 OA
ATOM     16  O   UNL     1      -2.433   6.951   1.451  0.00  0.00    -0.246 OA
ENDBRANCH   7  14
BRANCH   1  18
ATOM     17  C   UNL     1      -2.212  -0.184   1.928  0.00  0.00    +0.194 C 
ATOM     18  O   UNL     1      -2.068   1.081   1.279  0.00  0.00    -0.380 OA
ENDBRANCH   1  18
TORSDOF 2
