REMARK  Name = ZINC09432021
REMARK  9 active torsions:
REMARK  status: ('A' for Active; 'I' for Inactive)
REMARK    1  A    between atoms: C_1  and  C_2
REMARK    2  A    between atoms: C_2  and  C_3
REMARK    3  A    between atoms: C_3  and  O_4
REMARK    4  A    between atoms: O_4  and  C_5
REMARK    5  A    between atoms: C_8  and  C_11
REMARK    6  A    between atoms: C_14  and  O_32
REMARK    7  A    between atoms: N_16  and  C_23
REMARK    8  A    between atoms: C_28  and  C_30
REMARK    9  A    between atoms: C_28  and  C_31
REMARK                            x       y       z     vdW  Elec       q    Type
REMARK                         _______ _______ _______ _____ _____    ______ ____
ROOT
ATOM      1  C   UNL     1       3.240  -4.426  -5.648  0.00  0.00    +0.115 C 
ATOM      2  C   UNL     1       2.223  -5.245  -6.379  0.00  0.00    +0.072 A 
ATOM      3  C   UNL     1       0.841  -4.947  -6.324  0.00  0.00    +0.238 A 
ATOM      4  N   UNL     1       0.196  -5.821  -7.047  0.00  0.00    -0.131 NA
ATOM      5  N   UNL     1       1.127  -6.706  -7.591  0.00  0.00    -0.243 N 
ATOM      6  C   UNL     1       2.379  -6.330  -7.167  0.00  0.00    +0.132 A 
ATOM      7  N   UNL     1       3.498  -7.025  -7.559  0.00  0.00    -0.270 N 
ATOM      8  C   UNL     1       4.768  -6.945  -7.294  0.00  0.00    +0.228 C 
ATOM      9  O   UNL     1       5.445  -7.832  -7.770  0.00  0.00    -0.275 OA
ATOM     10  C   UNL     1       5.519  -5.944  -6.507  0.00  0.00    +0.166 C 
ATOM     11  S   UNL     1       4.626  -5.393  -5.045  0.00  0.00    -0.138 S 
ATOM     12  H   UNL     1       3.292  -7.744  -8.177  0.00  0.00    +0.156 HD
ENDROOT
BRANCH   5  13
ATOM     13  C   UNL     1       0.821  -7.841  -8.465  0.00  0.00    +0.114 C 
ATOM     14  C   UNL     1      -0.110  -8.814  -7.734  0.00  0.00    +0.055 C 
ATOM     15  C   UNL     1      -0.486  -9.956  -8.681  0.00  0.00    +0.162 C 
ATOM     16  O   UNL     1      -1.102  -9.418  -9.854  0.00  0.00    -0.374 OA
ATOM     17  C   UNL     1      -0.261  -8.539 -10.603  0.00  0.00    +0.066 C 
ATOM     18  C   UNL     1       0.126  -7.339  -9.734  0.00  0.00    +0.061 C 
ATOM     19  C   UNL     1      -1.011  -8.049 -11.843  0.00  0.00    +0.041 C 
ATOM     20  C   UNL     1       1.004  -9.285 -11.033  0.00  0.00    +0.041 C 
ENDBRANCH   5  13
BRANCH   1  24
ATOM     21  C   UNL     1       1.341  -2.529  -2.322  0.00  0.00    +0.121 A 
ATOM     22  C   UNL     1       1.909  -1.762  -3.329  0.00  0.00    +0.046 A 
ATOM     23  C   UNL     1       2.522  -2.377  -4.403  0.00  0.00    +0.008 A 
ATOM     24  C   UNL     1       2.571  -3.757  -4.475  0.00  0.00    -0.030 A 
ATOM     25  C   UNL     1       2.006  -4.524  -3.473  0.00  0.00    +0.008 A 
ATOM     26  C   UNL     1       1.397  -3.914  -2.394  0.00  0.00    +0.046 A 
BRANCH  21  27
ATOM     27  O   UNL     1       0.738  -1.926  -1.265  0.00  0.00    -0.492 OA
BRANCH  27  28
ATOM     28  C   UNL     1       0.718  -0.497  -1.257  0.00  0.00    +0.229 C 
BRANCH  28  30
ATOM     29  C   UNL     1      -0.019   1.526   0.010  0.00  0.00    +0.007 C 
ATOM     30  C   UNL     1       0.002  -0.004   0.002  0.00  0.00    +0.038 C 
ENDBRANCH  28  30
ENDBRANCH  27  28
ENDBRANCH  21  27
ENDBRANCH   1  24
BRANCH   3  31
ATOM     31  O   UNL     1       0.278  -3.921  -5.631  0.00  0.00    -0.491 OA
ATOM     32  H   UNL     1       0.199  -3.101  -6.138  0.00  0.00    +0.294 HD
ENDBRANCH   3  31
TORSDOF 6
