REMARK  Name = ZINC39446511
REMARK  6 active torsions:
REMARK  status: ('A' for Active; 'I' for Inactive)
REMARK    1  A    between atoms: C_1  and  C_2
REMARK    2  A    between atoms: C_3  and  C_31
REMARK    3  A    between atoms: C_7  and  S_20
REMARK    4  A    between atoms: N_9  and  C_14
REMARK    5  A    between atoms: S_20  and  C_21
REMARK    6  A    between atoms: C_21  and  C_22
REMARK                            x       y       z     vdW  Elec       q    Type
REMARK                         _______ _______ _______ _____ _____    ______ ____
ROOT
ATOM      1  C   UNL     1       1.069   1.408  -1.606  0.00  0.00    +0.041 C 
ATOM      2  C   UNL     1      -0.227   1.770  -2.284  0.00  0.00    -0.045 C 
ATOM      3  C   UNL     1      -0.625   3.219  -2.504  0.00  0.00    +0.076 C 
ATOM      4  S   UNL     1      -2.076   3.024  -3.625  0.00  0.00    -0.098 S 
ATOM      5  C   UNL     1      -2.333   1.293  -3.364  0.00  0.00    +0.107 C 
ATOM      6  N   UNL     1      -3.307   0.503  -3.638  0.00  0.00    -0.243 NA
ATOM      7  C   UNL     1      -3.262  -0.887  -3.178  0.00  0.00    +0.260 C 
ATOM      8  N   UNL     1      -1.921  -1.401  -2.969  0.00  0.00    -0.236 N 
ATOM      9  C   UNL     1      -0.850  -0.645  -2.646  0.00  0.00    +0.256 C 
ATOM     10  O   UNL     1       0.215  -1.134  -2.323  0.00  0.00    -0.269 OA
ATOM     11  C   UNL     1      -1.059   0.839  -2.716  0.00  0.00    +0.069 C 
ATOM     12  C   UNL     1      -1.031   3.884  -1.187  0.00  0.00    +0.024 C 
ENDROOT
BRANCH   8  13
ATOM     13  C   UNL     1      -1.724  -2.779  -3.112  0.00  0.00    +0.039 A 
ATOM     14  C   UNL     1      -1.433  -3.314  -4.360  0.00  0.00    +0.023 A 
ATOM     15  C   UNL     1      -1.239  -4.675  -4.497  0.00  0.00    +0.002 A 
ATOM     16  C   UNL     1      -1.334  -5.503  -3.394  0.00  0.00    +0.000 A 
ATOM     17  C   UNL     1      -1.624  -4.973  -2.150  0.00  0.00    +0.002 A 
ATOM     18  C   UNL     1      -1.814  -3.613  -2.005  0.00  0.00    +0.023 A 
ENDBRANCH   8  13
BRANCH   7  19
ATOM     19  S   UNL     1      -4.173  -1.007  -1.614  0.00  0.00    -0.107 S 
BRANCH  19  20
ATOM     20  C   UNL     1      -3.287   0.122  -0.503  0.00  0.00    +0.147 C 
BRANCH  20  21
ATOM     21  C   UNL     1      -3.950   0.117   0.850  0.00  0.00    +0.118 A 
ATOM     22  N   UNL     1      -3.643  -0.685   1.827  0.00  0.00    -0.232 NA
ATOM     23  C   UNL     1      -4.432  -0.420   2.900  0.00  0.00    +0.089 A 
ATOM     24  C   UNL     1      -4.529  -0.965   4.183  0.00  0.00    +0.030 A 
ATOM     25  C   UNL     1      -5.449  -0.470   5.065  0.00  0.00    +0.002 A 
ATOM     26  C   UNL     1      -6.291   0.570   4.700  0.00  0.00    +0.002 A 
ATOM     27  C   UNL     1      -6.213   1.123   3.439  0.00  0.00    +0.028 A 
ATOM     28  C   UNL     1      -5.285   0.634   2.530  0.00  0.00    +0.066 A 
ATOM     29  N   UNL     1      -4.952   0.956   1.230  0.00  0.00    -0.341 N 
ATOM     30  H   UNL     1      -5.358   1.649   0.687  0.00  0.00    +0.167 HD
ENDBRANCH  20  21
ENDBRANCH  19  20
ENDBRANCH   7  19
TORSDOF 4
