REMARK  Name = ZINC06738216
REMARK  3 active torsions:
REMARK  status: ('A' for Active; 'I' for Inactive)
REMARK    1  A    between atoms: C_1  and  S_2
REMARK    2  A    between atoms: S_2  and  C_3
REMARK    3  A    between atoms: C_8  and  C_18
REMARK                            x       y       z     vdW  Elec       q    Type
REMARK                         _______ _______ _______ _____ _____    ______ ____
ROOT
ATOM      1  C   UNL     1       4.771   4.511   1.607  0.00  0.00    +0.210 A 
ATOM      2  N   UNL     1       3.432   4.527   1.677  0.00  0.00    -0.187 NA
ATOM      3  C   UNL     1       2.943   3.606   0.892  0.00  0.00    +0.219 A 
ATOM      4  N   UNL     1       3.979   2.972   0.290  0.00  0.00    -0.220 N 
ATOM      5  N   UNL     1       5.145   3.569   0.768  0.00  0.00    -0.141 NA
ATOM      6  C   UNL     1       3.808   1.884  -0.665  0.00  0.00    +0.175 C 
ATOM      7  C   UNL     1       2.386   1.370  -0.615  0.00  0.00    +0.041 C 
ATOM      8  C   UNL     1       1.397   2.053  -0.000  0.00  0.00    +0.020 C 
ATOM      9  N   UNL     1       1.630   3.246   0.641  0.00  0.00    -0.287 N 
ATOM     10  C   UNL     1      -0.019   1.526   0.010  0.00  0.00    +0.052 C 
ATOM     11  C   UNL     1       0.002  -0.004   0.002  0.00  0.00    +0.014 C 
ATOM     12  C   UNL     1       0.755  -0.469  -1.249  0.00  0.00    +0.080 C 
ATOM     13  C   UNL     1       2.129   0.140  -1.247  0.00  0.00    +0.163 C 
ATOM     14  O   UNL     1       3.038  -0.443  -1.806  0.00  0.00    -0.292 OA
ATOM     15  H   UNL     1       0.895   3.819   0.911  0.00  0.00    +0.155 HD
ENDROOT
BRANCH   6  16
ATOM     16  C   UNL     1       4.109   2.388  -2.053  0.00  0.00    -0.017 A 
ATOM     17  C   UNL     1       3.357   3.414  -2.594  0.00  0.00    +0.006 A 
ATOM     18  C   UNL     1       3.636   3.881  -3.864  0.00  0.00    +0.001 A 
ATOM     19  C   UNL     1       4.660   3.314  -4.599  0.00  0.00    +0.015 A 
ATOM     20  C   UNL     1       5.409   2.284  -4.061  0.00  0.00    +0.018 A 
ATOM     21  C   UNL     1       5.133   1.821  -2.787  0.00  0.00    +0.021 A 
ATOM     22 BR   UNL     1       6.810   1.507  -5.066  0.00  0.00    -0.050 Br
ENDBRANCH   6  16
BRANCH   1  24
ATOM     23  C   UNL     1       4.739   6.630   3.465  0.00  0.00    +0.093 C 
ATOM     24  S   UNL     1       5.856   5.577   2.497  0.00  0.00    -0.088 S 
ENDBRANCH   1  24
TORSDOF 2
