REMARK  Name = ZINC34849353
REMARK  8 active torsions:
REMARK  status: ('A' for Active; 'I' for Inactive)
REMARK    1  A    between atoms: C_1  and  C_2
REMARK    2  A    between atoms: C_6  and  N_8
REMARK    3  A    between atoms: C_9  and  C_11
REMARK    4  A    between atoms: N_22  and  C_37
REMARK    5  A    between atoms: C_23  and  C_25
REMARK    6  A    between atoms: N_27  and  C_28
REMARK    7  A    between atoms: C_34  and  C_36
REMARK    8  A    between atoms: C_37  and  C_38
REMARK                            x       y       z     vdW  Elec       q    Type
REMARK                         _______ _______ _______ _____ _____    ______ ____
ROOT
ATOM      1  C   UNL     1       0.103  -5.093   3.508  0.00  0.00    +0.123 C 
ATOM      2  C   UNL     1       1.384  -4.825   4.362  0.00  0.00    +0.155 C 
ATOM      3  C   UNL     1       1.247  -5.657   5.643  0.00  0.00    +0.004 C 
ATOM      4  C   UNL     1       1.437  -6.939   5.308  0.00  0.00    +0.009 C 
ATOM      5  C   UNL     1       1.647  -6.891   3.837  0.00  0.00    +0.127 C 
ATOM      6  C   UNL     1       0.261  -6.584   3.160  0.00  0.00    +0.128 C 
ATOM      7  C   UNL     1       0.555  -6.869   1.714  0.00  0.00    +0.224 C 
ATOM      8  O   UNL     1      -0.037  -6.389   0.770  0.00  0.00    -0.275 OA
ATOM      9  N   UNL     1       1.586  -7.747   1.631  0.00  0.00    -0.282 N 
ATOM     10  C   UNL     1       2.139  -8.038   3.010  0.00  0.00    +0.199 C 
ATOM     11  O   UNL     1       2.364  -5.629   3.609  0.00  0.00    -0.358 OA
ENDROOT
BRANCH   1  13
ATOM     12  N   UNL     1      -1.068  -3.891   1.691  0.00  0.00    -0.285 N 
ATOM     13  C   UNL     1       0.100  -4.246   2.261  0.00  0.00    +0.224 C 
ATOM     14  O   UNL     1       1.149  -3.884   1.772  0.00  0.00    -0.275 OA
ATOM     15  H   UNL     1      -1.907  -4.123   2.119  0.00  0.00    +0.155 HD
BRANCH  12  21
ATOM     16  C   UNL     1      -3.147  -2.976  -2.669  0.00  0.00    +0.044 C 
ATOM     17  C   UNL     1      -2.066  -2.724  -1.650  0.00  0.00    -0.049 A 
ATOM     18  C   UNL     1      -1.075  -1.795  -1.910  0.00  0.00    +0.003 A 
ATOM     19  C   UNL     1      -0.082  -1.560  -0.977  0.00  0.00    +0.002 A 
ATOM     20  C   UNL     1      -0.077  -2.253   0.218  0.00  0.00    +0.023 A 
ATOM     21  C   UNL     1      -1.070  -3.187   0.482  0.00  0.00    +0.034 A 
ATOM     22  C   UNL     1      -2.070  -3.416  -0.455  0.00  0.00    +0.026 A 
ENDBRANCH  12  21
ENDBRANCH   1  13
BRANCH  10  23
ATOM     23  C   UNL     1       1.621  -9.344   3.556  0.00  0.00    +0.237 C 
ATOM     24  O   UNL     1       0.607  -9.831   3.103  0.00  0.00    -0.274 OA
ATOM     25  N   UNL     1       2.284  -9.969   4.548  0.00  0.00    -0.311 N 
ATOM     26  H   UNL     1       3.048  -9.541   4.966  0.00  0.00    +0.149 HD
BRANCH  25  27
ATOM     27  C   UNL     1       1.852 -11.295   4.997  0.00  0.00    +0.076 C 
ATOM     28  C   UNL     1       0.664 -11.149   5.949  0.00  0.00    +0.022 C 
ATOM     29  C   UNL     1       1.081 -10.313   7.160  0.00  0.00    +0.002 C 
ATOM     30  C   UNL     1       2.234 -11.007   7.887  0.00  0.00    +0.000 C 
ATOM     31  C   UNL     1       3.423 -11.153   6.934  0.00  0.00    +0.005 C 
ATOM     32  C   UNL     1       3.006 -11.989   5.723  0.00  0.00    +0.006 C 
ATOM     33  C   UNL     1       4.194 -12.135   4.770  0.00  0.00    +0.009 C 
ENDBRANCH  25  27
ENDBRANCH  10  23
BRANCH   9  34
ATOM     34  C   UNL     1       2.071  -8.345   0.385  0.00  0.00    +0.143 C 
BRANCH  34  35
ATOM     35  C   UNL     1       3.144  -7.470  -0.209  0.00  0.00    -0.030 A 
ATOM     36  C   UNL     1       2.803  -6.461  -1.091  0.00  0.00    +0.005 A 
ATOM     37  C   UNL     1       3.787  -5.657  -1.636  0.00  0.00    +0.000 A 
ATOM     38  C   UNL     1       5.112  -5.863  -1.299  0.00  0.00    +0.000 A 
ATOM     39  C   UNL     1       5.453  -6.871  -0.417  0.00  0.00    +0.000 A 
ATOM     40  C   UNL     1       4.468  -7.672   0.131  0.00  0.00    +0.005 A 
ENDBRANCH  34  35
ENDBRANCH   9  34
TORSDOF 6
