REMARK  Name = ZINC40108053
REMARK  9 active torsions:
REMARK  status: ('A' for Active; 'I' for Inactive)
REMARK    1  A    between atoms: C_1  and  C_2
REMARK    2  A    between atoms: C_4  and  N_22
REMARK    3  A    between atoms: C_6  and  C_7
REMARK    4  A    between atoms: N_9  and  C_10
REMARK    5  A    between atoms: C_10  and  C_11
REMARK    6  A    between atoms: C_11  and  C_13
REMARK    7  A    between atoms: C_11  and  N_14
REMARK    8  A    between atoms: C_18  and  C_21
REMARK    9  A    between atoms: C_23  and  C_25
REMARK                            x       y       z     vdW  Elec       q    Type
REMARK                         _______ _______ _______ _____ _____    ______ ____
ROOT
ATOM      1  C   UNL     1       1.037   0.577  -0.341  0.00  0.00    +0.045 C 
ATOM      2  C   UNL     1       1.073  -0.912  -0.113  0.00  0.00    -0.029 A 
ATOM      3  C   UNL     1       1.297  -1.799  -1.133  0.00  0.00    +0.035 A 
ATOM      4  C   UNL     1       1.315  -3.144  -0.846  0.00  0.00    +0.073 A 
ATOM      5  S   UNL     1       1.027  -3.213   0.808  0.00  0.00    -0.069 S 
ATOM      6  C   UNL     1       0.886  -1.469   1.145  0.00  0.00    +0.078 A 
ENDROOT
BRANCH   6   7
ATOM      7  C   UNL     1       0.636  -0.797   2.419  0.00  0.00    +0.251 C 
ATOM      8  O   UNL     1       0.569   0.418   2.463  0.00  0.00    -0.270 OA
ATOM      9  N   UNL     1       0.480  -1.522   3.544  0.00  0.00    -0.312 N 
ATOM     10  H   UNL     1       0.534  -2.490   3.509  0.00  0.00    +0.149 HD
BRANCH   9  11
ATOM     11  C   UNL     1       0.229  -0.849   4.821  0.00  0.00    +0.089 C 
BRANCH  11  12
ATOM     12  C   UNL     1      -0.041  -1.895   5.904  0.00  0.00    -0.054 C 
ATOM     13  C   UNL     1      -0.401  -1.191   7.214  0.00  0.00    -0.012 C 
BRANCH  12  14
ATOM     14  N   UNL     1      -1.157  -2.754   5.488  0.00  0.00    +0.383 N 
ATOM     15  C   UNL     1      -2.386  -1.955   5.411  0.00  0.00    -0.078 C 
ATOM     16  C   UNL     1      -3.534  -2.827   4.899  0.00  0.00    -0.018 C 
ATOM     17  C   UNL     1      -3.746  -3.999   5.862  0.00  0.00    -0.001 C 
ATOM     18  C   UNL     1      -2.436  -4.782   5.992  0.00  0.00    -0.031 C 
ATOM     19  C   UNL     1      -1.328  -3.838   6.463  0.00  0.00    -0.075 C 
ATOM     20  C   UNL     1      -2.615  -5.910   7.011  0.00  0.00    +0.005 C 
ATOM     21  H   UNL     1      -0.957  -3.148   4.581  0.00  0.00    -0.081 HD
ENDBRANCH  12  14
ENDBRANCH  11  12
ENDBRANCH   9  11
ENDBRANCH   6   7
BRANCH   4  22
ATOM     22  N   UNL     1       1.522  -4.202  -1.721  0.00  0.00    -0.273 N 
ATOM     23  C   UNL     1       1.505  -5.469  -1.263  0.00  0.00    +0.284 C 
ATOM     24  O   UNL     1       1.309  -5.686  -0.082  0.00  0.00    -0.266 OA
ATOM     25  H   UNL     1       1.678  -4.028  -2.663  0.00  0.00    +0.156 HD
BRANCH  23  26
ATOM     26  C   UNL     1       1.724  -6.585  -2.188  0.00  0.00    +0.189 A 
ATOM     27  C   UNL     1       1.728  -7.911  -1.858  0.00  0.00    +0.054 A 
ATOM     28  C   UNL     1       1.974  -8.620  -3.044  0.00  0.00    +0.042 A 
ATOM     29  C   UNL     1       2.108  -7.709  -4.033  0.00  0.00    +0.196 A 
ATOM     30  O   UNL     1       1.952  -6.484  -3.514  0.00  0.00    -0.458 OA
ENDBRANCH  23  26
ENDBRANCH   4  22
TORSDOF 6
