REMARK  Name = ZINC04661999
REMARK  8 active torsions:
REMARK  status: ('A' for Active; 'I' for Inactive)
REMARK    1  A    between atoms: C_1  and  C_2
REMARK    2  A    between atoms: C_2  and  C_3
REMARK    3  A    between atoms: C_3  and  C_4
REMARK    4  A    between atoms: C_4  and  C_5
REMARK    5  A    between atoms: C_8  and  C_11
REMARK    6  A    between atoms: C_14  and  C_17
REMARK    7  A    between atoms: C_20  and  O_23
REMARK    8  A    between atoms: O_23  and  C_24
REMARK                            x       y       z     vdW  Elec       q    Type
REMARK                         _______ _______ _______ _____ _____    ______ ____
ROOT
ATOM      1  C   UNL     1      -3.644   3.425   0.037  0.00  0.00    -0.008 A 
ATOM      2  C   UNL     1      -2.443   4.119   0.035  0.00  0.00    +0.118 A 
ATOM      3  N   UNL     1      -1.308   3.442   0.027  0.00  0.00    -0.235 NA
ATOM      4  C   UNL     1      -1.309   2.115   0.020  0.00  0.00    +0.160 A 
ATOM      5  N   UNL     1      -2.441   1.423   0.016  0.00  0.00    -0.235 NA
ATOM      6  C   UNL     1      -3.610   2.039   0.029  0.00  0.00    +0.118 A 
ENDROOT
BRANCH   1  10
ATOM      7  C   UNL     1      -7.888   4.152   0.058  0.00  0.00    -0.011 C 
ATOM      8  C   UNL     1      -7.096   4.538  -1.192  0.00  0.00    +0.004 C 
ATOM      9  C   UNL     1      -5.762   3.789  -1.202  0.00  0.00    +0.008 C 
ATOM     10  C   UNL     1      -4.959   4.162   0.046  0.00  0.00    +0.022 C 
ATOM     11  C   UNL     1      -5.751   3.777   1.297  0.00  0.00    +0.008 C 
ATOM     12  C   UNL     1      -7.086   4.525   1.306  0.00  0.00    +0.004 C 
BRANCH   7  13
ATOM     13  C   UNL     1      -9.223   4.901   0.068  0.00  0.00    +0.003 C 
BRANCH  13  14
ATOM     14  C   UNL     1     -10.068   4.422   1.250  0.00  0.00    +0.000 C 
BRANCH  14  16
ATOM     15  C   UNL     1     -12.247   4.693   2.442  0.00  0.00    +0.004 C 
ATOM     16  C   UNL     1     -11.402   5.171   1.260  0.00  0.00    -0.003 C 
ENDBRANCH  14  16
ENDBRANCH  13  14
ENDBRANCH   7  13
ENDBRANCH   1  10
BRANCH   4  17
ATOM     17  C   UNL     1      -0.017   1.390   0.010  0.00  0.00    +0.019 A 
ATOM     18  C   UNL     1       1.183   2.101   0.002  0.00  0.00    +0.015 A 
ATOM     19  C   UNL     1       2.384   1.424  -0.014  0.00  0.00    +0.046 A 
ATOM     20  C   UNL     1       2.399   0.035  -0.021  0.00  0.00    +0.130 A 
ATOM     21  C   UNL     1       1.206  -0.675  -0.013  0.00  0.00    +0.046 A 
ATOM     22  C   UNL     1       0.002  -0.004   0.002  0.00  0.00    +0.015 A 
BRANCH  20  23
ATOM     23  O   UNL     1       3.583  -0.629  -0.036  0.00  0.00    -0.406 OA
BRANCH  23  24
ATOM     24  C   UNL     1       4.772   0.164  -0.044  0.00  0.00    +0.575 C 
ATOM     25  F   UNL     1       4.805   0.965   1.102  0.00  0.00    -0.133 F 
ATOM     26  F   UNL     1       5.892  -0.674  -0.060  0.00  0.00    -0.133 F 
ATOM     27  F   UNL     1       4.783   0.978  -1.182  0.00  0.00    -0.133 F 
ENDBRANCH  23  24
ENDBRANCH  20  23
ENDBRANCH   4  17
TORSDOF 7
