REMARK  Name = ZINC43260395
REMARK  9 active torsions:
REMARK  status: ('A' for Active; 'I' for Inactive)
REMARK    1  A    between atoms: C_1  and  C_2
REMARK    2  A    between atoms: C_2  and  C_3
REMARK    3  A    between atoms: C_3  and  C_5
REMARK    4  A    between atoms: C_3  and  N_22
REMARK    5  A    between atoms: C_5  and  C_7
REMARK    6  A    between atoms: C_5  and  N_13
REMARK    7  A    between atoms: N_16  and  C_19
REMARK    8  A    between atoms: C_19  and  C_20
REMARK    9  A    between atoms: C_20  and  O_21
REMARK                            x       y       z     vdW  Elec       q    Type
REMARK                         _______ _______ _______ _____ _____    ______ ____
ROOT
ATOM      1  C   UNL     1      -1.413  -2.059   0.130  0.00  0.00    -0.014 C 
ENDROOT
BRANCH   1   2
ATOM      2  N   UNL     1      -0.636  -2.449   1.314  0.00  0.00    +0.387 N 
ATOM      3  C   UNL     1      -0.616  -3.913   1.426  0.00  0.00    -0.062 C 
ATOM      4  C   UNL     1       0.210  -4.321   2.648  0.00  0.00    +0.066 C 
ATOM      5  N   UNL     1      -0.384  -3.728   3.856  0.00  0.00    -0.304 NA
ATOM      6  C   UNL     1      -0.434  -2.264   3.748  0.00  0.00    +0.066 C 
ATOM      7  C   UNL     1      -1.254  -1.873   2.516  0.00  0.00    -0.062 C 
ATOM      8  H   UNL     1       0.308  -2.106   1.224  0.00  0.00    -0.081 HD
BRANCH   5   9
ATOM      9  C   UNL     1       0.348  -4.143   5.060  0.00  0.00    +0.112 C 
BRANCH   9  10
ATOM     10  C   UNL     1      -0.434  -3.719   6.304  0.00  0.00    +0.171 C 
BRANCH  10  11
ATOM     11  O   UNL     1      -1.674  -4.428   6.352  0.00  0.00    -0.394 OA
ATOM     12  H   UNL     1      -2.223  -4.209   7.117  0.00  0.00    +0.209 HD
ENDBRANCH  10  11
ENDBRANCH   9  10
ENDBRANCH   5   9
ENDBRANCH   1   2
BRANCH   1  13
ATOM     13  C   UNL     1      -0.780  -2.649  -1.103  0.00  0.00    -0.021 A 
ATOM     14  C   UNL     1      -1.376  -3.194  -2.191  0.00  0.00    +0.011 A 
ATOM     15  C   UNL     1      -0.586  -3.679  -3.217  0.00  0.00    +0.023 A 
ATOM     16  C   UNL     1       0.763  -3.596  -3.103  0.00  0.00    +0.055 A 
ATOM     17  S   UNL     1       0.951  -2.806  -1.513  0.00  0.00    -0.088 S 
ATOM     18 BR   UNL     1       2.098  -4.163  -4.316  0.00  0.00    -0.043 Br
ENDBRANCH   1  13
BRANCH   1  19
ATOM     19  C   UNL     1      -1.433  -0.534   0.013  0.00  0.00    +0.042 C 
BRANCH  19  20
ATOM     20  N   UNL     1      -2.107  -0.147  -1.234  0.00  0.00    -0.328 NA
ATOM     21  H   UNL     1      -2.191   0.856  -1.304  0.00  0.00    +0.118 HD
ATOM     22  H   UNL     1      -1.628  -0.527  -2.037  0.00  0.00    +0.118 HD
ENDBRANCH  19  20
BRANCH  19  24
ATOM     23  C   UNL     1      -0.019   1.526   0.010  0.00  0.00    +0.005 C 
ATOM     24  C   UNL     1       0.002  -0.004   0.002  0.00  0.00    +0.014 C 
ENDBRANCH  19  24
ENDBRANCH   1  19
TORSDOF 8
