REMARK  Name = ZINC36346273
REMARK  14 active torsions:
REMARK  status: ('A' for Active; 'I' for Inactive)
REMARK    1  A    between atoms: C_1  and  C_2
REMARK    2  A    between atoms: C_3  and  C_21
REMARK    3  A    between atoms: C_4  and  O_13
REMARK    4  A    between atoms: N_5  and  C_7
REMARK    5  A    between atoms: O_13  and  C_14
REMARK    6  A    between atoms: C_21  and  N_22
REMARK    7  A    between atoms: N_22  and  C_23
REMARK    8  A    between atoms: N_22  and  C_29
REMARK    9  A    between atoms: C_23  and  C_24
REMARK   10  A    between atoms: C_29  and  C_30
REMARK   11  A    between atoms: C_30  and  C_32
REMARK   12  A    between atoms: C_30  and  O_35
REMARK   13  A    between atoms: C_32  and  C_33
REMARK   14  A    between atoms: C_32  and  C_34
REMARK                            x       y       z     vdW  Elec       q    Type
REMARK                         _______ _______ _______ _____ _____    ______ ____
ROOT
ATOM      1  C   UNL     1       0.945   0.641   0.782  0.00  0.00    +0.068 C 
ATOM      2  C   UNL     1       0.374  -0.686   0.354  0.00  0.00    +0.065 A 
ATOM      3  C   UNL     1      -0.025  -1.025  -0.942  0.00  0.00    +0.021 A 
ATOM      4  C   UNL     1      -0.483  -2.305  -0.918  0.00  0.00    +0.225 A 
ATOM      5  N   UNL     1      -0.373  -2.754   0.362  0.00  0.00    -0.200 N 
ATOM      6  N   UNL     1       0.172  -1.719   1.133  0.00  0.00    -0.168 NA
ENDROOT
BRANCH   5   7
ATOM      7  C   UNL     1      -0.735  -4.026   0.825  0.00  0.00    +0.069 A 
ATOM      8  C   UNL     1      -1.914  -4.616   0.388  0.00  0.00    +0.028 A 
ATOM      9  C   UNL     1      -2.268  -5.870   0.847  0.00  0.00    +0.002 A 
ATOM     10  C   UNL     1      -1.450  -6.538   1.739  0.00  0.00    +0.000 A 
ATOM     11  C   UNL     1      -0.275  -5.953   2.175  0.00  0.00    +0.002 A 
ATOM     12  C   UNL     1       0.087  -4.702   1.716  0.00  0.00    +0.028 A 
ENDBRANCH   5   7
BRANCH   4  13
ATOM     13  O   UNL     1      -0.963  -3.007  -1.976  0.00  0.00    -0.438 OA
BRANCH  13  14
ATOM     14  C   UNL     1      -2.278  -2.870  -2.288  0.00  0.00    +0.133 A 
ATOM     15  C   UNL     1      -3.062  -1.948  -1.608  0.00  0.00    +0.046 A 
ATOM     16  C   UNL     1      -4.399  -1.811  -1.926  0.00  0.00    +0.006 A 
ATOM     17  C   UNL     1      -4.958  -2.590  -2.922  0.00  0.00    +0.038 A 
ATOM     18  C   UNL     1      -4.179  -3.511  -3.602  0.00  0.00    +0.127 A 
ATOM     19  C   UNL     1      -2.838  -3.648  -3.291  0.00  0.00    +0.084 A 
ATOM     20  F   UNL     1      -4.728  -4.272  -4.574  0.00  0.00    -0.205 F 
ENDBRANCH  13  14
ENDBRANCH   4  13
BRANCH   3  21
ATOM     21  C   UNL     1       0.042  -0.130  -2.153  0.00  0.00    -0.035 C 
BRANCH  21  22
ATOM     22  N   UNL     1       1.371  -0.237  -2.769  0.00  0.00    +0.389 N 
ATOM     23  H   UNL     1       2.077  -0.005  -2.087  0.00  0.00    -0.081 HD
BRANCH  22  24
ATOM     24  C   UNL     1       1.461   0.692  -3.903  0.00  0.00    -0.003 C 
BRANCH  24  25
ATOM     25  C   UNL     1       1.241   2.102  -3.417  0.00  0.00    +0.089 A 
ATOM     26  C   UNL     1       2.204   2.971  -3.061  0.00  0.00    +0.042 A 
ATOM     27  C   UNL     1       1.555   4.165  -2.672  0.00  0.00    +0.041 A 
ATOM     28  C   UNL     1       0.234   3.954  -2.813  0.00  0.00    +0.195 A 
ATOM     29  O   UNL     1       0.050   2.705  -3.270  0.00  0.00    -0.470 OA
ENDBRANCH  24  25
ENDBRANCH  22  24
BRANCH  22  30
ATOM     30  C   UNL     1       1.581  -1.611  -3.244  0.00  0.00    -0.046 C 
BRANCH  30  31
ATOM     31  C   UNL     1       3.033  -1.778  -3.697  0.00  0.00    +0.101 C 
BRANCH  31  32
ATOM     32  C   UNL     1       3.315  -3.256  -3.972  0.00  0.00    +0.010 C 
ATOM     33  C   UNL     1       2.466  -3.726  -5.154  0.00  0.00    +0.010 C 
ATOM     34  C   UNL     1       4.797  -3.439  -4.303  0.00  0.00    +0.010 C 
ENDBRANCH  31  32
BRANCH  31  35
ATOM     35  O   UNL     1       3.250  -1.022  -4.890  0.00  0.00    -0.393 OA
ATOM     36  H   UNL     1       2.688  -1.286  -5.631  0.00  0.00    +0.210 HD
ENDBRANCH  31  35
ENDBRANCH  30  31
ENDBRANCH  22  30
ENDBRANCH  21  22
ENDBRANCH   3  21
TORSDOF 11
