REMARK  Name = ZINC26479124
REMARK  5 active torsions:
REMARK  status: ('A' for Active; 'I' for Inactive)
REMARK    1  A    between atoms: C_1  and  C_2
REMARK    2  A    between atoms: C_2  and  C_23
REMARK    3  A    between atoms: C_3  and  N_15
REMARK    4  A    between atoms: N_5  and  C_9
REMARK    5  A    between atoms: N_15  and  C_16
REMARK                            x       y       z     vdW  Elec       q    Type
REMARK                         _______ _______ _______ _____ _____    ______ ____
ROOT
ATOM      1  C   UNL     1       4.323  -0.889  -1.115  0.00  0.00    +0.026 C 
ATOM      2  C   UNL     1       4.411   0.635  -1.024  0.00  0.00    +0.055 C 
ATOM      3  C   UNL     1       3.548   1.175   0.136  0.00  0.00    +0.183 C 
ATOM      4  N   UNL     1       4.317   1.857   1.150  0.00  0.00    -0.242 N 
ATOM      5  C   UNL     1       5.648   1.978   1.040  0.00  0.00    +0.281 C 
ATOM      6  O   UNL     1       6.403   2.526   1.820  0.00  0.00    -0.262 OA
ATOM      7  S   UNL     1       6.081   1.170  -0.488  0.00  0.00    -0.057 S 
ATOM      8  C   UNL     1       4.022   1.289  -2.351  0.00  0.00    +0.026 C 
ENDROOT
BRANCH   4   9
ATOM      9  C   UNL     1       3.665   2.399   2.263  0.00  0.00    +0.039 A 
ATOM     10  C   UNL     1       3.189   3.703   2.223  0.00  0.00    +0.023 A 
ATOM     11  C   UNL     1       2.541   4.234   3.321  0.00  0.00    +0.002 A 
ATOM     12  C   UNL     1       2.376   3.472   4.464  0.00  0.00    +0.000 A 
ATOM     13  C   UNL     1       2.854   2.175   4.508  0.00  0.00    +0.002 A 
ATOM     14  C   UNL     1       3.498   1.637   3.412  0.00  0.00    +0.023 A 
ENDBRANCH   4   9
BRANCH   3  15
ATOM     15  N   UNL     1       2.841   0.052   0.757  0.00  0.00    -0.324 N 
ATOM     16  H   UNL     1       3.376  -0.884   0.973  0.00  0.00    +0.148 HD
BRANCH  15  17
ATOM     17  C   UNL     1       1.485   0.171   1.076  0.00  0.00    +0.029 A 
ATOM     18  C   UNL     1       0.777  -0.935   1.529  0.00  0.00    +0.024 A 
ATOM     19  C   UNL     1      -0.563  -0.816   1.838  0.00  0.00    +0.022 A 
ATOM     20  C   UNL     1      -1.199   0.406   1.706  0.00  0.00    +0.041 A 
ATOM     21  C   UNL     1      -0.497   1.510   1.255  0.00  0.00    +0.022 A 
ATOM     22  C   UNL     1       0.843   1.395   0.939  0.00  0.00    +0.024 A 
ATOM     23 CL   UNL     1      -2.883   0.554   2.102  0.00  0.00    -0.084 Cl
ENDBRANCH  15  17
ENDBRANCH   3  15
TORSDOF 3
