REMARK  Name = ZINC12634786
REMARK  8 active torsions:
REMARK  status: ('A' for Active; 'I' for Inactive)
REMARK    1  A    between atoms: C_1  and  C_2
REMARK    2  A    between atoms: C_2  and  C_3
REMARK    3  A    between atoms: C_2  and  C_4
REMARK    4  A    between atoms: C_4  and  O_5
REMARK    5  A    between atoms: O_5  and  C_6
REMARK    6  A    between atoms: C_11  and  C_14
REMARK    7  A    between atoms: C_14  and  C_15
REMARK    8  A    between atoms: N_20  and  C_23
REMARK                            x       y       z     vdW  Elec       q    Type
REMARK                         _______ _______ _______ _____ _____    ______ ____
ROOT
ATOM      1  C   UNL     1      -2.086   4.431   0.043  0.00  0.00    +0.152 C 
ENDROOT
BRANCH   1   7
ATOM      2  C   UNL     1       1.178  -0.662  -0.012  0.00  0.00    +0.406 C 
ATOM      3  O   UNL     1       2.222  -0.040  -0.018  0.00  0.00    -0.226 OA
ATOM      4  N   UNL     1       0.002  -0.004   0.002  0.00  0.00    -0.230 N 
ATOM      5  C   UNL     1      -0.017   1.386   0.010  0.00  0.00    +0.167 A 
ATOM      6  N   UNL     1      -1.054   2.200   0.018  0.00  0.00    -0.229 NA
ATOM      7  C   UNL     1      -0.894   3.510   0.028  0.00  0.00    +0.059 A 
ATOM      8  C   UNL     1       0.366   4.007   0.019  0.00  0.00    +0.072 A 
ATOM      9  S   UNL     1       1.319   2.495   0.003  0.00  0.00    -0.060 S 
ATOM     10  H   UNL     1      -0.831  -0.500   0.007  0.00  0.00    +0.160 HD
BRANCH   2  11
ATOM     11  O   UNL     1       1.196  -2.008  -0.020  0.00  0.00    -0.450 OA
BRANCH  11  12
ATOM     12  C   UNL     1       2.499  -2.650  -0.035  0.00  0.00    +0.236 C 
BRANCH  12  14
ATOM     13  C   UNL     1       1.642  -4.597  -1.345  0.00  0.00    +0.010 C 
ATOM     14  C   UNL     1       2.319  -4.169  -0.042  0.00  0.00    +0.021 C 
ATOM     15  C   UNL     1       3.687  -4.845   0.068  0.00  0.00    +0.010 C 
ENDBRANCH  12  14
ENDBRANCH  11  12
ENDBRANCH   2  11
ENDBRANCH   1   7
BRANCH   1  16
ATOM     16  C   UNL     1      -2.993   4.100  -1.114  0.00  0.00    +0.221 C 
ATOM     17  O   UNL     1      -2.700   3.203  -1.876  0.00  0.00    -0.275 OA
ATOM     18  N   UNL     1      -4.129   4.800  -1.302  0.00  0.00    -0.298 N 
ATOM     19  C   UNL     1      -4.507   5.887  -0.386  0.00  0.00    +0.126 C 
ATOM     20  C   UNL     1      -4.822   7.136  -1.224  0.00  0.00    +0.124 C 
ATOM     21  N   UNL     1      -5.833   6.798  -2.235  0.00  0.00    -0.327 N 
ATOM     22  C   UNL     1      -5.326   5.792  -3.179  0.00  0.00    +0.124 C 
ATOM     23  C   UNL     1      -5.028   4.492  -2.425  0.00  0.00    +0.126 C 
BRANCH  21  24
ATOM     24  C   UNL     1      -6.269   7.941  -2.909  0.00  0.00    +0.030 A 
ATOM     25  C   UNL     1      -6.182   8.010  -4.293  0.00  0.00    +0.024 A 
ATOM     26  C   UNL     1      -6.620   9.139  -4.957  0.00  0.00    +0.022 A 
ATOM     27  C   UNL     1      -7.135  10.207  -4.242  0.00  0.00    +0.041 A 
ATOM     28  C   UNL     1      -7.218  10.144  -2.862  0.00  0.00    +0.022 A 
ATOM     29  C   UNL     1      -6.787   9.014  -2.194  0.00  0.00    +0.024 A 
ATOM     30 CL   UNL     1      -7.677  11.628  -5.079  0.00  0.00    -0.084 Cl
ENDBRANCH  21  24
ENDBRANCH   1  16
TORSDOF 6
