REMARK  Name = ZINC44861453
REMARK  6 active torsions:
REMARK  status: ('A' for Active; 'I' for Inactive)
REMARK    1  A    between atoms: C_1  and  C_2
REMARK    2  A    between atoms: C_2  and  C_3
REMARK    3  A    between atoms: C_3  and  C_5
REMARK    4  A    between atoms: C_3  and  C_9
REMARK    5  A    between atoms: N_6  and  O_7
REMARK    6  A    between atoms: C_14  and  C_17
REMARK                            x       y       z     vdW  Elec       q    Type
REMARK                         _______ _______ _______ _____ _____    ______ ____
ROOT
ATOM      1  C   UNL     1      -1.436  -0.534   0.014  0.00  0.00    +0.141 C 
ENDROOT
BRANCH   1   2
ATOM      2  C   UNL     1      -1.475  -2.040   0.021  0.00  0.00    +0.226 C 
ATOM      3  O   UNL     1      -1.941  -2.639  -0.925  0.00  0.00    -0.275 OA
ATOM      4  N   UNL     1      -0.992  -2.722   1.078  0.00  0.00    -0.301 N 
ATOM      5  C   UNL     1      -0.528  -2.012   2.278  0.00  0.00    +0.108 C 
ATOM      6  C   UNL     1       0.900  -2.466   2.598  0.00  0.00    +0.022 C 
ATOM      7  C   UNL     1       0.931  -3.991   2.719  0.00  0.00    -0.011 C 
ATOM      8  C   UNL     1       0.512  -4.618   1.387  0.00  0.00    +0.022 C 
ATOM      9  C   UNL     1      -0.925  -4.189   1.056  0.00  0.00    +0.108 C 
ATOM     10  C   UNL     1       2.349  -4.445   3.072  0.00  0.00    +0.007 C 
ENDBRANCH   1   2
BRANCH   1  11
ATOM     11  C   UNL     1      -2.484  -0.008  -0.932  0.00  0.00    +0.144 C 
ATOM     12  N   UNL     1      -2.166   0.285  -2.150  0.00  0.00    -0.076 NA
ATOM     13  N   UNL     1      -3.781   0.159  -0.500  0.00  0.00    -0.343 N 
ATOM     14  H   UNL     1      -4.019  -0.061   0.414  0.00  0.00    +0.144 HD
ATOM     15  H   UNL     1      -4.455   0.498  -1.109  0.00  0.00    +0.144 HD
BRANCH  12  16
ATOM     16  O   UNL     1      -3.151   0.779  -3.039  0.00  0.00    -0.408 OA
ATOM     17  H   UNL     1      -2.819   0.970  -3.927  0.00  0.00    +0.328 HD
ENDBRANCH  12  16
ENDBRANCH   1  11
BRANCH   1  19
ATOM     18  C   UNL     1       0.034   1.460  -0.312  0.00  0.00    +0.005 C 
ATOM     19  C   UNL     1      -0.054  -0.061  -0.443  0.00  0.00    +0.017 C 
ENDBRANCH   1  19
TORSDOF 4
