REMARK  Name = ZINC39324924
REMARK  12 active torsions:
REMARK  status: ('A' for Active; 'I' for Inactive)
REMARK    1  A    between atoms: C_1  and  C_2
REMARK    2  A    between atoms: C_2  and  O_3
REMARK    3  A    between atoms: O_3  and  C_4
REMARK    4  A    between atoms: C_4  and  C_6
REMARK    5  A    between atoms: C_9  and  S_12
REMARK    6  A    between atoms: S_12  and  N_15
REMARK    7  A    between atoms: N_15  and  C_16
REMARK    8  A    between atoms: N_15  and  C_23
REMARK    9  A    between atoms: C_16  and  C_17
REMARK   10  A    between atoms: C_23  and  C_24
REMARK   11  A    between atoms: C_30  and  O_36
REMARK   12  A    between atoms: O_36  and  C_37
REMARK                            x       y       z     vdW  Elec       q    Type
REMARK                         _______ _______ _______ _____ _____    ______ ____
ROOT
ATOM      1  N   UNL     1      -7.542  -4.475  -1.643  0.00  0.00    -0.173 NA
ENDROOT
BRANCH   1   2
ATOM      2  S   UNL     1      -6.555  -4.236  -0.336  0.00  0.00    +0.061 S 
ATOM      3  O   UNL     1      -6.446  -5.488   0.326  0.00  0.00    -0.153 OA
ATOM      4  O   UNL     1      -7.025  -3.066   0.320  0.00  0.00    -0.153 OA
BRANCH   2   8
ATOM      5  C   UNL     1      -2.430  -3.254  -1.935  0.00  0.00    +0.059 A 
ATOM      6  C   UNL     1      -3.349  -2.231  -1.690  0.00  0.00    +0.017 A 
ATOM      7  C   UNL     1      -4.603  -2.537  -1.204  0.00  0.00    +0.029 A 
ATOM      8  C   UNL     1      -4.951  -3.854  -0.957  0.00  0.00    +0.106 A 
ATOM      9  C   UNL     1      -4.045  -4.872  -1.197  0.00  0.00    +0.029 A 
ATOM     10  C   UNL     1      -2.790  -4.580  -1.689  0.00  0.00    +0.017 A 
BRANCH   5  11
ATOM     11  C   UNL     1      -1.085  -2.933  -2.456  0.00  0.00    +0.339 C 
ATOM     12  O   UNL     1      -0.290  -3.825  -2.672  0.00  0.00    -0.245 OA
BRANCH  11  13
ATOM     13  O   UNL     1      -0.742  -1.652  -2.691  0.00  0.00    -0.461 OA
BRANCH  13  15
ATOM     14  C   UNL     1       0.780   0.086  -3.399  0.00  0.00    +0.048 C 
ATOM     15  C   UNL     1       0.575  -1.416  -3.195  0.00  0.00    +0.229 C 
ENDBRANCH  13  15
ENDBRANCH  11  13
ENDBRANCH   5  11
ENDBRANCH   2   8
ENDBRANCH   1   2
BRANCH   1  16
ATOM     16  C   UNL     1      -7.684  -5.815  -2.218  0.00  0.00    +0.141 C 
BRANCH  16  17
ATOM     17  C   UNL     1      -8.890  -6.515  -1.589  0.00  0.00    +0.134 C 
ATOM     18  C   UNL     1      -8.977  -7.970  -2.099  0.00  0.00    +0.035 C 
ATOM     19  C   UNL     1     -10.507  -8.164  -2.283  0.00  0.00    +0.031 C 
ATOM     20  C   UNL     1     -10.932  -6.743  -2.729  0.00  0.00    +0.160 C 
ATOM     21  O   UNL     1     -10.097  -5.847  -1.976  0.00  0.00    -0.375 OA
ENDBRANCH  16  17
ENDBRANCH   1  16
BRANCH   1  22
ATOM     22  C   UNL     1      -8.274  -3.347  -2.225  0.00  0.00    +0.126 C 
BRANCH  22  23
ATOM     23  C   UNL     1      -7.366  -2.600  -3.203  0.00  0.00    +0.114 C 
ATOM     24  C   UNL     1      -8.045  -1.294  -3.563  0.00  0.00    -0.003 C 
ATOM     25  C   UNL     1      -8.303  -1.064  -4.879  0.00  0.00    -0.007 A 
ATOM     26  C   UNL     1      -8.956   0.174  -5.309  0.00  0.00    +0.013 A 
ATOM     27  C   UNL     1      -9.196   0.369  -6.628  0.00  0.00    +0.046 A 
ATOM     28  C   UNL     1      -8.831  -0.591  -7.584  0.00  0.00    +0.122 A 
ATOM     29  C   UNL     1      -8.214  -1.774  -7.240  0.00  0.00    +0.069 A 
ATOM     30  C   UNL     1      -7.927  -2.061  -5.899  0.00  0.00    +0.044 A 
ATOM     31  N   UNL     1      -7.329  -3.211  -5.578  0.00  0.00    -0.284 N 
ATOM     32  C   UNL     1      -7.029  -3.544  -4.336  0.00  0.00    +0.225 C 
ATOM     33  O   UNL     1      -6.483  -4.606  -4.104  0.00  0.00    -0.275 OA
ATOM     34  H   UNL     1      -7.105  -3.830  -6.290  0.00  0.00    +0.155 HD
BRANCH  28  35
ATOM     35  O   UNL     1      -9.094  -0.346  -8.889  0.00  0.00    -0.495 OA
ATOM     36  C   UNL     1      -9.735   0.893  -9.201  0.00  0.00    +0.277 C 
ENDBRANCH  28  35
ENDBRANCH  22  23
ENDBRANCH   1  22
TORSDOF 10
