REMARK  Name = ZINC20353492
REMARK  3 active torsions:
REMARK  status: ('A' for Active; 'I' for Inactive)
REMARK    1  A    between atoms: C_3  and  N_20
REMARK    2  A    between atoms: C_4  and  N_8
REMARK    3  A    between atoms: C_11  and  C_13
REMARK                            x       y       z     vdW  Elec       q    Type
REMARK                         _______ _______ _______ _____ _____    ______ ____
ROOT
ATOM      1  N   UNL     1      -1.189   4.995  -0.088  0.00  0.00    -0.233 N 
ATOM      2  C   UNL     1      -1.253   3.684   0.209  0.00  0.00    +0.049 A 
ATOM      3  C   UNL     1      -1.257   2.994  -0.961  0.00  0.00    +0.002 A 
ATOM      4  C   UNL     1      -1.197   3.914  -2.004  0.00  0.00    +0.132 A 
ATOM      5  N   UNL     1      -1.155   5.118  -1.485  0.00  0.00    -0.165 NA
ATOM      6  C   UNL     1      -1.318   1.490  -1.054  0.00  0.00    +0.039 C 
ATOM      7  C   UNL     1      -0.956   0.905   0.317  0.00  0.00    +0.005 C 
ATOM      8  C   UNL     1      -1.789   1.593   1.402  0.00  0.00    +0.006 C 
ATOM      9  C   UNL     1      -1.313   3.041   1.571  0.00  0.00    +0.056 C 
ENDROOT
BRANCH   1  13
ATOM     10  C   UNL     1      -1.107   8.138   2.660  0.00  0.00    +0.003 A 
ATOM     11  C   UNL     1      -0.137   7.155   2.713  0.00  0.00    +0.025 A 
ATOM     12  C   UNL     1      -0.158   6.109   1.803  0.00  0.00    +0.052 A 
ATOM     13  C   UNL     1      -1.161   6.052   0.836  0.00  0.00    +0.104 A 
ATOM     14  C   UNL     1      -2.128   7.045   0.786  0.00  0.00    +0.068 A 
ATOM     15  C   UNL     1      -2.102   8.082   1.701  0.00  0.00    +0.022 A 
ATOM     16 CL   UNL     1      -3.374   6.984  -0.421  0.00  0.00    -0.081 Cl
BRANCH  12  17
ATOM     17  N   UNL     1       0.822   5.114   1.856  0.00  0.00    -0.356 N 
ATOM     18  H   UNL     1       0.804   4.284   1.133  0.00  0.00    +0.142 HD
ATOM     19  H   UNL     1       1.613   5.160   2.619  0.00  0.00    +0.142 HD
ENDBRANCH  12  17
ENDBRANCH   1  13
BRANCH   4  20
ATOM     20  C   UNL     1      -1.181   3.584  -3.475  0.00  0.00    +0.392 C 
ATOM     21  F   UNL     1      -0.465   4.568  -4.166  0.00  0.00    -0.202 F 
ATOM     22  F   UNL     1      -0.570   2.341  -3.667  0.00  0.00    -0.202 F 
ENDBRANCH   4  20
TORSDOF 3
