REMARK  Name = ZINC08890335
REMARK  4 active torsions:
REMARK  status: ('A' for Active; 'I' for Inactive)
REMARK    1  A    between atoms: C_1  and  C_2
REMARK    2  A    between atoms: C_6  and  C_14
REMARK    3  A    between atoms: C_12  and  C_13
REMARK    4  A    between atoms: C_14  and  N_15
REMARK                            x       y       z     vdW  Elec       q    Type
REMARK                         _______ _______ _______ _____ _____    ______ ____
ROOT
ATOM      1  N   UNL     1      -0.996   6.882   1.164  0.00  0.00    -0.220 N 
ATOM      2  C   UNL     1      -0.054   5.932   1.350  0.00  0.00    +0.251 C 
ATOM      3  O   UNL     1       0.483   5.623   2.392  0.00  0.00    -0.272 OA
ATOM      4  C   UNL     1       0.187   5.340  -0.014  0.00  0.00    +0.138 C 
ATOM      5  C   UNL     1       1.650   5.507  -0.442  0.00  0.00    +0.045 C 
ATOM      6  C   UNL     1       2.265   4.147  -0.041  0.00  0.00    +0.038 C 
ATOM      7  C   UNL     1       1.109   3.169  -0.055  0.00  0.00    -0.042 A 
ATOM      8  C   UNL     1      -0.091   3.861  -0.033  0.00  0.00    -0.012 A 
ATOM      9  C   UNL     1      -1.286   3.161  -0.035  0.00  0.00    +0.006 A 
ATOM     10  C   UNL     1      -1.286   1.780  -0.067  0.00  0.00    +0.000 A 
ATOM     11  C   UNL     1      -0.088   1.091  -0.086  0.00  0.00    +0.000 A 
ATOM     12  C   UNL     1       1.106   1.785  -0.083  0.00  0.00    +0.004 A 
ATOM     13  N   UNL     1      -0.717   6.074  -0.900  0.00  0.00    -0.281 N 
ATOM     14  C   UNL     1      -1.371   6.959  -0.120  0.00  0.00    +0.310 C 
ATOM     15  O   UNL     1      -2.207   7.737  -0.535  0.00  0.00    -0.252 OA
ATOM     16  H   UNL     1      -0.824   5.950  -1.856  0.00  0.00    +0.152 HD
ENDROOT
BRANCH   1  17
ATOM     17  C   UNL     1      -1.540   7.723   2.232  0.00  0.00    +0.154 C 
BRANCH  17  23
ATOM     18  C   UNL     1      -6.069   9.802   6.636  0.00  0.00    +0.044 C 
ATOM     19  C   UNL     1      -5.214   9.091   5.619  0.00  0.00    -0.044 A 
ATOM     20  C   UNL     1      -4.056   9.697   5.153  0.00  0.00    +0.004 A 
ATOM     21  C   UNL     1      -3.267   9.068   4.231  0.00  0.00    +0.012 A 
ATOM     22  C   UNL     1      -3.631   7.804   3.754  0.00  0.00    +0.023 A 
ATOM     23  C   UNL     1      -2.806   7.103   2.765  0.00  0.00    -0.012 A 
ATOM     24  C   UNL     1      -3.217   5.882   2.338  0.00  0.00    +0.098 A 
ATOM     25  C   UNL     1      -4.405   5.321   2.857  0.00  0.00    +0.338 A 
ATOM     26  O   UNL     1      -4.760   4.223   2.469  0.00  0.00    -0.245 OA
ATOM     27  O   UNL     1      -5.154   5.969   3.762  0.00  0.00    -0.422 OA
ATOM     28  C   UNL     1      -4.803   7.188   4.224  0.00  0.00    +0.142 A 
ATOM     29  C   UNL     1      -5.590   7.846   5.161  0.00  0.00    -0.005 A 
ATOM     30  C   UNL     1      -6.851   7.201   5.676  0.00  0.00    +0.048 C 
ENDBRANCH  17  23
ENDBRANCH   1  17
TORSDOF 2
