REMARK  Name = ZINC06444799
REMARK  2 active torsions:
REMARK  status: ('A' for Active; 'I' for Inactive)
REMARK    1  A    between atoms: C_6  and  C_7
REMARK    2  A    between atoms: C_15  and  C_18
REMARK                            x       y       z     vdW  Elec       q    Type
REMARK                         _______ _______ _______ _____ _____    ______ ____
ROOT
ATOM      1  C   UNL     1       0.566  -2.587  -1.304  0.00  0.00    +0.146 C 
ATOM      2  N   UNL     1      -0.714  -2.479  -1.474  0.00  0.00    -0.230 NA
ATOM      3  C   UNL     1      -1.576  -1.896  -0.588  0.00  0.00    +0.075 A 
ATOM      4  C   UNL     1      -2.816  -2.518  -0.402  0.00  0.00    +0.030 A 
ATOM      5  C   UNL     1      -3.747  -1.985   0.467  0.00  0.00    +0.022 A 
ATOM      6  C   UNL     1      -3.461  -0.826   1.165  0.00  0.00    +0.042 A 
ATOM      7  C   UNL     1      -2.239  -0.201   0.996  0.00  0.00    +0.032 A 
ATOM      8  C   UNL     1      -1.285  -0.727   0.124  0.00  0.00    +0.029 A 
ATOM      9  C   UNL     1       0.002  -0.004   0.002  0.00  0.00    +0.098 C 
ATOM     10  N   UNL     1       1.141  -0.603  -0.117  0.00  0.00    -0.180 NA
ATOM     11  N   UNL     1       1.210  -1.998  -0.227  0.00  0.00    -0.220 N 
ATOM     12 CL   UNL     1      -4.635  -0.157   2.255  0.00  0.00    -0.084 Cl
ATOM     13  H   UNL     1       1.692  -2.533   0.423  0.00  0.00    +0.176 HD
ENDROOT
BRANCH   1  19
ATOM     14  C   UNL     1       0.728  -3.966  -3.371  0.00  0.00    +0.013 A 
ATOM     15  C   UNL     1       1.475  -4.681  -4.284  0.00  0.00    +0.021 A 
ATOM     16  C   UNL     1       2.844  -4.806  -4.117  0.00  0.00    +0.041 A 
ATOM     17  C   UNL     1       3.473  -4.211  -3.036  0.00  0.00    +0.021 A 
ATOM     18  C   UNL     1       2.739  -3.489  -2.119  0.00  0.00    +0.013 A 
ATOM     19  C   UNL     1       1.358  -3.359  -2.282  0.00  0.00    +0.016 A 
ATOM     20 CL   UNL     1       3.776  -5.714  -5.266  0.00  0.00    -0.084 Cl
ENDBRANCH   1  19
BRANCH   9  21
ATOM     21  C   UNL     1      -0.018   1.475   0.010  0.00  0.00    +0.005 A 
ATOM     22  C   UNL     1      -1.175   2.181  -0.343  0.00  0.00    +0.030 A 
ATOM     23  C   UNL     1      -1.150   3.559  -0.316  0.00  0.00    +0.111 A 
ATOM     24  N   UNL     1      -0.055   4.212   0.025  0.00  0.00    -0.263 NA
ATOM     25  C   UNL     1       1.058   3.586   0.359  0.00  0.00    +0.111 A 
ATOM     26  C   UNL     1       1.121   2.208   0.365  0.00  0.00    +0.030 A 
ENDBRANCH   9  21
TORSDOF 2
