REMARK  Name = ZINC47263758
REMARK  7 active torsions:
REMARK  status: ('A' for Active; 'I' for Inactive)
REMARK    1  A    between atoms: C_1  and  C_2
REMARK    2  A    between atoms: C_5  and  N_9
REMARK    3  A    between atoms: C_6  and  C_8
REMARK    4  A    between atoms: C_10  and  C_12
REMARK    5  A    between atoms: C_12  and  C_14
REMARK    6  A    between atoms: C_12  and  N_15
REMARK    7  A    between atoms: C_19  and  C_22
REMARK                            x       y       z     vdW  Elec       q    Type
REMARK                         _______ _______ _______ _____ _____    ______ ____
ROOT
ATOM      1  N   UNL     1      -0.112  -6.835  -2.571  0.00  0.00    +0.388 N 
ATOM      2  C   UNL     1      -1.309  -6.362  -3.276  0.00  0.00    -0.078 C 
ATOM      3  C   UNL     1      -1.252  -6.804  -4.740  0.00  0.00    -0.018 C 
ATOM      4  C   UNL     1      -1.189  -8.332  -4.805  0.00  0.00    +0.009 C 
ATOM      5  C   UNL     1       0.023  -8.818  -4.004  0.00  0.00    +0.059 C 
ATOM      6  C   UNL     1      -0.082  -8.302  -2.567  0.00  0.00    -0.065 C 
ATOM      7  H   UNL     1       0.711  -6.484  -3.038  0.00  0.00    -0.081 HD
ENDROOT
BRANCH   5   8
ATOM      8  C   UNL     1       0.051 -10.325  -3.998  0.00  0.00    +0.220 C 
ATOM      9  O   UNL     1      -0.003 -10.928  -2.947  0.00  0.00    -0.275 OA
ATOM     10  N   UNL     1       0.137 -11.002  -5.160  0.00  0.00    -0.265 N 
ATOM     11  C   UNL     1       0.163 -12.392  -5.154  0.00  0.00    +0.164 A 
ATOM     12  N   UNL     1       0.108 -13.206  -4.122  0.00  0.00    -0.233 NA
ATOM     13  C   UNL     1       0.144 -14.516  -4.284  0.00  0.00    +0.120 A 
ATOM     14  C   UNL     1       0.240 -14.977  -5.555  0.00  0.00    +0.068 A 
ATOM     15  S   UNL     1       0.266 -13.441  -6.466  0.00  0.00    -0.061 S 
ATOM     16  H   UNL     1       0.181 -10.519  -6.000  0.00  0.00    +0.157 HD
ENDBRANCH   5   8
BRANCH   1  17
ATOM     17  C   UNL     1      -0.134  -6.343  -1.187  0.00  0.00    +0.016 C 
ATOM     18  C   UNL     1       1.085  -6.881  -0.435  0.00  0.00    -0.004 C 
BRANCH  17  20
ATOM     19  N   UNL     1      -0.658  -4.148  -0.174  0.00  0.00    -0.287 N 
ATOM     20  C   UNL     1      -0.098  -4.836  -1.189  0.00  0.00    +0.203 C 
ATOM     21  O   UNL     1       0.435  -4.243  -2.103  0.00  0.00    -0.277 OA
ATOM     22  H   UNL     1      -1.028  -4.621   0.587  0.00  0.00    +0.155 HD
BRANCH  19  27
ATOM     23  C   UNL     1      -0.857   1.519  -0.362  0.00  0.00    +0.044 C 
ATOM     24  C   UNL     1      -0.804   0.014  -0.312  0.00  0.00    -0.050 A 
ATOM     25  C   UNL     1       0.229  -0.662  -0.936  0.00  0.00    +0.005 A 
ATOM     26  C   UNL     1       0.280  -2.041  -0.893  0.00  0.00    +0.024 A 
ATOM     27  C   UNL     1      -0.707  -2.750  -0.220  0.00  0.00    +0.036 A 
ATOM     28  C   UNL     1      -1.743  -2.069   0.406  0.00  0.00    -0.029 A 
ATOM     29  C   UNL     1      -1.786  -0.689   0.362  0.00  0.00    +0.008 A 
ATOM     30  C   UNL     1      -2.816  -2.834   1.136  0.00  0.00    +0.045 C 
ENDBRANCH  19  27
ENDBRANCH  17  20
ENDBRANCH   1  17
TORSDOF 4
