REMARK  Name = ZINC05567206
REMARK  2 active torsions:
REMARK  status: ('A' for Active; 'I' for Inactive)
REMARK    1  A    between atoms: C_3  and  C_19
REMARK    2  A    between atoms: C_9  and  N_11
REMARK                            x       y       z     vdW  Elec       q    Type
REMARK                         _______ _______ _______ _____ _____    ______ ____
ROOT
ATOM      1  C   UNL     1       5.089   3.166  -0.556  0.00  0.00    +0.057 A 
ATOM      2  C   UNL     1       3.830   2.646  -0.447  0.00  0.00    +0.017 A 
ATOM      3  C   UNL     1       2.806   2.550  -1.530  0.00  0.00    +0.100 A 
ATOM      4  C   UNL     1       1.573   1.986  -1.252  0.00  0.00    +0.140 A 
ATOM      5  N   UNL     1       1.271   1.518  -0.002  0.00  0.00    -0.213 N 
ATOM      6  C   UNL     1       2.146   1.579   1.018  0.00  0.00    +0.280 A 
ATOM      7  O   UNL     1       1.808   1.151   2.107  0.00  0.00    -0.265 OA
ATOM      8  C   UNL     1       3.455   2.130   0.871  0.00  0.00    +0.077 A 
ATOM      9  C   UNL     1       4.433   2.229   1.869  0.00  0.00    +0.076 A 
ATOM     10  S   UNL     1       5.772   2.973   1.073  0.00  0.00    -0.081 S 
ATOM     11  N   UNL     1      -0.012   1.005   0.008  0.00  0.00    -0.257 N 
ATOM     12  C   UNL     1      -0.642   1.530  -1.211  0.00  0.00    +0.112 C 
ATOM     13  N   UNL     1       0.495   1.797  -2.103  0.00  0.00    -0.306 N 
ATOM     14  C   UNL     1      -1.438   2.808  -0.923  0.00  0.00    +0.047 C 
ATOM     15  C   UNL     1      -2.648   2.722  -1.889  0.00  0.00    +0.004 C 
ATOM     16  C   UNL     1      -2.986   1.210  -1.886  0.00  0.00    +0.004 C 
ATOM     17  C   UNL     1      -1.608   0.514  -1.825  0.00  0.00    +0.047 C 
ATOM     18  H   UNL     1       0.002  -0.004   0.002  0.00  0.00    +0.169 HD
ATOM     19  H   UNL     1       0.657   1.020  -2.725  0.00  0.00    +0.150 HD
ENDROOT
BRANCH   9  20
ATOM     20  N   UNL     1       4.346   1.823   3.188  0.00  0.00    -0.352 N 
ATOM     21  H   UNL     1       3.530   1.414   3.517  0.00  0.00    +0.143 HD
ATOM     22  H   UNL     1       5.100   1.948   3.785  0.00  0.00    +0.143 HD
ENDBRANCH   9  20
BRANCH   3  23
ATOM     23  C   UNL     1       3.097   3.037  -2.845  0.00  0.00    +0.103 C 
ATOM     24  N   UNL     1       3.328   3.424  -3.888  0.00  0.00    -0.191 NA
ENDBRANCH   3  23
TORSDOF 2
