REMARK  Name = ZINC39487993
REMARK  7 active torsions:
REMARK  status: ('A' for Active; 'I' for Inactive)
REMARK    1  A    between atoms: C_1  and  C_2
REMARK    2  A    between atoms: C_2  and  C_31
REMARK    3  A    between atoms: N_4  and  S_22
REMARK    4  A    between atoms: N_7  and  C_8
REMARK    5  A    between atoms: C_8  and  C_9
REMARK    6  A    between atoms: C_9  and  C_16
REMARK    7  A    between atoms: S_22  and  C_25
REMARK                            x       y       z     vdW  Elec       q    Type
REMARK                         _______ _______ _______ _____ _____    ______ ____
ROOT
ATOM      1  C   UNL     1      -0.407   1.043   0.086  0.00  0.00    +0.039 C 
ATOM      2  C   UNL     1      -0.258  -0.447   0.397  0.00  0.00    +0.079 C 
ATOM      3  C   UNL     1      -1.561  -1.008   0.999  0.00  0.00    +0.166 C 
ATOM      4  N   UNL     1      -1.161  -1.472   2.336  0.00  0.00    -0.153 N 
ATOM      5  C   UNL     1       0.146  -1.236   2.510  0.00  0.00    +0.325 C 
ATOM      6  O   UNL     1       0.741  -1.522   3.531  0.00  0.00    -0.251 OA
ATOM      7  N   UNL     1       0.738  -0.656   1.458  0.00  0.00    -0.273 N 
ENDROOT
BRANCH   2   8
ATOM      8  C   UNL     1       0.125  -1.210  -0.845  0.00  0.00    -0.023 A 
ATOM      9  C   UNL     1       1.299  -1.939  -0.874  0.00  0.00    +0.006 A 
ATOM     10  C   UNL     1       1.650  -2.638  -2.014  0.00  0.00    +0.000 A 
ATOM     11  C   UNL     1       0.827  -2.609  -3.124  0.00  0.00    +0.000 A 
ATOM     12  C   UNL     1      -0.348  -1.880  -3.095  0.00  0.00    +0.000 A 
ATOM     13  C   UNL     1      -0.701  -1.184  -1.953  0.00  0.00    +0.006 A 
ENDBRANCH   2   8
BRANCH   4  14
ATOM     14  S   UNL     1      -2.166  -2.175   3.448  0.00  0.00    +0.078 S 
ATOM     15  O   UNL     1      -1.576  -1.958   4.723  0.00  0.00    -0.150 OA
ATOM     16  O   UNL     1      -3.483  -1.744   3.135  0.00  0.00    -0.150 OA
BRANCH  14  17
ATOM     17  C   UNL     1      -2.123  -3.914   3.163  0.00  0.00    +0.109 A 
ATOM     18  C   UNL     1      -3.020  -4.492   2.284  0.00  0.00    +0.029 A 
ATOM     19  C   UNL     1      -2.986  -5.856   2.061  0.00  0.00    +0.002 A 
ATOM     20  C   UNL     1      -2.057  -6.641   2.716  0.00  0.00    +0.000 A 
ATOM     21  C   UNL     1      -1.160  -6.063   3.595  0.00  0.00    +0.002 A 
ATOM     22  C   UNL     1      -1.190  -4.698   3.815  0.00  0.00    +0.029 A 
ENDBRANCH  14  17
ENDBRANCH   4  14
BRANCH   7  23
ATOM     23  C   UNL     1       2.154  -0.287   1.378  0.00  0.00    +0.117 C 
BRANCH  23  24
ATOM     24  C   UNL     1       2.415   0.933   2.263  0.00  0.00    -0.008 C 
ATOM     25  C   UNL     1       1.947   0.638   3.691  0.00  0.00    +0.027 C 
ATOM     26  C   UNL     1       2.758  -0.529   4.258  0.00  0.00    +0.120 C 
ATOM     27  N   UNL     1       4.185  -0.184   4.252  0.00  0.00    -0.145 NA
ATOM     28  C   UNL     1       4.668   0.057   2.887  0.00  0.00    +0.120 C 
ATOM     29  C   UNL     1       3.914   1.242   2.279  0.00  0.00    +0.027 C 
ATOM     30  F   UNL     1       4.890  -1.105   4.840  0.00  0.00    -0.133 F 
BRANCH  24  31
ATOM     31  C   UNL     1       1.650   2.137   1.712  0.00  0.00    -0.003 C 
ATOM     32  C   UNL     1       2.274   2.574   0.385  0.00  0.00    +0.004 C 
ATOM     33  C   UNL     1       1.509   3.779  -0.167  0.00  0.00    +0.000 C 
ATOM     34  C   UNL     1       1.583   4.932   0.836  0.00  0.00    +0.000 C 
ATOM     35  C   UNL     1       0.958   4.496   2.163  0.00  0.00    +0.000 C 
ATOM     36  C   UNL     1       1.723   3.291   2.714  0.00  0.00    +0.004 C 
ENDBRANCH  24  31
ENDBRANCH  23  24
ENDBRANCH   7  23
TORSDOF 6
