REMARK  Name = ZINC35909959
REMARK  9 active torsions:
REMARK  status: ('A' for Active; 'I' for Inactive)
REMARK    1  A    between atoms: C_1  and  C_2
REMARK    2  A    between atoms: C_2  and  C_3
REMARK    3  A    between atoms: N_7  and  C_22
REMARK    4  A    between atoms: C_11  and  N_16
REMARK    5  A    between atoms: N_19  and  C_20
REMARK    6  A    between atoms: C_20  and  C_21
REMARK    7  A    between atoms: C_22  and  C_24
REMARK    8  A    between atoms: C_22  and  C_26
REMARK    9  A    between atoms: C_24  and  C_25
REMARK                            x       y       z     vdW  Elec       q    Type
REMARK                         _______ _______ _______ _____ _____    ______ ____
ROOT
ATOM      1  C   UNL     1       1.961  -1.207  -2.108  0.00  0.00    +0.259 C 
ATOM      2  C   UNL     1       1.794  -2.587  -1.549  0.00  0.00    +0.257 C 
ATOM      3  O   UNL     1       2.787  -3.008  -0.994  0.00  0.00    -0.272 OA
ATOM      4  N   UNL     1       0.822  -3.404  -1.540  0.00  0.00    -0.287 N 
ATOM      5  C   UNL     1      -0.414  -3.452  -2.247  0.00  0.00    +0.147 C 
ATOM      6  C   UNL     1      -0.703  -2.403  -3.276  0.00  0.00    +0.013 A 
ATOM      7  C   UNL     1      -1.981  -2.533  -3.844  0.00  0.00    +0.032 A 
ATOM      8  C   UNL     1      -2.451  -1.628  -4.773  0.00  0.00    +0.035 A 
ATOM      9  C   UNL     1      -1.639  -0.562  -5.140  0.00  0.00    +0.027 A 
ATOM     10  C   UNL     1      -0.386  -0.455  -4.596  0.00  0.00    +0.048 A 
ATOM     11  C   UNL     1       0.110  -1.405  -3.670  0.00  0.00    +0.126 A 
ATOM     12  O   UNL     1       1.424  -1.131  -3.413  0.00  0.00    -0.479 OA
ENDROOT
BRANCH   8  13
ATOM     13  N   UNL     1      -3.725  -1.780  -5.336  0.00  0.00    -0.269 N 
ATOM     14  C   UNL     1      -3.946  -1.413  -6.614  0.00  0.00    +0.304 C 
ATOM     15  O   UNL     1      -3.021  -1.031  -7.305  0.00  0.00    -0.253 OA
ATOM     16  N   UNL     1      -5.191  -1.470  -7.126  0.00  0.00    -0.299 N 
ATOM     17  H   UNL     1      -4.449  -2.151  -4.806  0.00  0.00    +0.156 HD
ATOM     18  H   UNL     1      -5.929  -1.775  -6.575  0.00  0.00    +0.150 HD
BRANCH  16  19
ATOM     19  C   UNL     1      -5.430  -1.070  -8.515  0.00  0.00    +0.102 C 
ATOM     20  C   UNL     1      -6.917  -1.228  -8.842  0.00  0.00    +0.024 C 
ENDBRANCH  16  19
ENDBRANCH   8  13
BRANCH   1  22
ATOM     21  C   UNL     1       1.517   1.217  -1.693  0.00  0.00    +0.008 C 
ATOM     22  C   UNL     1       1.236  -0.206  -1.206  0.00  0.00    +0.051 C 
ENDBRANCH   1  22
BRANCH   4  23
ATOM     23  C   UNL     1       1.010  -4.525  -0.616  0.00  0.00    +0.106 C 
BRANCH  23  24
ATOM     24  C   UNL     1       1.224  -3.995   0.779  0.00  0.00    -0.027 A 
ATOM     25  C   UNL     1       1.608  -2.681   0.968  0.00  0.00    +0.005 A 
ATOM     26  C   UNL     1       1.804  -2.195   2.247  0.00  0.00    +0.000 A 
ATOM     27  C   UNL     1       1.617  -3.023   3.337  0.00  0.00    +0.000 A 
ATOM     28  C   UNL     1       1.232  -4.338   3.148  0.00  0.00    +0.000 A 
ATOM     29  C   UNL     1       1.031  -4.822   1.870  0.00  0.00    +0.005 A 
ENDBRANCH  23  24
BRANCH  23  30
ATOM     30  C   UNL     1       2.231  -5.341  -1.044  0.00  0.00    +0.024 C 
ATOM     31  C   UNL     1       2.031  -5.844  -2.476  0.00  0.00    +0.006 C 
ENDBRANCH  23  30
ENDBRANCH   4  23
TORSDOF 6
