REMARK  Name = ZINC01401816
REMARK  6 active torsions:
REMARK  status: ('A' for Active; 'I' for Inactive)
REMARK    1  A    between atoms: C_6  and  C_7
REMARK    2  A    between atoms: N_9  and  C_10
REMARK    3  A    between atoms: N_14  and  C_17
REMARK    4  A    between atoms: C_17  and  C_18
REMARK    5  A    between atoms: C_18  and  N_19
REMARK    6  A    between atoms: C_23  and  C_26
REMARK                            x       y       z     vdW  Elec       q    Type
REMARK                         _______ _______ _______ _____ _____    ______ ____
ROOT
ATOM      1  C   UNL     1      -2.413  -2.901   0.069  0.00  0.00    +0.100 A 
ATOM      2  C   UNL     1      -3.632  -2.321  -0.123  0.00  0.00    +0.042 A 
ATOM      3  C   UNL     1      -4.767  -3.153  -0.301  0.00  0.00    +0.039 A 
ATOM      4  C   UNL     1      -4.628  -4.526  -0.285  0.00  0.00    +0.033 A 
ATOM      5  N   UNL     1      -3.409  -5.074  -0.088  0.00  0.00    -0.309 N 
ATOM      6  C   UNL     1      -2.316  -4.312   0.080  0.00  0.00    +0.273 A 
ATOM      7  O   UNL     1      -1.230  -4.841   0.248  0.00  0.00    -0.266 OA
ATOM      8  C   UNL     1      -5.807  -5.440  -0.489  0.00  0.00    +0.054 C 
ATOM      9  C   UNL     1      -7.118  -4.741  -0.141  0.00  0.00    +0.014 C 
ATOM     10  C   UNL     1      -7.225  -3.437  -0.943  0.00  0.00    +0.080 C 
ATOM     11  C   UNL     1      -6.089  -2.540  -0.497  0.00  0.00    +0.165 C 
ATOM     12  O   UNL     1      -6.265  -1.355  -0.306  0.00  0.00    -0.292 OA
ENDROOT
BRANCH   1  15
ATOM     13  C   UNL     1      -0.526  -2.241   1.361  0.00  0.00    +0.248 C 
ATOM     14  O   UNL     1      -0.892  -2.982   2.253  0.00  0.00    -0.270 OA
ATOM     15  N   UNL     1      -1.271  -2.109   0.246  0.00  0.00    -0.277 N 
ATOM     16  H   UNL     1      -1.016  -1.466  -0.434  0.00  0.00    +0.155 HD
BRANCH  13  22
ATOM     17  C   UNL     1       1.510  -1.620   2.655  0.00  0.00    +0.014 A 
ATOM     18  C   UNL     1       2.687  -0.913   2.779  0.00  0.00    +0.021 A 
ATOM     19  C   UNL     1       3.103  -0.070   1.761  0.00  0.00    +0.041 A 
ATOM     20  C   UNL     1       2.339   0.068   0.614  0.00  0.00    +0.021 A 
ATOM     21  C   UNL     1       1.160  -0.633   0.479  0.00  0.00    +0.014 A 
ATOM     22  C   UNL     1       0.736  -1.485   1.501  0.00  0.00    +0.037 A 
ATOM     23 CL   UNL     1       4.586   0.818   1.925  0.00  0.00    -0.084 Cl
ENDBRANCH  13  22
ENDBRANCH   1  15
BRANCH   5  24
ATOM     24  C   UNL     1      -3.275  -6.533  -0.063  0.00  0.00    +0.144 C 
BRANCH  24  25
ATOM     25  C   UNL     1      -3.438  -7.035   1.373  0.00  0.00    +0.124 C 
BRANCH  25  26
ATOM     26  N   UNL     1      -3.304  -8.494   1.399  0.00  0.00    -0.326 N 
ATOM     27  C   UNL     1      -3.415  -9.182   2.602  0.00  0.00    +0.137 A 
ATOM     28  C   UNL     1      -3.281 -10.568   2.620  0.00  0.00    +0.081 A 
ATOM     29  C   UNL     1      -3.393 -11.238   3.825  0.00  0.00    +0.037 A 
ATOM     30  C   UNL     1      -3.637 -10.499   4.975  0.00  0.00    +0.074 A 
ATOM     31  C   UNL     1      -3.758  -9.127   4.884  0.00  0.00    +0.125 A 
ATOM     32  N   UNL     1      -3.641  -8.512   3.722  0.00  0.00    -0.238 NA
ATOM     33 CL   UNL     1      -2.978 -11.442   1.151  0.00  0.00    -0.080 Cl
ATOM     34  H   UNL     1      -3.138  -8.980   0.576  0.00  0.00    +0.148 HD
BRANCH  30  35
ATOM     35  C   UNL     1      -3.767 -11.187   6.309  0.00  0.00    +0.419 C 
ATOM     36  F   UNL     1      -2.509 -11.273   6.915  0.00  0.00    -0.166 F 
ATOM     37  F   UNL     1      -4.631 -10.454   7.130  0.00  0.00    -0.166 F 
ATOM     38  F   UNL     1      -4.283 -12.474   6.122  0.00  0.00    -0.166 F 
ENDBRANCH  30  35
ENDBRANCH  25  26
ENDBRANCH  24  25
ENDBRANCH   5  24
TORSDOF 6
