REMARK  Name = ZINC57395155
REMARK  5 active torsions:
REMARK  status: ('A' for Active; 'I' for Inactive)
REMARK    1  A    between atoms: C_1  and  C_2
REMARK    2  A    between atoms: C_2  and  C_4
REMARK    3  A    between atoms: C_2  and  C_18
REMARK    4  A    between atoms: C_4  and  C_5
REMARK    5  A    between atoms: C_5  and  N_7
REMARK                            x       y       z     vdW  Elec       q    Type
REMARK                         _______ _______ _______ _____ _____    ______ ____
ROOT
ATOM      1  C   UNL     1       2.161  -0.068  -1.215  0.00  0.00    +0.240 C 
ATOM      2  O   UNL     1       2.577   0.571  -0.268  0.00  0.00    -0.274 OA
ENDROOT
BRANCH   1   3
ATOM      3  N   UNL     1       2.984  -0.402  -2.204  0.00  0.00    -0.147 NA
ATOM      4  C   UNL     1       4.235   0.051  -2.210  0.00  0.00    +0.198 A 
ATOM      5  N   UNL     1       4.820   0.761  -1.210  0.00  0.00    -0.326 N 
ATOM      6  H   UNL     1       4.397   1.022  -0.377  0.00  0.00    +0.169 HD
ATOM      7  C   UNL     1       6.128   1.050  -1.586  0.00  0.00    +0.065 A 
ATOM      8  C   UNL     1       7.163   1.734  -0.966  0.00  0.00    +0.028 A 
ATOM      9  C   UNL     1       8.382   1.861  -1.602  0.00  0.00    +0.002 A 
ATOM     10  C   UNL     1       8.576   1.308  -2.856  0.00  0.00    +0.002 A 
ATOM     11  C   UNL     1       7.553   0.625  -3.482  0.00  0.00    +0.028 A 
ATOM     12  C   UNL     1       6.324   0.491  -2.852  0.00  0.00    +0.065 A 
ATOM     13  N   UNL     1       5.133  -0.129  -3.215  0.00  0.00    -0.326 N 
ATOM     14  H   UNL     1       4.970  -0.606  -4.043  0.00  0.00    +0.169 HD
ENDBRANCH   1   3
BRANCH   1  15
ATOM     15  C   UNL     1       0.713  -0.482  -1.268  0.00  0.00    +0.106 C 
BRANCH  15  17
ATOM     16  C   UNL     1      -0.024   1.555  -0.022  0.00  0.00    +0.013 C 
ATOM     17  C   UNL     1      -0.008   0.025  -0.017  0.00  0.00    +0.025 C 
BRANCH  17  18
ATOM     18  C   UNL     1      -1.424  -0.492  -0.009  0.00  0.00    -0.044 A 
ATOM     19  C   UNL     1      -2.281  -0.175  -1.047  0.00  0.00    +0.007 A 
ATOM     20  C   UNL     1      -3.579  -0.649  -1.041  0.00  0.00    +0.038 A 
ATOM     21  C   UNL     1      -4.021  -1.442   0.004  0.00  0.00    +0.123 A 
ATOM     22  C   UNL     1      -3.162  -1.759   1.043  0.00  0.00    +0.038 A 
ATOM     23  C   UNL     1      -1.863  -1.288   1.032  0.00  0.00    +0.007 A 
ATOM     24  F   UNL     1      -5.290  -1.905   0.012  0.00  0.00    -0.205 F 
ENDBRANCH  17  18
ENDBRANCH  15  17
ENDBRANCH   1  15
TORSDOF 4
