REMARK  Name = ZINC01290956
REMARK  9 active torsions:
REMARK  status: ('A' for Active; 'I' for Inactive)
REMARK    1  A    between atoms: C_1  and  C_2
REMARK    2  A    between atoms: C_2  and  C_3
REMARK    3  A    between atoms: C_3  and  C_5
REMARK    4  A    between atoms: C_3  and  N_6
REMARK    5  A    between atoms: C_7  and  C_9
REMARK    6  A    between atoms: C_9  and  S_10
REMARK    7  A    between atoms: S_10  and  C_11
REMARK    8  A    between atoms: C_19  and  C_23
REMARK    9  A    between atoms: N_26  and  C_27
REMARK                            x       y       z     vdW  Elec       q    Type
REMARK                         _______ _______ _______ _____ _____    ______ ____
ROOT
ATOM      1  C   UNL     1      -3.314   3.936  -0.448  0.00  0.00    +0.178 A 
ATOM      2  N   UNL     1      -2.089   4.441  -0.497  0.00  0.00    -0.215 NA
ATOM      3  C   UNL     1      -1.100   3.686  -0.035  0.00  0.00    +0.117 A 
ATOM      4  C   UNL     1      -1.280   2.392   0.506  0.00  0.00    +0.076 A 
ATOM      5  C   UNL     1      -0.076   1.714   0.958  0.00  0.00    -0.023 A 
ATOM      6  C   UNL     1       1.087   2.391   0.826  0.00  0.00    -0.004 A 
ATOM      7  S   UNL     1       0.641   3.945   0.093  0.00  0.00    -0.073 S 
ATOM      8  C   UNL     1       2.456   1.927   1.216  0.00  0.00    +0.046 C 
ATOM      9  C   UNL     1       2.313   0.706   2.136  0.00  0.00    -0.009 C 
ATOM     10  C   UNL     1       1.319  -0.271   1.501  0.00  0.00    +0.008 C 
ATOM     11  C   UNL     1      -0.093   0.312   1.562  0.00  0.00    +0.037 C 
ATOM     12  C   UNL     1       3.671   0.021   2.302  0.00  0.00    +0.008 C 
ATOM     13  C   UNL     1      -2.617   1.875   0.537  0.00  0.00    +0.268 A 
ATOM     14  O   UNL     1      -2.872   0.768   0.979  0.00  0.00    -0.267 OA
ATOM     15  N   UNL     1      -3.579   2.694   0.051  0.00  0.00    -0.255 N 
ENDROOT
BRANCH  15  16
ATOM     16  C   UNL     1      -4.906   2.246   0.061  0.00  0.00    +0.052 A 
ATOM     17  C   UNL     1      -5.716   2.494   1.162  0.00  0.00    +0.026 A 
ATOM     18  C   UNL     1      -7.026   2.056   1.166  0.00  0.00    +0.002 A 
ATOM     19  C   UNL     1      -7.528   1.362   0.080  0.00  0.00    +0.000 A 
ATOM     20  C   UNL     1      -6.723   1.109  -1.015  0.00  0.00    +0.002 A 
ATOM     21  C   UNL     1      -5.413   1.550  -1.028  0.00  0.00    +0.026 A 
ENDBRANCH  15  16
BRANCH   1  22
ATOM     22  S   UNL     1      -4.654   4.907  -1.052  0.00  0.00    -0.078 S 
BRANCH  22  23
ATOM     23  C   UNL     1      -3.757   6.392  -1.569  0.00  0.00    +0.173 C 
BRANCH  23  25
ATOM     24  N   UNL     1      -4.285   8.584  -2.587  0.00  0.00    -0.312 N 
ATOM     25  C   UNL     1      -4.730   7.394  -2.135  0.00  0.00    +0.224 C 
ATOM     26  O   UNL     1      -5.913   7.131  -2.184  0.00  0.00    -0.275 OA
ATOM     27  H   UNL     1      -3.339   8.795  -2.548  0.00  0.00    +0.149 HD
BRANCH  24  28
ATOM     28  C   UNL     1      -5.231   9.558  -3.138  0.00  0.00    +0.070 C 
ATOM     29  C   UNL     1      -5.474   9.252  -4.617  0.00  0.00    +0.028 C 
BRANCH  28  31
ATOM     30  C   UNL     1      -4.524  11.320  -1.514  0.00  0.00    +0.005 C 
ATOM     31  C   UNL     1      -4.651  10.967  -2.997  0.00  0.00    +0.018 C 
ENDBRANCH  28  31
ENDBRANCH  24  28
ENDBRANCH  23  25
ENDBRANCH  22  23
ENDBRANCH   1  22
TORSDOF 6
