REMARK  Name = ZINC04733298
REMARK  5 active torsions:
REMARK  status: ('A' for Active; 'I' for Inactive)
REMARK    1  A    between atoms: C_1  and  C_2
REMARK    2  A    between atoms: C_2  and  C_27
REMARK    3  A    between atoms: C_9  and  C_17
REMARK    4  A    between atoms: N_10  and  C_11
REMARK    5  A    between atoms: N_24  and  O_25
REMARK                            x       y       z     vdW  Elec       q    Type
REMARK                         _______ _______ _______ _____ _____    ______ ____
ROOT
ATOM      1  C   UNL     1       1.956   1.659   2.682  0.00  0.00    +0.011 C 
ATOM      2  C   UNL     1       1.550   2.749   1.688  0.00  0.00    -0.028 C 
ATOM      3  C   UNL     1       0.049   2.873   1.685  0.00  0.00    +0.030 C 
ATOM      4  C   UNL     1      -0.714   1.690   1.155  0.00  0.00    +0.092 C 
ATOM      5  C   UNL     1      -0.072   0.964  -0.013  0.00  0.00    +0.082 C 
ATOM      6  C   UNL     1      -0.947   1.280  -1.197  0.00  0.00    +0.008 C 
ATOM      7  C   UNL     1      -2.002   1.947  -0.778  0.00  0.00    +0.038 C 
ATOM      8  N   UNL     1      -1.999   2.169   0.593  0.00  0.00    -0.296 N 
ATOM      9  C   UNL     1       1.362   1.224  -0.249  0.00  0.00    +0.067 C 
ATOM     10  N   UNL     1       2.011   0.400  -0.982  0.00  0.00    -0.096 NA
ATOM     11  C   UNL     1       2.103   2.396   0.317  0.00  0.00    +0.061 C 
ATOM     12  C   UNL     1       2.157   4.079   2.140  0.00  0.00    +0.011 C 
ENDROOT
BRANCH   8  13
ATOM     13  C   UNL     1      -3.038   2.750   1.324  0.00  0.00    +0.034 A 
ATOM     14  C   UNL     1      -3.355   4.090   1.139  0.00  0.00    +0.023 A 
ATOM     15  C   UNL     1      -4.386   4.660   1.859  0.00  0.00    +0.002 A 
ATOM     16  C   UNL     1      -5.095   3.902   2.772  0.00  0.00    +0.000 A 
ATOM     17  C   UNL     1      -4.779   2.570   2.963  0.00  0.00    +0.002 A 
ATOM     18  C   UNL     1      -3.753   1.992   2.242  0.00  0.00    +0.023 A 
ENDBRANCH   8  13
BRANCH   7  19
ATOM     19  C   UNL     1      -3.086   2.409  -1.674  0.00  0.00    -0.004 A 
ATOM     20  C   UNL     1      -4.420   2.181  -1.336  0.00  0.00    +0.010 A 
ATOM     21  C   UNL     1      -5.426   2.619  -2.173  0.00  0.00    +0.001 A 
ATOM     22  C   UNL     1      -5.113   3.274  -3.351  0.00  0.00    +0.000 A 
ATOM     23  C   UNL     1      -3.792   3.498  -3.695  0.00  0.00    +0.001 A 
ATOM     24  C   UNL     1      -2.777   3.070  -2.863  0.00  0.00    +0.010 A 
ENDBRANCH   7  19
BRANCH  10  25
ATOM     25  O   UNL     1       3.388   0.610  -1.235  0.00  0.00    -0.409 OA
ATOM     26  H   UNL     1       3.792  -0.065  -1.798  0.00  0.00    +0.328 HD
ENDBRANCH  10  25
TORSDOF 3
