REMARK  Name = ZINC63704871
REMARK  8 active torsions:
REMARK  status: ('A' for Active; 'I' for Inactive)
REMARK    1  A    between atoms: C_1  and  C_2
REMARK    2  A    between atoms: C_7  and  N_12
REMARK    3  A    between atoms: C_9  and  C_11
REMARK    4  A    between atoms: C_13  and  C_15
REMARK    5  A    between atoms: C_26  and  C_31
REMARK    6  A    between atoms: N_33  and  C_34
REMARK    7  A    between atoms: C_34  and  C_35
REMARK    8  A    between atoms: C_34  and  C_36
REMARK                            x       y       z     vdW  Elec       q    Type
REMARK                         _______ _______ _______ _____ _____    ______ ____
ROOT
ATOM      1  C   UNL     1       1.350  -0.324   6.052  0.00  0.00    +0.039 A 
ATOM      2  C   UNL     1       2.134  -1.479   5.969  0.00  0.00    +0.014 A 
ATOM      3  C   UNL     1       2.801  -1.944   7.068  0.00  0.00    +0.016 A 
ATOM      4  C   UNL     1       2.695  -1.258   8.277  0.00  0.00    +0.065 A 
ATOM      5  C   UNL     1       1.915  -0.103   8.373  0.00  0.00    +0.062 A 
ATOM      6  C   UNL     1       1.242   0.371   7.254  0.00  0.00    +0.040 A 
ATOM      7  N   UNL     1       1.811   0.585   9.599  0.00  0.00    -0.284 N 
ATOM      8  C   UNL     1       2.478   0.105  10.666  0.00  0.00    +0.142 A 
ATOM      9  N   UNL     1       3.225  -0.984  10.606  0.00  0.00    -0.193 NA
ATOM     10  C   UNL     1       3.392  -1.713   9.496  0.00  0.00    +0.281 A 
ATOM     11  O   UNL     1       4.090  -2.711   9.492  0.00  0.00    -0.265 OA
ATOM     12  C   UNL     1       2.310   0.914  11.960  0.00  0.00    +0.205 C 
ATOM     13  S   UNL     1       1.194   2.249  11.379  0.00  0.00    -0.079 S 
ATOM     14  C   UNL     1       1.046   1.716   9.688  0.00  0.00    +0.128 C 
ATOM     15  S   UNL     1       0.139   2.458   8.440  0.00  0.00    -0.025 S 
ENDROOT
BRANCH   1  17
ATOM     16  N   UNL     1       0.735  -0.503   3.687  0.00  0.00    -0.308 N 
ATOM     17  C   UNL     1       0.634   0.166   4.853  0.00  0.00    +0.244 C 
ATOM     18  O   UNL     1      -0.045   1.172   4.919  0.00  0.00    -0.270 OA
ATOM     19  H   UNL     1       1.276  -1.306   3.634  0.00  0.00    +0.149 HD
BRANCH  16  25
ATOM     20  C   UNL     1      -0.019   1.526   0.010  0.00  0.00    +0.008 C 
ATOM     21  C   UNL     1       0.002  -0.004   0.002  0.00  0.00    -0.009 C 
ATOM     22  C   UNL     1      -1.433  -0.534   0.013  0.00  0.00    +0.003 C 
ATOM     23  C   UNL     1      -2.149  -0.040   1.272  0.00  0.00    +0.002 C 
ATOM     24  C   UNL     1      -1.409  -0.547   2.511  0.00  0.00    +0.022 C 
ATOM     25  C   UNL     1       0.026  -0.018   2.500  0.00  0.00    +0.076 C 
ATOM     26  C   UNL     1       0.742  -0.511   1.242  0.00  0.00    +0.009 C 
ATOM     27  C   UNL     1       2.178   0.019   1.231  0.00  0.00    +0.009 C 
ENDBRANCH  16  25
ENDBRANCH   1  17
BRANCH  12  28
ATOM     28  C   UNL     1       1.658   0.088  13.039  0.00  0.00    +0.234 C 
ATOM     29  O   UNL     1       0.877  -0.790  12.741  0.00  0.00    -0.274 OA
ATOM     30  N   UNL     1       1.944   0.326  14.334  0.00  0.00    -0.312 N 
ATOM     31  H   UNL     1       2.568   1.029  14.572  0.00  0.00    +0.149 HD
BRANCH  30  32
ATOM     32  C   UNL     1       1.310  -0.477  15.383  0.00  0.00    +0.067 C 
ATOM     33  C   UNL     1       2.111  -1.763  15.595  0.00  0.00    +0.027 C 
ATOM     34  C   UNL     1       1.275   0.323  16.687  0.00  0.00    +0.027 C 
ENDBRANCH  30  32
ENDBRANCH  12  28
TORSDOF 4
