REMARK  Name = ZINC14722943
REMARK  5 active torsions:
REMARK  status: ('A' for Active; 'I' for Inactive)
REMARK    1  A    between atoms: N_12  and  C_16
REMARK    2  A    between atoms: C_16  and  C_17
REMARK    3  A    between atoms: N_19  and  C_20
REMARK    4  A    between atoms: C_20  and  C_21
REMARK    5  A    between atoms: C_21  and  C_22
REMARK                            x       y       z     vdW  Elec       q    Type
REMARK                         _______ _______ _______ _____ _____    ______ ____
ROOT
ATOM      1  C   UNL     1      -1.813  -2.030  -2.511  0.00  0.00    +0.213 C 
ENDROOT
BRANCH   1  13
ATOM      2  C   UNL     1       3.874  -0.668   1.644  0.00  0.00    +0.000 A 
ATOM      3  C   UNL     1       3.018  -1.754   1.640  0.00  0.00    +0.000 A 
ATOM      4  C   UNL     1       1.744  -1.624   1.124  0.00  0.00    +0.006 A 
ATOM      5  C   UNL     1       1.317  -0.410   0.610  0.00  0.00    -0.012 A 
ATOM      6  C   UNL     1       2.176   0.676   0.613  0.00  0.00    -0.042 A 
ATOM      7  C   UNL     1       3.453   0.543   1.131  0.00  0.00    +0.004 A 
ATOM      8  C   UNL     1       1.487   1.876  -0.002  0.00  0.00    +0.038 C 
ATOM      9  C   UNL     1      -0.019   1.530   0.011  0.00  0.00    +0.045 C 
ATOM     10  C   UNL     1       0.002  -0.004   0.002  0.00  0.00    +0.138 C 
ATOM     11  C   UNL     1      -0.156  -0.544  -1.395  0.00  0.00    +0.251 C 
ATOM     12  O   UNL     1       0.566  -0.342  -2.349  0.00  0.00    -0.272 OA
ATOM     13  N   UNL     1      -1.273  -1.303  -1.359  0.00  0.00    -0.215 N 
ATOM     14  C   UNL     1      -1.826  -1.307  -0.139  0.00  0.00    +0.310 C 
ATOM     15  O   UNL     1      -2.838  -1.919   0.143  0.00  0.00    -0.252 OA
ATOM     16  N   UNL     1      -1.133  -0.558   0.742  0.00  0.00    -0.281 N 
ATOM     17  H   UNL     1      -1.344  -0.414   1.678  0.00  0.00    +0.152 HD
ENDBRANCH   1  13
BRANCH   1  18
ATOM     18  C   UNL     1      -1.217  -3.413  -2.556  0.00  0.00    +0.231 C 
ATOM     19  O   UNL     1      -0.420  -3.758  -1.709  0.00  0.00    -0.274 OA
ATOM     20  N   UNL     1      -1.570  -4.267  -3.537  0.00  0.00    -0.314 N 
ATOM     21  H   UNL     1      -2.207  -3.991  -4.214  0.00  0.00    +0.149 HD
BRANCH  20  22
ATOM     22  C   UNL     1      -0.990  -5.612  -3.581  0.00  0.00    +0.105 C 
BRANCH  22  23
ATOM     23  C   UNL     1      -1.554  -6.371  -4.783  0.00  0.00    +0.025 C 
BRANCH  23  24
ATOM     24  C   UNL     1      -0.949  -7.776  -4.829  0.00  0.00    -0.027 C 
ATOM     25  C   UNL     1      -1.301  -8.525  -3.542  0.00  0.00    +0.010 C 
ATOM     26  C   UNL     1      -0.696  -9.930  -3.588  0.00  0.00    -0.010 C 
ATOM     27  C   UNL     1      -1.260 -10.689  -4.791  0.00  0.00    +0.007 C 
ATOM     28  C   UNL     1      -0.908  -9.940  -6.077  0.00  0.00    -0.010 C 
ATOM     29  C   UNL     1      -1.513  -8.535  -6.032  0.00  0.00    +0.010 C 
ATOM     30  C   UNL     1       0.613  -9.836  -6.207  0.00  0.00    +0.007 C 
ATOM     31  C   UNL     1       1.177  -9.077  -5.004  0.00  0.00    -0.010 C 
ATOM     32  C   UNL     1       0.825  -9.826  -3.718  0.00  0.00    +0.007 C 
ATOM     33  C   UNL     1       0.572  -7.672  -4.959  0.00  0.00    +0.010 C 
ENDBRANCH  23  24
ENDBRANCH  22  23
ENDBRANCH  20  22
ENDBRANCH   1  18
TORSDOF 5
