REMARK  Name = ZINC06135773
REMARK  8 active torsions:
REMARK  status: ('A' for Active; 'I' for Inactive)
REMARK    1  A    between atoms: C_1  and  N_2
REMARK    2  A    between atoms: N_2  and  C_3
REMARK    3  A    between atoms: N_2  and  C_4
REMARK    4  A    between atoms: C_7  and  C_10
REMARK    5  A    between atoms: N_11  and  N_12
REMARK    6  A    between atoms: C_13  and  S_15
REMARK    7  A    between atoms: S_15  and  C_16
REMARK    8  A    between atoms: N_21  and  C_24
REMARK                            x       y       z     vdW  Elec       q    Type
REMARK                         _______ _______ _______ _____ _____    ______ ____
ROOT
ATOM      1  N   UNL     1      -0.022  -2.837  -7.236  0.00  0.00    -0.217 N 
ATOM      2  C   UNL     1      -0.038  -2.142  -8.424  0.00  0.00    +0.146 C 
ATOM      3  N   UNL     1      -0.051  -0.838  -8.417  0.00  0.00    -0.380 N 
ATOM      4  H   UNL     1      -0.013  -3.807  -7.241  0.00  0.00    +0.176 HD
ATOM      5  H   UNL     1      -0.062  -0.348  -9.255  0.00  0.00    +0.158 HD
ATOM      6  H   UNL     1      -0.050  -0.357  -7.575  0.00  0.00    +0.158 HD
ENDROOT
BRANCH   1   8
ATOM      7  C   UNL     1      -0.006  -2.798  -4.899  0.00  0.00    +0.138 C 
ATOM      8  N   UNL     1      -0.021  -2.143  -6.019  0.00  0.00    -0.188 NA
BRANCH   7  12
ATOM      9  C   UNL     1       0.000  -0.695  -1.210  0.00  0.00    +0.029 A 
ATOM     10  C   UNL     1       0.013  -2.086  -1.216  0.00  0.00    +0.024 A 
ATOM     11  C   UNL     1       0.011  -2.772  -2.410  0.00  0.00    +0.011 A 
ATOM     12  C   UNL     1      -0.005  -2.068  -3.618  0.00  0.00    -0.005 A 
ATOM     13  C   UNL     1      -0.018  -0.670  -3.608  0.00  0.00    +0.011 A 
ATOM     14  C   UNL     1      -0.021   0.008  -2.410  0.00  0.00    +0.024 A 
BRANCH   9  16
ATOM     15  C   UNL     1      -0.018   1.461   0.010  0.00  0.00    +0.129 C 
ATOM     16  N   UNL     1       0.002  -0.004   0.002  0.00  0.00    -0.336 N 
ATOM     17  C   UNL     1       0.024  -0.743   1.267  0.00  0.00    +0.129 C 
ENDBRANCH   9  16
ENDBRANCH   7  12
ENDBRANCH   1   8
BRANCH   2  18
ATOM     18  S   UNL     1      -0.040  -3.015  -9.955  0.00  0.00    -0.078 S 
BRANCH  18  19
ATOM     19  C   UNL     1      -0.062  -1.704 -11.208  0.00  0.00    +0.149 C 
ATOM     20  C   UNL     1      -0.138  -2.308 -12.625  0.00  0.00    +0.120 C 
ATOM     21  C   UNL     1       1.139  -1.832 -13.282  0.00  0.00    +0.228 C 
ATOM     22  O   UNL     1       1.481  -2.084 -14.418  0.00  0.00    -0.275 OA
ATOM     23  N   UNL     1       1.833  -1.088 -12.411  0.00  0.00    -0.208 N 
ATOM     24  C   UNL     1       1.249  -0.947 -11.211  0.00  0.00    +0.240 C 
ATOM     25  O   UNL     1       1.698  -0.317 -10.277  0.00  0.00    -0.274 OA
BRANCH  23  26
ATOM     26  C   UNL     1       3.067  -0.502 -12.727  0.00  0.00    +0.064 A 
ATOM     27  C   UNL     1       3.112   0.775 -13.267  0.00  0.00    +0.045 A 
ATOM     28  C   UNL     1       4.330   1.350 -13.577  0.00  0.00    +0.043 A 
ATOM     29  C   UNL     1       5.504   0.653 -13.349  0.00  0.00    +0.021 A 
ATOM     30  C   UNL     1       5.462  -0.620 -12.811  0.00  0.00    +0.023 A 
ATOM     31  C   UNL     1       4.247  -1.198 -12.494  0.00  0.00    +0.063 A 
ATOM     32 CL   UNL     1       4.195  -2.793 -11.812  0.00  0.00    -0.082 Cl
ATOM     33 CL   UNL     1       4.388   2.948 -14.253  0.00  0.00    -0.083 Cl
ENDBRANCH  23  26
ENDBRANCH  18  19
ENDBRANCH   2  18
TORSDOF 6
