REMARK  Name = ZINC11814114
REMARK  16 active torsions:
REMARK  status: ('A' for Active; 'I' for Inactive)
REMARK    1  A    between atoms: C_1  and  C_2
REMARK    2  A    between atoms: C_2  and  C_3
REMARK    3  A    between atoms: C_2  and  C_4
REMARK    4  A    between atoms: C_4  and  C_5
REMARK    5  A    between atoms: C_5  and  C_7
REMARK    6  A    between atoms: C_5  and  N_29
REMARK    7  A    between atoms: C_16  and  C_17
REMARK    8  A    between atoms: C_16  and  N_71
REMARK    9  A    between atoms: C_20  and  C_23
REMARK   10  A    between atoms: C_24  and  C_25
REMARK   11  A    between atoms: C_25  and  C_26
REMARK   12  A    between atoms: C_25  and  C_27
REMARK   13  A    between atoms: C_25  and  O_28
REMARK   14  A    between atoms: C_30  and  C_32
REMARK   15  A    between atoms: C_32  and  O_33
REMARK   16  A    between atoms: O_33  and  C_34
REMARK                            x       y       z     vdW  Elec       q    Type
REMARK                         _______ _______ _______ _____ _____    ______ ____
ROOT
ATOM      1  C   UNL     1       0.675  -0.474  -3.736  0.00  0.00    +0.154 A 
ATOM      2  N   UNL     1       0.824  -1.679  -4.220  0.00  0.00    -0.132 NA
ATOM      3  N   UNL     1       1.526  -1.630  -5.299  0.00  0.00    -0.134 NA
ATOM      4  C   UNL     1       1.857  -0.397  -5.547  0.00  0.00    +0.132 A 
ATOM      5  N   UNL     1       1.339   0.369  -4.555  0.00  0.00    -0.315 N 
ATOM      6  C   UNL     1       1.497   1.817  -4.414  0.00  0.00    +0.106 C 
ATOM      7  C   UNL     1       1.697   2.438  -5.799  0.00  0.00    -0.056 C 
ATOM      8  C   UNL     1       3.701   1.115  -6.196  0.00  0.00    -0.071 C 
ATOM      9  C   UNL     1       2.651   0.127  -6.715  0.00  0.00    +0.058 C 
ATOM     10  N   UNL     1       3.131   2.480  -6.166  0.00  0.00    +0.384 N 
ATOM     11  H   UNL     1       3.222   2.897  -7.100  0.00  0.00    -0.081 HD
ENDROOT
BRANCH   1  12
ATOM     12  C   UNL     1      -0.089  -0.097  -2.493  0.00  0.00    +0.141 C 
BRANCH  12  13
ATOM     13  N   UNL     1      -1.378  -0.794  -2.482  0.00  0.00    -0.304 N 
ATOM     14  C   UNL     1      -2.417  -0.279  -1.795  0.00  0.00    +0.239 C 
ATOM     15  O   UNL     1      -2.285   0.762  -1.187  0.00  0.00    -0.273 OA
ATOM     16  H   UNL     1      -1.483  -1.626  -2.968  0.00  0.00    +0.149 HD
BRANCH  14  17
ATOM     17  C   UNL     1      -3.742  -0.996  -1.784  0.00  0.00    +0.255 C 
BRANCH  17  18
ATOM     18  O   UNL     1      -4.676  -0.257  -0.994  0.00  0.00    -0.374 OA
ATOM     19  C   UNL     1      -5.972  -0.854  -0.917  0.00  0.00    +0.194 C 
ENDBRANCH  17  18
ENDBRANCH  14  17
ENDBRANCH  12  13
BRANCH  12  20
ATOM     20  C   UNL     1       0.718  -0.497  -1.257  0.00  0.00    +0.033 C 
BRANCH  20  22
ATOM     21  C   UNL     1      -0.019   1.526   0.010  0.00  0.00    +0.007 C 
ATOM     22  C   UNL     1       0.002  -0.004   0.002  0.00  0.00    -0.015 C 
ATOM     23  C   UNL     1       0.742  -0.511   1.242  0.00  0.00    +0.007 C 
ENDBRANCH  20  22
ENDBRANCH  12  20
ENDBRANCH   1  12
BRANCH  10  24
ATOM     24  C   UNL     1       3.872   3.311  -5.199  0.00  0.00    -0.043 C 
BRANCH  24  25
ATOM     25  C   UNL     1       5.263   3.541  -5.731  0.00  0.00    -0.064 A 
ATOM     26  C   UNL     1       6.284   2.672  -5.387  0.00  0.00    +0.003 A 
ATOM     27  C   UNL     1       7.559   2.874  -5.875  0.00  0.00    +0.017 A 
ATOM     28  C   UNL     1       7.820   3.963  -6.707  0.00  0.00    +0.025 A 
ATOM     29  C   UNL     1       6.787   4.839  -7.045  0.00  0.00    +0.017 A 
ATOM     30  C   UNL     1       5.515   4.623  -6.555  0.00  0.00    +0.003 A 
BRANCH  28  31
ATOM     31  C   UNL     1       9.142   4.181  -7.213  0.00  0.00    -0.063 C 
ATOM     32  C   UNL     1      10.225   4.360  -7.628  0.00  0.00    -0.063 C 
BRANCH  32  33
ATOM     33  C   UNL     1      11.584   4.584  -8.147  0.00  0.00    +0.121 C 
ATOM     34  C   UNL     1      12.516   3.488  -7.628  0.00  0.00    +0.055 C 
ATOM     35  C   UNL     1      11.558   4.548  -9.677  0.00  0.00    +0.055 C 
BRANCH  33  36
ATOM     36  O   UNL     1      12.058   5.859  -7.709  0.00  0.00    -0.377 OA
ATOM     37  H   UNL     1      11.514   6.603  -8.002  0.00  0.00    +0.211 HD
ENDBRANCH  33  36
ENDBRANCH  32  33
ENDBRANCH  28  31
ENDBRANCH  24  25
ENDBRANCH  10  24
TORSDOF 11
