REMARK  Name = ZINC59368086
REMARK  12 active torsions:
REMARK  status: ('A' for Active; 'I' for Inactive)
REMARK    1  A    between atoms: C_1  and  C_2
REMARK    2  A    between atoms: C_2  and  C_3
REMARK    3  A    between atoms: C_3  and  C_4
REMARK    4  A    between atoms: C_5  and  C_32
REMARK    5  A    between atoms: C_6  and  C_31
REMARK    6  A    between atoms: C_9  and  C_10
REMARK    7  A    between atoms: N_12  and  C_13
REMARK    8  A    between atoms: N_12  and  C_14
REMARK    9  A    between atoms: C_14  and  C_15
REMARK   10  A    between atoms: C_28  and  C_30
REMARK   11  A    between atoms: C_32  and  O_34
REMARK   12  A    between atoms: O_34  and  C_35
REMARK                            x       y       z     vdW  Elec       q    Type
REMARK                         _______ _______ _______ _____ _____    ______ ____
ROOT
ATOM      1  C   UNL     1      -1.179  -2.424   2.531  0.00  0.00    +0.263 C 
ATOM      2  O   UNL     1      -1.102  -1.244   2.813  0.00  0.00    -0.268 OA
ATOM      3  N   UNL     1      -1.464  -3.329   3.488  0.00  0.00    -0.291 N 
ATOM      4  C   UNL     1      -1.448  -4.760   3.172  0.00  0.00    +0.133 C 
ENDROOT
BRANCH   1  10
ATOM      5  C   UNL     1      -1.935  -3.225   0.262  0.00  0.00    -0.003 A 
ATOM      6  C   UNL     1      -1.288  -3.568  -0.947  0.00  0.00    +0.083 A 
ATOM      7  C   UNL     1       0.070  -3.404  -0.741  0.00  0.00    +0.028 A 
ATOM      8  N   UNL     1       0.259  -2.984   0.520  0.00  0.00    -0.354 N 
ATOM      9  H   UNL     1       1.119  -2.791   0.925  0.00  0.00    +0.166 HD
ATOM     10  C   UNL     1      -0.963  -2.864   1.147  0.00  0.00    +0.106 A 
ATOM     11  C   UNL     1       1.153  -3.654  -1.758  0.00  0.00    +0.064 C 
BRANCH   6  12
ATOM     12  C   UNL     1      -1.937  -4.017  -2.190  0.00  0.00    +0.341 C 
ATOM     13  O   UNL     1      -2.277  -3.203  -3.026  0.00  0.00    -0.245 OA
BRANCH  12  14
ATOM     14  O   UNL     1      -2.153  -5.330  -2.401  0.00  0.00    -0.464 OA
ATOM     15  C   UNL     1      -2.787  -5.694  -3.629  0.00  0.00    +0.280 C 
ENDBRANCH  12  14
ENDBRANCH   6  12
BRANCH   5  16
ATOM     16  C   UNL     1      -3.419  -3.248   0.522  0.00  0.00    +0.038 C 
BRANCH  16  18
ATOM     17  C   UNL     1      -5.529  -1.913   0.425  0.00  0.00    +0.004 C 
ATOM     18  C   UNL     1      -4.022  -1.889   0.161  0.00  0.00    +0.001 C 
ENDBRANCH  16  18
ENDBRANCH   5  16
ENDBRANCH   1  10
BRANCH   3  19
ATOM     19  C   UNL     1      -1.789  -2.883   4.845  0.00  0.00    +0.204 C 
BRANCH  19  20
ATOM     20  C   UNL     1      -3.276  -2.667   4.960  0.00  0.00    +0.237 C 
ATOM     21  O   UNL     1      -3.994  -2.867   4.003  0.00  0.00    -0.274 OA
ATOM     22  N   UNL     1      -3.808  -2.252   6.127  0.00  0.00    -0.265 N 
ATOM     23  C   UNL     1      -2.990  -2.012   7.239  0.00  0.00    +0.058 A 
ATOM     24  C   UNL     1      -2.407  -3.063   7.928  0.00  0.00    +0.025 A 
ATOM     25  C   UNL     1      -1.621  -2.808   9.037  0.00  0.00    +0.002 A 
ATOM     26  C   UNL     1      -1.417  -1.507   9.462  0.00  0.00    +0.002 A 
ATOM     27  C   UNL     1      -1.988  -0.452   8.774  0.00  0.00    +0.025 A 
ATOM     28  C   UNL     1      -2.767  -0.699   7.657  0.00  0.00    +0.055 A 
ATOM     29  N   UNL     1      -3.309   0.355   6.912  0.00  0.00    -0.284 N 
ATOM     30  C   UNL     1      -4.611   0.341   6.553  0.00  0.00    +0.219 C 
ATOM     31  O   UNL     1      -5.048   1.218   5.838  0.00  0.00    -0.275 OA
ATOM     32  C   UNL     1      -5.524  -0.756   7.033  0.00  0.00    +0.118 C 
ATOM     33  C   UNL     1      -5.251  -2.039   6.254  0.00  0.00    +0.087 C 
ATOM     34  C   UNL     1      -5.877  -3.222   6.996  0.00  0.00    +0.029 C 
ATOM     35  H   UNL     1      -2.746   1.101   6.653  0.00  0.00    +0.155 HD
ENDBRANCH  19  20
ENDBRANCH   3  19
TORSDOF 7
