REMARK  Name = ZINC19639544
REMARK  11 active torsions:
REMARK  status: ('A' for Active; 'I' for Inactive)
REMARK    1  A    between atoms: C_1  and  C_2
REMARK    2  A    between atoms: C_4  and  C_30
REMARK    3  A    between atoms: C_6  and  O_8
REMARK    4  A    between atoms: O_8  and  C_9
REMARK    5  A    between atoms: C_9  and  C_10
REMARK    6  A    between atoms: C_13  and  C_15
REMARK    7  A    between atoms: N_17  and  N_18
REMARK    8  A    between atoms: N_18  and  C_19
REMARK    9  A    between atoms: C_19  and  N_21
REMARK   10  A    between atoms: N_21  and  C_22
REMARK   11  A    between atoms: C_22  and  C_23
REMARK                            x       y       z     vdW  Elec       q    Type
REMARK                         _______ _______ _______ _____ _____    ______ ____
ROOT
ATOM      1  C   UNL     1       0.547   6.721  -1.577  0.00  0.00    +0.295 C 
ATOM      2  O   UNL     1       0.388   7.833  -1.110  0.00  0.00    -0.265 OA
ATOM      3  N   UNL     1       0.561   6.548  -2.914  0.00  0.00    -0.229 N 
ATOM      4  H   UNL     1       0.704   5.542  -3.337  0.00  0.00    +0.173 HD
ENDROOT
BRANCH   1   8
ATOM      5  C   UNL     1       1.030   3.512   0.011  0.00  0.00    +0.143 A 
ATOM      6  C   UNL     1       0.927   4.285   1.115  0.00  0.00    +0.049 A 
ATOM      7  C   UNL     1       0.731   5.604   0.678  0.00  0.00    +0.055 A 
ATOM      8  C   UNL     1       0.724   5.569  -0.687  0.00  0.00    +0.191 A 
ATOM      9  O   UNL     1       0.913   4.290  -1.072  0.00  0.00    -0.452 OA
BRANCH   5  10
ATOM     10  C   UNL     1       1.248   2.021   0.001  0.00  0.00    +0.303 C 
BRANCH  10  11
ATOM     11  O   UNL     1      -0.016   1.355   0.009  0.00  0.00    -0.484 OA
BRANCH  11  17
ATOM     12  C   UNL     1       2.542  -2.801  -0.036  0.00  0.00    +0.044 C 
ATOM     13  C   UNL     1       1.228  -2.064  -0.020  0.00  0.00    -0.047 A 
ATOM     14  C   UNL     1       0.040  -2.770  -0.013  0.00  0.00    +0.007 A 
ATOM     15  C   UNL     1      -1.168  -2.096   0.002  0.00  0.00    -0.047 A 
ATOM     16  C   UNL     1      -1.189  -0.715   0.010  0.00  0.00    +0.049 A 
ATOM     17  C   UNL     1       0.002  -0.004   0.002  0.00  0.00    +0.122 A 
ATOM     18  C   UNL     1       1.212  -0.682  -0.019  0.00  0.00    +0.049 A 
ATOM     19  C   UNL     1      -2.461  -2.869   0.011  0.00  0.00    +0.044 C 
ENDBRANCH  11  17
ENDBRANCH  10  11
ENDBRANCH   5  10
ENDBRANCH   1   8
BRANCH   3  20
ATOM     20  N   UNL     1       0.392   7.648  -3.765  0.00  0.00    -0.246 N 
ATOM     21  H   UNL     1       0.248   8.653  -3.342  0.00  0.00    +0.172 HD
BRANCH  20  22
ATOM     22  C   UNL     1       0.405   7.474  -5.101  0.00  0.00    +0.147 C 
ATOM     23  S   UNL     1       0.199   8.819  -6.141  0.00  0.00    -0.017 S 
BRANCH  22  24
ATOM     24  N   UNL     1       0.582   6.243  -5.619  0.00  0.00    -0.321 N 
ATOM     25  H   UNL     1       0.714   5.379  -4.951  0.00  0.00    +0.148 HD
BRANCH  24  26
ATOM     26  C   UNL     1       0.596   6.054  -7.072  0.00  0.00    +0.138 C 
BRANCH  26  27
ATOM     27  C   UNL     1       0.808   4.596  -7.387  0.00  0.00    -0.030 A 
ATOM     28  C   UNL     1       2.089   4.102  -7.548  0.00  0.00    +0.006 A 
ATOM     29  C   UNL     1       2.283   2.763  -7.831  0.00  0.00    +0.020 A 
ATOM     30  C   UNL     1       1.195   1.920  -7.965  0.00  0.00    +0.041 A 
ATOM     31  C   UNL     1      -0.087   2.416  -7.810  0.00  0.00    +0.020 A 
ATOM     32  C   UNL     1      -0.280   3.753  -7.521  0.00  0.00    +0.006 A 
ATOM     33 CL   UNL     1       1.438   0.239  -8.328  0.00  0.00    -0.084 Cl
ENDBRANCH  26  27
ENDBRANCH  24  26
ENDBRANCH  22  24
ENDBRANCH  20  22
ENDBRANCH   3  20
TORSDOF 9
