REMARK  Name = ZINC20647490
REMARK  8 active torsions:
REMARK  status: ('A' for Active; 'I' for Inactive)
REMARK    1  A    between atoms: C_1  and  N_2
REMARK    2  A    between atoms: C_4  and  C_11
REMARK    3  A    between atoms: C_18  and  O_32
REMARK    4  A    between atoms: C_19  and  C_22
REMARK    5  A    between atoms: C_22  and  N_23
REMARK    6  A    between atoms: N_26  and  C_29
REMARK    7  A    between atoms: C_29  and  C_30
REMARK    8  A    between atoms: C_30  and  O_31
REMARK                            x       y       z     vdW  Elec       q    Type
REMARK                         _______ _______ _______ _____ _____    ______ ____
ROOT
ATOM      1  C   UNL     1      -2.242   5.668   0.280  0.00  0.00    +0.060 C 
ATOM      2  C   UNL     1      -1.363   4.628   0.237  0.00  0.00    +0.176 C 
ATOM      3  C   UNL     1       0.016   4.721  -0.089  0.00  0.00    +0.231 C 
ATOM      4  O   UNL     1       0.642   5.726  -0.382  0.00  0.00    -0.283 OA
ATOM      5  C   UNL     1       0.527   3.342   0.001  0.00  0.00    +0.068 A 
ATOM      6  C   UNL     1       1.783   2.768  -0.199  0.00  0.00    +0.019 A 
ATOM      7  C   UNL     1       1.950   1.422  -0.035  0.00  0.00    +0.046 A 
ATOM      8  C   UNL     1       0.870   0.621   0.329  0.00  0.00    +0.122 A 
ATOM      9  C   UNL     1      -0.383   1.177   0.530  0.00  0.00    +0.020 A 
ATOM     10  C   UNL     1      -0.568   2.543   0.368  0.00  0.00    +0.144 A 
ATOM     11  O   UNL     1      -1.658   3.331   0.492  0.00  0.00    -0.451 OA
ENDROOT
BRANCH   1  15
ATOM     12  C   UNL     1       0.559   9.784   0.749  0.00  0.00    +0.149 C 
ATOM     13  N   UNL     1      -0.520   8.885   0.330  0.00  0.00    -0.349 N 
ATOM     14  C   UNL     1      -0.634   7.587   0.705  0.00  0.00    +0.094 A 
ATOM     15  C   UNL     1      -1.760   7.039   0.131  0.00  0.00    +0.004 A 
ATOM     16  C   UNL     1      -2.379   8.113  -0.671  0.00  0.00    +0.007 A 
ATOM     17  C   UNL     1      -1.561   9.242  -0.503  0.00  0.00    +0.049 A 
ATOM     18  C   UNL     1      -1.898  10.428  -1.145  0.00  0.00    +0.026 A 
ATOM     19  C   UNL     1      -3.019  10.484  -1.945  0.00  0.00    +0.002 A 
ATOM     20  C   UNL     1      -3.826   9.368  -2.108  0.00  0.00    +0.001 A 
ATOM     21  C   UNL     1      -3.512   8.185  -1.476  0.00  0.00    +0.010 A 
ENDBRANCH   1  15
BRANCH   8  22
ATOM     22  O   UNL     1       1.047  -0.715   0.489  0.00  0.00    -0.506 OA
ATOM     23  H   UNL     1       0.197  -1.352   0.776  0.00  0.00    +0.292 HD
ENDBRANCH   8  22
BRANCH   9  24
ATOM     24  C   UNL     1      -1.543   0.300   0.923  0.00  0.00    -0.035 C 
BRANCH  24  25
ATOM     25  N   UNL     1      -2.223  -0.185  -0.286  0.00  0.00    +0.384 N 
ATOM     26  C   UNL     1      -2.857   0.924  -1.013  0.00  0.00    -0.063 C 
ATOM     27  C   UNL     1      -3.485   0.391  -2.303  0.00  0.00    +0.066 C 
ATOM     28  N   UNL     1      -4.468  -0.650  -1.973  0.00  0.00    -0.304 NA
ATOM     29  C   UNL     1      -3.833  -1.759  -1.246  0.00  0.00    +0.066 C 
ATOM     30  C   UNL     1      -3.206  -1.226   0.044  0.00  0.00    -0.063 C 
ATOM     31  H   UNL     1      -1.463  -0.631  -0.943  0.00  0.00    -0.081 HD
BRANCH  28  32
ATOM     32  C   UNL     1      -5.147  -1.135  -3.182  0.00  0.00    +0.112 C 
BRANCH  32  33
ATOM     33  C   UNL     1      -6.461  -1.815  -2.791  0.00  0.00    +0.171 C 
BRANCH  33  34
ATOM     34  O   UNL     1      -7.331  -0.856  -2.186  0.00  0.00    -0.394 OA
ATOM     35  H   UNL     1      -8.329  -1.162  -1.837  0.00  0.00    +0.209 HD
ENDBRANCH  33  34
ENDBRANCH  32  33
ENDBRANCH  28  32
ENDBRANCH  24  25
ENDBRANCH   9  24
TORSDOF 7
