REMARK  Name = ZINC09597340
REMARK  9 active torsions:
REMARK  status: ('A' for Active; 'I' for Inactive)
REMARK    1  A    between atoms: C_1  and  C_2
REMARK    2  A    between atoms: C_2  and  C_3
REMARK    3  A    between atoms: C_6  and  C_9
REMARK    4  A    between atoms: C_14  and  C_26
REMARK    5  A    between atoms: C_20  and  C_24
REMARK    6  A    between atoms: C_20  and  C_25
REMARK    7  A    between atoms: C_29  and  N_32
REMARK    8  A    between atoms: N_32  and  C_33
REMARK    9  A    between atoms: N_32  and  C_34
REMARK                            x       y       z     vdW  Elec       q    Type
REMARK                         _______ _______ _______ _____ _____    ______ ____
ROOT
ATOM      1  C   UNL     1      -5.420  -2.027   0.029  0.00  0.00    +0.072 A 
ATOM      2  N   UNL     1      -5.896  -3.096   0.733  0.00  0.00    -0.275 N 
ATOM      3  N   UNL     1      -7.262  -3.224   0.455  0.00  0.00    -0.153 NA
ATOM      4  C   UNL     1      -7.614  -2.268  -0.388  0.00  0.00    +0.179 A 
ATOM      5  C   UNL     1      -6.462  -1.500  -0.661  0.00  0.00    +0.036 A 
ATOM      6  C   UNL     1      -6.600  -0.327  -1.606  0.00  0.00    +0.090 C 
ATOM      7  C   UNL     1      -7.990  -0.089  -2.168  0.00  0.00    +0.028 C 
ATOM      8  C   UNL     1      -9.026  -0.966  -1.775  0.00  0.00    +0.052 C 
ATOM      9  N   UNL     1      -8.810  -1.958  -0.960  0.00  0.00    -0.231 NA
ATOM     10  C   UNL     1     -10.422  -0.759  -2.317  0.00  0.00    +0.062 C 
ATOM     11  C   UNL     1     -10.634   0.729  -2.605  0.00  0.00    -0.023 C 
ATOM     12  C   UNL     1      -9.561   1.200  -3.591  0.00  0.00    +0.086 C 
ATOM     13  C   UNL     1      -8.199   0.929  -3.010  0.00  0.00    +0.162 C 
ATOM     14  O   UNL     1      -7.167   1.732  -3.345  0.00  0.00    -0.292 OA
ATOM     15  C   UNL     1     -12.021   0.941  -3.216  0.00  0.00    +0.011 C 
ATOM     16  C   UNL     1     -10.518   1.524  -1.303  0.00  0.00    +0.011 C 
ATOM     17  H   UNL     1      -5.378  -3.668   1.321  0.00  0.00    +0.189 HD
ENDROOT
BRANCH   1  21
ATOM     18  C   UNL     1      -1.419  -0.600   0.020  0.00  0.00    -0.048 A 
ATOM     19  C   UNL     1      -1.668  -1.951  -0.141  0.00  0.00    +0.004 A 
ATOM     20  C   UNL     1      -2.966  -2.420  -0.139  0.00  0.00    +0.010 A 
ATOM     21  C   UNL     1      -4.027  -1.530   0.027  0.00  0.00    +0.000 A 
ATOM     22  C   UNL     1      -3.768  -0.169   0.189  0.00  0.00    +0.010 A 
ATOM     23  C   UNL     1      -2.466   0.288   0.191  0.00  0.00    +0.004 A 
BRANCH  18  25
ATOM     24  C   UNL     1       0.553  -0.112   1.443  0.00  0.00    +0.009 C 
ATOM     25  C   UNL     1       0.001  -0.093   0.016  0.00  0.00    +0.032 C 
ENDBRANCH  18  25
ENDBRANCH   1  21
BRANCH   6  26
ATOM     26  C   UNL     1      -5.659  -0.541  -2.763  0.00  0.00    -0.035 A 
ATOM     27  C   UNL     1      -5.849  -1.609  -3.620  0.00  0.00    +0.006 A 
ATOM     28  C   UNL     1      -4.988  -1.807  -4.681  0.00  0.00    +0.023 A 
ATOM     29  C   UNL     1      -3.929  -0.932  -4.887  0.00  0.00    +0.029 A 
ATOM     30  C   UNL     1      -3.740   0.140  -4.024  0.00  0.00    +0.023 A 
ATOM     31  C   UNL     1      -4.609   0.336  -2.968  0.00  0.00    +0.006 A 
BRANCH  29  32
ATOM     32  N   UNL     1      -3.056  -1.131  -5.959  0.00  0.00    -0.336 N 
ATOM     33  C   UNL     1      -3.257  -2.262  -6.867  0.00  0.00    +0.129 C 
ATOM     34  C   UNL     1      -1.940  -0.207  -6.175  0.00  0.00    +0.129 C 
ENDBRANCH  29  32
ENDBRANCH   6  26
TORSDOF 4
