REMARK  Name = ZINC06282085
REMARK  8 active torsions:
REMARK  status: ('A' for Active; 'I' for Inactive)
REMARK    1  A    between atoms: C_1  and  C_2
REMARK    2  A    between atoms: C_7  and  C_14
REMARK    3  A    between atoms: C_14  and  C_16
REMARK    4  A    between atoms: C_14  and  N_73
REMARK    5  A    between atoms: N_20  and  C_21
REMARK    6  A    between atoms: N_29  and  C_32
REMARK    7  A    between atoms: C_35  and  O_38
REMARK    8  A    between atoms: O_38  and  C_39
REMARK                            x       y       z     vdW  Elec       q    Type
REMARK                         _______ _______ _______ _____ _____    ______ ____
ROOT
ATOM      1  C   UNL     1       3.501   2.017   1.237  0.00  0.00    +0.039 C 
ENDROOT
BRANCH   1   8
ATOM      2  C   UNL     1       3.779   9.953   0.495  0.00  0.00    +0.044 C 
ATOM      3  C   UNL     1       3.869   8.450   0.451  0.00  0.00    -0.048 A 
ATOM      4  C   UNL     1       4.645   7.837  -0.524  0.00  0.00    +0.004 A 
ATOM      5  C   UNL     1       4.740   6.476  -0.582  0.00  0.00    +0.010 A 
ATOM      6  C   UNL     1       4.051   5.692   0.349  0.00  0.00    -0.001 A 
ATOM      7  C   UNL     1       4.135   4.230   0.319  0.00  0.00    +0.017 A 
ATOM      8  C   UNL     1       3.440   3.522   1.243  0.00  0.00    +0.011 A 
ATOM      9  C   UNL     1       2.665   4.191   2.215  0.00  0.00    +0.251 A 
ATOM     10  O   UNL     1       2.051   3.535   3.039  0.00  0.00    -0.268 OA
ATOM     11  N   UNL     1       2.586   5.532   2.254  0.00  0.00    -0.322 N 
ATOM     12  H   UNL     1       2.044   5.960   2.935  0.00  0.00    +0.169 HD
ATOM     13  C   UNL     1       3.264   6.309   1.339  0.00  0.00    +0.049 A 
ATOM     14  C   UNL     1       3.181   7.697   1.378  0.00  0.00    +0.029 A 
ENDBRANCH   1   8
BRANCH   1  20
ATOM     15  C   UNL     1       1.419   1.992  -0.001  0.00  0.00    -0.058 C 
ATOM     16  C   UNL     1      -0.018   1.465   0.010  0.00  0.00    +0.086 C 
ATOM     17  N   UNL     1       0.002  -0.004   0.002  0.00  0.00    -0.333 N 
ATOM     18  C   UNL     1       0.721  -0.525   1.173  0.00  0.00    +0.086 C 
ATOM     19  C   UNL     1       2.158   0.003   1.162  0.00  0.00    -0.058 C 
ATOM     20  N   UNL     1       2.123   1.480   1.193  0.00  0.00    +0.391 N 
ATOM     21  H   UNL     1       1.620   1.785   2.034  0.00  0.00    -0.080 HD
BRANCH  17  22
ATOM     22  C   UNL     1      -1.296  -0.523  -0.061  0.00  0.00    +0.030 A 
ATOM     23  C   UNL     1      -2.386   0.336  -0.100  0.00  0.00    +0.027 A 
ATOM     24  C   UNL     1      -3.667  -0.177  -0.168  0.00  0.00    +0.047 A 
ATOM     25  C   UNL     1      -3.865  -1.549  -0.185  0.00  0.00    +0.120 A 
ATOM     26  C   UNL     1      -2.776  -2.408  -0.141  0.00  0.00    +0.047 A 
ATOM     27  C   UNL     1      -1.495  -1.897  -0.079  0.00  0.00    +0.027 A 
BRANCH  25  28
ATOM     28  O   UNL     1      -5.126  -2.054  -0.246  0.00  0.00    -0.495 OA
ATOM     29  C   UNL     1      -6.200  -1.112  -0.290  0.00  0.00    +0.277 C 
ENDBRANCH  25  28
ENDBRANCH  17  22
ENDBRANCH   1  20
BRANCH   1  30
ATOM     30  C   UNL     1       4.173   1.535   2.497  0.00  0.00    +0.143 A 
ATOM     31  N   UNL     1       3.652   1.505   3.699  0.00  0.00    -0.115 NA
ATOM     32  N   UNL     1       4.538   1.029   4.504  0.00  0.00    -0.023 NA
ATOM     33  N   UNL     1       5.611   0.755   3.847  0.00  0.00    -0.044 NA
ATOM     34  N   UNL     1       5.423   1.048   2.604  0.00  0.00    -0.227 N 
BRANCH  34  35
ATOM     35  C   UNL     1       6.391   0.886   1.516  0.00  0.00    +0.111 C 
ATOM     36  C   UNL     1       6.777  -0.589   1.394  0.00  0.00    +0.027 C 
ATOM     37  C   UNL     1       7.788  -0.759   0.258  0.00  0.00    +0.002 C 
ATOM     38  C   UNL     1       9.037   0.072   0.557  0.00  0.00    +0.000 C 
ATOM     39  C   UNL     1       8.650   1.548   0.679  0.00  0.00    +0.002 C 
ATOM     40  C   UNL     1       7.640   1.717   1.816  0.00  0.00    +0.027 C 
ENDBRANCH  34  35
ENDBRANCH   1  30
TORSDOF 6
