REMARK  Name = ZINC32673856
REMARK  6 active torsions:
REMARK  status: ('A' for Active; 'I' for Inactive)
REMARK    1  A    between atoms: C_1  and  C_2
REMARK    2  A    between atoms: C_2  and  C_3
REMARK    3  A    between atoms: C_2  and  C_4
REMARK    4  A    between atoms: N_6  and  N_7
REMARK    5  A    between atoms: C_8  and  C_10
REMARK    6  A    between atoms: C_13  and  C_15
REMARK                            x       y       z     vdW  Elec       q    Type
REMARK                         _______ _______ _______ _____ _____    ______ ____
ROOT
ATOM      1  C   UNL     1      -2.464   0.873   0.154  0.00  0.00    +0.148 A 
ATOM      2  C   UNL     1      -3.694   1.399  -0.104  0.00  0.00    +0.051 A 
ATOM      3  N   UNL     1      -4.564   0.366  -0.183  0.00  0.00    -0.327 N 
ATOM      4  C   UNL     1      -3.855  -0.783   0.020  0.00  0.00    +0.142 A 
ATOM      5  N   UNL     1      -2.598  -0.469   0.226  0.00  0.00    -0.223 NA
ATOM      6  C   UNL     1      -6.005   0.473  -0.426  0.00  0.00    +0.123 C 
ATOM      7  C   UNL     1      -6.254   1.405  -1.615  0.00  0.00    +0.022 C 
ATOM      8  C   UNL     1      -6.393   2.844  -1.122  0.00  0.00    +0.002 C 
ATOM      9  C   UNL     1      -5.496   3.082   0.090  0.00  0.00    +0.006 C 
ATOM     10  C   UNL     1      -4.034   2.853  -0.302  0.00  0.00    +0.056 C 
ENDROOT
BRANCH   4  11
ATOM     11  C   UNL     1      -4.412  -2.154   0.012  0.00  0.00    +0.017 A 
ATOM     12  C   UNL     1      -5.720  -2.381   0.440  0.00  0.00    +0.011 A 
ATOM     13  C   UNL     1      -6.235  -3.661   0.424  0.00  0.00    +0.001 A 
ATOM     14  C   UNL     1      -5.454  -4.719  -0.003  0.00  0.00    +0.000 A 
ATOM     15  C   UNL     1      -4.154  -4.501  -0.423  0.00  0.00    +0.001 A 
ATOM     16  C   UNL     1      -3.628  -3.225  -0.418  0.00  0.00    +0.011 A 
ENDBRANCH   4  11
BRANCH   1  18
ATOM     17  N   UNL     1      -0.061   0.983   0.589  0.00  0.00    -0.229 N 
ATOM     18  C   UNL     1      -1.213   1.632   0.330  0.00  0.00    +0.280 C 
ATOM     19  O   UNL     1      -1.221   2.845   0.242  0.00  0.00    -0.267 OA
ATOM     20  H   UNL     1      -0.055  -0.114   0.672  0.00  0.00    +0.173 HD
BRANCH  17  23
ATOM     21  C   UNL     1       2.282   1.054   1.003  0.00  0.00    +0.232 C 
ATOM     22  O   UNL     1       2.290  -0.156   1.091  0.00  0.00    -0.274 OA
ATOM     23  N   UNL     1       1.129   1.704   0.750  0.00  0.00    -0.234 N 
ATOM     24  H   UNL     1       1.122   2.801   0.671  0.00  0.00    +0.173 HD
BRANCH  21  26
ATOM     25  C   UNL     1       3.417   2.796   2.354  0.00  0.00    +0.017 C 
ATOM     26  C   UNL     1       3.562   1.830   1.177  0.00  0.00    +0.070 C 
ATOM     27  C   UNL     1       4.713   0.860   1.452  0.00  0.00    +0.017 C 
ENDBRANCH  21  26
ENDBRANCH  17  23
ENDBRANCH   1  18
TORSDOF 4
