REMARK  Name = ZINC09764651
REMARK  4 active torsions:
REMARK  status: ('A' for Active; 'I' for Inactive)
REMARK    1  A    between atoms: C_3  and  N_15
REMARK    2  A    between atoms: C_5  and  S_7
REMARK    3  A    between atoms: S_7  and  N_10
REMARK    4  A    between atoms: C_16  and  C_18
REMARK                            x       y       z     vdW  Elec       q    Type
REMARK                         _______ _______ _______ _____ _____    ______ ____
ROOT
ATOM      1  C   UNL     1       2.599   2.433  -3.844  0.00  0.00    +0.004 A 
ATOM      2  C   UNL     1       3.468   1.364  -3.953  0.00  0.00    +0.023 A 
ATOM      3  C   UNL     1       3.709   0.552  -2.853  0.00  0.00    +0.036 A 
ATOM      4  C   UNL     1       3.080   0.821  -1.644  0.00  0.00    +0.052 A 
ATOM      5  C   UNL     1       2.210   1.888  -1.542  0.00  0.00    +0.110 A 
ATOM      6  C   UNL     1       1.972   2.695  -2.640  0.00  0.00    +0.029 A 
ENDROOT
BRANCH   3   7
ATOM      7  N   UNL     1       4.588  -0.530  -2.960  0.00  0.00    -0.281 N 
ATOM      8  C   UNL     1       4.656  -1.232  -4.109  0.00  0.00    +0.248 C 
ATOM      9  O   UNL     1       4.017  -0.872  -5.080  0.00  0.00    -0.270 OA
ATOM     10  H   UNL     1       5.148  -0.777  -2.208  0.00  0.00    +0.155 HD
BRANCH   8  11
ATOM     11  C   UNL     1       5.507  -2.435  -4.190  0.00  0.00    +0.042 A 
ATOM     12  C   UNL     1       5.579  -3.163  -5.382  0.00  0.00    +0.062 A 
ATOM     13  C   UNL     1       6.376  -4.287  -5.448  0.00  0.00    +0.164 A 
ATOM     14  C   UNL     1       7.105  -4.694  -4.336  0.00  0.00    +0.180 A 
ATOM     15  C   UNL     1       7.037  -3.974  -3.151  0.00  0.00    +0.087 A 
ATOM     16  C   UNL     1       6.246  -2.845  -3.078  0.00  0.00    +0.037 A 
ATOM     17 CL   UNL     1       7.950  -4.487  -1.767  0.00  0.00    -0.080 Cl
ATOM     18  O   UNL     1       7.889  -5.807  -4.416  0.00  0.00    -0.487 OA
ATOM     19  C   UNL     1       9.036  -5.705  -5.262  0.00  0.00    +0.232 C 
ATOM     20  C   UNL     1       8.668  -6.000  -6.707  0.00  0.00    +0.082 C 
ATOM     21  C   UNL     1       7.711  -4.968  -7.283  0.00  0.00    +0.232 C 
ATOM     22  O   UNL     1       6.454  -5.008  -6.605  0.00  0.00    -0.488 OA
ENDBRANCH   8  11
ENDBRANCH   3   7
BRANCH   5  23
ATOM     23  S   UNL     1       1.408   2.227  -0.010  0.00  0.00    +0.073 S 
ATOM     24  O   UNL     1       1.068   3.607  -0.026  0.00  0.00    -0.150 OA
ATOM     25  O   UNL     1       2.217   1.654   1.007  0.00  0.00    -0.150 OA
BRANCH  23  26
ATOM     26  N   UNL     1      -0.020   1.387  -0.009  0.00  0.00    -0.205 N 
ATOM     27  C   UNL     1      -0.009   0.018  -0.018  0.00  0.00    +0.088 C 
ATOM     28  C   UNL     1       0.760  -2.140  -0.034  0.00  0.00    +0.114 C 
ATOM     29  C   UNL     1      -0.727  -2.243  -0.446  0.00  0.00    +0.028 C 
ATOM     30  C   UNL     1      -1.248  -0.849  -0.012  0.00  0.00    +0.072 C 
ATOM     31  H   UNL     1      -0.864   1.866  -0.006  0.00  0.00    +0.175 HD
ATOM     32  N   UNL     1       1.075  -0.695  -0.028  0.00  0.00    -0.375 N 
ATOM     33  H   UNL     1       2.026  -0.308  -0.032  0.00  0.00    +0.161 HD
ENDBRANCH  23  26
ENDBRANCH   5  23
TORSDOF 4
