REMARK  Name = ZINC44908082
REMARK  7 active torsions:
REMARK  status: ('A' for Active; 'I' for Inactive)
REMARK    1  A    between atoms: C_1  and  N_2
REMARK    2  A    between atoms: C_3  and  C_5
REMARK    3  A    between atoms: C_5  and  C_6
REMARK    4  A    between atoms: C_9  and  N_12
REMARK    5  A    between atoms: N_12  and  C_13
REMARK    6  A    between atoms: C_13  and  C_14
REMARK    7  A    between atoms: N_16  and  C_17
REMARK                            x       y       z     vdW  Elec       q    Type
REMARK                         _______ _______ _______ _____ _____    ______ ____
ROOT
ATOM      1  N   UNL     1      -6.455  -4.164   0.041  0.00  0.00    -0.335 N 
ATOM      2  H   UNL     1      -6.904  -4.333   0.885  0.00  0.00    +0.147 HD
ENDROOT
BRANCH   1   6
ATOM      3  C   UNL     1      -2.549  -2.722   0.012  0.00  0.00    -0.039 A 
ATOM      4  C   UNL     1      -3.187  -2.962   1.215  0.00  0.00    +0.006 A 
ATOM      5  C   UNL     1      -4.482  -3.440   1.229  0.00  0.00    +0.023 A 
ATOM      6  C   UNL     1      -5.145  -3.680   0.031  0.00  0.00    +0.028 A 
ATOM      7  C   UNL     1      -4.502  -3.438  -1.176  0.00  0.00    +0.023 A 
ATOM      8  C   UNL     1      -3.208  -2.955  -1.182  0.00  0.00    +0.006 A 
BRANCH   3   9
ATOM      9  C   UNL     1      -1.135  -2.201   0.001  0.00  0.00    +0.130 C 
BRANCH   9  12
ATOM     10  C   UNL     1      -0.018   1.461   0.010  0.00  0.00    +0.128 C 
ATOM     11  N   UNL     1       0.002  -0.004   0.002  0.00  0.00    -0.318 N 
ATOM     12  C   UNL     1      -1.156  -0.694   0.009  0.00  0.00    +0.217 C 
ATOM     13  O   UNL     1      -2.214  -0.102   0.023  0.00  0.00    -0.275 OA
ATOM     14  H   UNL     1       0.849  -0.478  -0.009  0.00  0.00    +0.148 HD
ENDBRANCH   9  12
ENDBRANCH   3   9
ENDBRANCH   1   6
BRANCH   1  15
ATOM     15  C   UNL     1      -7.152  -4.416  -1.222  0.00  0.00    +0.197 C 
BRANCH  15  16
ATOM     16  C   UNL     1      -8.540  -4.930  -0.936  0.00  0.00    +0.230 C 
ATOM     17  O   UNL     1      -8.910  -5.071   0.210  0.00  0.00    -0.274 OA
ATOM     18  N   UNL     1      -9.370  -5.232  -1.954  0.00  0.00    -0.311 N 
ATOM     19  H   UNL     1      -9.074  -5.119  -2.871  0.00  0.00    +0.149 HD
BRANCH  18  20
ATOM     20  C   UNL     1     -10.719  -5.731  -1.677  0.00  0.00    +0.073 C 
ATOM     21  C   UNL     1     -11.664  -4.549  -1.451  0.00  0.00    +0.022 C 
ATOM     22  C   UNL     1     -13.072  -5.071  -1.161  0.00  0.00    +0.002 C 
ATOM     23  C   UNL     1     -13.565  -5.898  -2.350  0.00  0.00    +0.000 C 
ATOM     24  C   UNL     1     -12.620  -7.080  -2.575  0.00  0.00    +0.002 C 
ATOM     25  C   UNL     1     -11.212  -6.559  -2.866  0.00  0.00    +0.022 C 
ENDBRANCH  18  20
ENDBRANCH  15  16
ENDBRANCH   1  15
TORSDOF 6
