REMARK  Name = ZINC38550599
REMARK  5 active torsions:
REMARK  status: ('A' for Active; 'I' for Inactive)
REMARK    1  A    between atoms: C_4  and  C_7
REMARK    2  A    between atoms: C_7  and  C_9
REMARK    3  A    between atoms: C_7  and  N_26
REMARK    4  A    between atoms: C_13  and  N_14
REMARK    5  A    between atoms: C_15  and  C_17
REMARK                            x       y       z     vdW  Elec       q    Type
REMARK                         _______ _______ _______ _____ _____    ______ ____
ROOT
ATOM      1  C   UNL     1       3.795  -1.057   1.342  0.00  0.00    +0.009 A 
ATOM      2  C   UNL     1       4.659  -0.392   2.212  0.00  0.00    -0.030 A 
ATOM      3  C   UNL     1       4.727  -0.868   3.485  0.00  0.00    -0.005 A 
ATOM      4  S   UNL     1       3.599  -2.235   3.489  0.00  0.00    -0.078 S 
ATOM      5  C   UNL     1       3.072  -2.119   1.786  0.00  0.00    +0.078 A 
ATOM      6  C   UNL     1       5.565  -0.348   4.608  0.00  0.00    +0.043 C 
ATOM      7  C   UNL     1       6.629   0.592   4.022  0.00  0.00    +0.005 C 
ATOM      8  C   UNL     1       5.947   1.560   3.051  0.00  0.00    +0.005 C 
ATOM      9  C   UNL     1       5.499   0.811   1.795  0.00  0.00    +0.036 C 
ENDROOT
BRANCH   5  10
ATOM     10  N   UNL     1       2.158  -2.914   1.092  0.00  0.00    -0.273 N 
ATOM     11  C   UNL     1       1.582  -3.969   1.702  0.00  0.00    +0.284 C 
ATOM     12  O   UNL     1       1.860  -4.229   2.858  0.00  0.00    -0.266 OA
ATOM     13  H   UNL     1       1.937  -2.707   0.170  0.00  0.00    +0.156 HD
BRANCH  11  14
ATOM     14  C   UNL     1       0.622  -4.803   0.973  0.00  0.00    +0.189 A 
ATOM     15  C   UNL     1      -0.035  -5.893   1.470  0.00  0.00    +0.054 A 
ATOM     16  C   UNL     1      -0.848  -6.380   0.435  0.00  0.00    +0.042 A 
ATOM     17  C   UNL     1      -0.655  -5.578  -0.635  0.00  0.00    +0.196 A 
ATOM     18  O   UNL     1       0.228  -4.626  -0.306  0.00  0.00    -0.458 OA
ENDBRANCH  11  14
ENDBRANCH   5  10
BRANCH   1  19
ATOM     19  C   UNL     1       3.660  -0.596  -0.086  0.00  0.00    +0.135 C 
BRANCH  19  20
ATOM     20  N   UNL     1       3.659  -1.758  -0.978  0.00  0.00    -0.320 N 
ATOM     21  C   UNL     1       3.941  -1.598  -2.329  0.00  0.00    +0.097 A 
ATOM     22  C   UNL     1       4.229  -0.332  -2.828  0.00  0.00    +0.041 A 
ATOM     23  C   UNL     1       4.508  -0.187  -4.175  0.00  0.00    +0.005 A 
ATOM     24  C   UNL     1       4.489  -1.318  -4.981  0.00  0.00    +0.018 A 
ATOM     25  C   UNL     1       4.195  -2.544  -4.419  0.00  0.00    +0.084 A 
ATOM     26  N   UNL     1       3.938  -2.653  -3.129  0.00  0.00    -0.350 N 
ATOM     27  H   UNL     1       3.461  -2.640  -0.624  0.00  0.00    +0.148 HD
ATOM     28  H   UNL     1       3.738  -3.527  -2.759  0.00  0.00    +0.166 HD
ENDBRANCH  19  20
BRANCH  19  32
ATOM     29  C   UNL     1      -0.003   1.554  -0.548  0.00  0.00    +0.000 A 
ATOM     30  C   UNL     1       1.143   2.218  -0.150  0.00  0.00    +0.000 A 
ATOM     31  C   UNL     1       2.328   1.522  -0.000  0.00  0.00    +0.006 A 
ATOM     32  C   UNL     1       2.367   0.163  -0.248  0.00  0.00    -0.023 A 
ATOM     33  C   UNL     1       1.222  -0.501  -0.646  0.00  0.00    +0.006 A 
ATOM     34  C   UNL     1       0.037   0.195  -0.797  0.00  0.00    +0.000 A 
ENDBRANCH  19  32
ENDBRANCH   1  19
TORSDOF 5
