REMARK  Name = ZINC20205517
REMARK  13 active torsions:
REMARK  status: ('A' for Active; 'I' for Inactive)
REMARK    1  A    between atoms: C_1  and  C_2
REMARK    2  A    between atoms: C_7  and  O_8
REMARK    3  A    between atoms: O_8  and  C_9
REMARK    4  A    between atoms: C_9  and  C_10
REMARK    5  A    between atoms: C_10  and  O_11
REMARK    6  A    between atoms: O_11  and  C_12
REMARK    7  A    between atoms: C_13  and  O_34
REMARK    8  A    between atoms: C_15  and  C_20
REMARK    9  A    between atoms: C_17  and  O_18
REMARK   10  A    between atoms: O_18  and  C_19
REMARK   11  A    between atoms: C_31  and  S_32
REMARK   12  A    between atoms: S_32  and  C_33
REMARK   13  A    between atoms: O_34  and  C_35
REMARK                            x       y       z     vdW  Elec       q    Type
REMARK                         _______ _______ _______ _____ _____    ______ ____
ROOT
ATOM      1  C   UNL     1      -0.871   1.250   6.444  0.00  0.00    +0.204 A 
ATOM      2  C   UNL     1      -1.375   0.966   7.712  0.00  0.00    +0.166 A 
ATOM      3  C   UNL     1      -1.696   1.994   8.576  0.00  0.00    +0.057 A 
ATOM      4  C   UNL     1      -1.515   3.326   8.176  0.00  0.00    -0.017 A 
ATOM      5  C   UNL     1      -1.007   3.607   6.899  0.00  0.00    +0.057 A 
ATOM      6  C   UNL     1      -0.684   2.572   6.044  0.00  0.00    +0.166 A 
ENDROOT
BRANCH   4   7
ATOM      7  C   UNL     1      -1.854   4.420   9.088  0.00  0.00    +0.024 C 
ATOM      8  C   UNL     1      -2.951   4.313   9.913  0.00  0.00    +0.079 C 
ATOM      9  C   UNL     1      -3.233   5.314  10.983  0.00  0.00    +0.137 C 
ATOM     10  N   UNL     1      -2.930   6.580  10.881  0.00  0.00    -0.284 NA
ATOM     11  N   UNL     1      -3.860   4.755  12.114  0.00  0.00    -0.211 N 
ATOM     12  C   UNL     1      -4.565   3.578  11.960  0.00  0.00    +0.183 C 
ATOM     13  N   UNL     1      -4.638   2.846  10.870  0.00  0.00    -0.152 NA
ATOM     14  C   UNL     1      -3.923   3.199   9.784  0.00  0.00    +0.273 C 
ATOM     15  O   UNL     1      -4.067   2.616   8.721  0.00  0.00    -0.268 OA
ATOM     16  S   UNL     1      -5.246   3.337  13.462  0.00  0.00    +0.048 S 
ATOM     17  N   UNL     1      -4.566   4.631  14.283  0.00  0.00    -0.185 NA
ATOM     18  C   UNL     1      -3.863   5.253  13.377  0.00  0.00    +0.175 C 
ATOM     19  H   UNL     1      -2.498   6.912  10.078  0.00  0.00    +0.188 HD
BRANCH  18  20
ATOM     20  S   UNL     1      -2.941   6.699  13.781  0.00  0.00    -0.093 S 
ATOM     21  C   UNL     1      -3.267   6.947  15.548  0.00  0.00    +0.093 C 
ENDBRANCH  18  20
ENDBRANCH   4   7
BRANCH   6  22
ATOM     22  O   UNL     1      -0.187   2.843   4.808  0.00  0.00    -0.491 OA
ATOM     23  C   UNL     1      -0.020   4.220   4.463  0.00  0.00    +0.277 C 
ENDBRANCH   6  22
BRANCH   2  24
ATOM     24  O   UNL     1      -1.552  -0.326   8.099  0.00  0.00    -0.491 OA
ATOM     25  C   UNL     1      -2.072  -0.544   9.412  0.00  0.00    +0.277 C 
ENDBRANCH   2  24
BRANCH   1  26
ATOM     26  O   UNL     1      -0.556   0.235   5.598  0.00  0.00    -0.482 OA
BRANCH  26  27
ATOM     27  C   UNL     1       0.777  -0.275   5.664  0.00  0.00    +0.270 C 
BRANCH  27  28
ATOM     28  C   UNL     1       0.942  -1.404   4.645  0.00  0.00    +0.270 C 
BRANCH  28  29
ATOM     29  O   UNL     1       0.804  -0.877   3.324  0.00  0.00    -0.488 OA
BRANCH  29  36
ATOM     30  C   UNL     1       0.534   0.143   0.704  0.00  0.00    +0.047 C 
ATOM     31  C   UNL     1       0.802  -1.313   0.985  0.00  0.00    -0.009 A 
ATOM     32  C   UNL     1       0.931  -2.207  -0.060  0.00  0.00    +0.007 A 
ATOM     33  C   UNL     1       1.176  -3.542   0.197  0.00  0.00    +0.000 A 
ATOM     34  C   UNL     1       1.294  -3.988   1.501  0.00  0.00    +0.004 A 
ATOM     35  C   UNL     1       1.166  -3.098   2.550  0.00  0.00    +0.046 A 
ATOM     36  C   UNL     1       0.925  -1.756   2.294  0.00  0.00    +0.124 A 
ENDBRANCH  29  36
ENDBRANCH  28  29
ENDBRANCH  27  28
ENDBRANCH  26  27
ENDBRANCH   1  26
TORSDOF 9
