REMARK  Name = ZINC32977738
REMARK  5 active torsions:
REMARK  status: ('A' for Active; 'I' for Inactive)
REMARK    1  A    between atoms: C_1  and  C_2
REMARK    2  A    between atoms: C_2  and  C_3
REMARK    3  A    between atoms: N_6  and  C_8
REMARK    4  A    between atoms: C_19  and  C_27
REMARK    5  A    between atoms: N_25  and  C_26
REMARK                            x       y       z     vdW  Elec       q    Type
REMARK                         _______ _______ _______ _____ _____    ______ ____
ROOT
ATOM      1  C   UNL     1      -4.063   5.426   0.514  0.00  0.00    +0.070 A 
ATOM      2  C   UNL     1      -4.611   4.448  -0.311  0.00  0.00    +0.036 A 
ATOM      3  C   UNL     1      -3.637   3.522  -0.552  0.00  0.00    +0.146 A 
ATOM      4  N   UNL     1      -2.510   3.925   0.063  0.00  0.00    -0.215 N 
ATOM      5  N   UNL     1      -2.809   5.116   0.747  0.00  0.00    -0.169 NA
ATOM      6  N   UNL     1      -3.925   2.367  -1.289  0.00  0.00    -0.303 N 
ATOM      7  C   UNL     1      -3.231   1.761  -2.280  0.00  0.00    +0.093 A 
ATOM      8  C   UNL     1      -3.976   0.730  -2.739  0.00  0.00    +0.020 A 
ATOM      9  C   UNL     1      -5.165   0.692  -1.976  0.00  0.00    +0.025 A 
ATOM     10  C   UNL     1      -5.094   1.681  -1.072  0.00  0.00    +0.050 A 
ATOM     11  C   UNL     1      -6.066   2.036   0.016  0.00  0.00    +0.155 C 
ATOM     12  N   UNL     1      -6.787   3.295  -0.286  0.00  0.00    -0.269 N 
ATOM     13  C   UNL     1      -5.985   4.374  -0.907  0.00  0.00    +0.151 C 
ATOM     14  C   UNL     1      -8.098   3.449  -0.010  0.00  0.00    +0.303 C 
ATOM     15  O   UNL     1      -8.723   2.539   0.500  0.00  0.00    -0.253 OA
ATOM     16  N   UNL     1      -8.715   4.611  -0.300  0.00  0.00    -0.302 N 
ATOM     17  C   UNL     1     -10.139   4.779  -0.001  0.00  0.00    +0.129 C 
ATOM     18  H   UNL     1      -8.150   5.434  -0.762  0.00  0.00    +0.150 HD
ENDROOT
BRANCH  11  19
ATOM     19  C   UNL     1      -5.314   2.197   1.312  0.00  0.00    -0.021 A 
ATOM     20  C   UNL     1      -4.162   1.468   1.537  0.00  0.00    +0.008 A 
ATOM     21  C   UNL     1      -3.469   1.620   2.723  0.00  0.00    +0.038 A 
ATOM     22  C   UNL     1      -3.935   2.494   3.690  0.00  0.00    +0.123 A 
ATOM     23  C   UNL     1      -5.092   3.220   3.465  0.00  0.00    +0.038 A 
ATOM     24  C   UNL     1      -5.781   3.071   2.276  0.00  0.00    +0.008 A 
ATOM     25  F   UNL     1      -3.261   2.639   4.852  0.00  0.00    -0.205 F 
ENDBRANCH  11  19
BRANCH   4  26
ATOM     26  C   UNL     1      -1.270   3.275   0.033  0.00  0.00    +0.068 A 
ATOM     27  C   UNL     1      -1.212   1.888  -0.004  0.00  0.00    +0.028 A 
ATOM     28  C   UNL     1       0.012   1.249  -0.028  0.00  0.00    +0.002 A 
ATOM     29  C   UNL     1       1.180   1.990  -0.028  0.00  0.00    +0.000 A 
ATOM     30  C   UNL     1       1.126   3.371   0.002  0.00  0.00    +0.002 A 
ATOM     31  C   UNL     1      -0.095   4.015   0.033  0.00  0.00    +0.028 A 
ENDBRANCH   4  26
BRANCH   1  33
ATOM     32  C   UNL     1      -5.431   6.282   2.397  0.00  0.00    +0.010 C 
ATOM     33  C   UNL     1      -4.788   6.632   1.054  0.00  0.00    +0.054 C 
ENDBRANCH   1  33
TORSDOF 3
