REMARK  Name = ZINC20155076
REMARK  12 active torsions:
REMARK  status: ('A' for Active; 'I' for Inactive)
REMARK    1  A    between atoms: C_1  and  O_2
REMARK    2  A    between atoms: O_2  and  C_3
REMARK    3  A    between atoms: C_6  and  N_11
REMARK    4  A    between atoms: C_7  and  O_9
REMARK    5  A    between atoms: O_9  and  C_10
REMARK    6  A    between atoms: C_12  and  C_14
REMARK    7  A    between atoms: C_16  and  N_32
REMARK    8  A    between atoms: C_19  and  N_20
REMARK    9  A    between atoms: C_21  and  C_23
REMARK   10  A    between atoms: C_23  and  N_24
REMARK   11  A    between atoms: N_24  and  C_25
REMARK   12  A    between atoms: C_25  and  C_26
REMARK                            x       y       z     vdW  Elec       q    Type
REMARK                         _______ _______ _______ _____ _____    ______ ____
ROOT
ATOM      1  C   UNL     1       1.295   1.750   0.122  0.00  0.00    +0.060 A 
ATOM      2  C   UNL     1       1.548   3.119  -0.002  0.00  0.00    +0.047 A 
ATOM      3  C   UNL     1       2.847   3.578  -0.023  0.00  0.00    +0.127 A 
ATOM      4  C   UNL     1       3.906   2.689   0.070  0.00  0.00    +0.034 A 
ATOM      5  C   UNL     1       3.671   1.334   0.188  0.00  0.00    +0.026 A 
ATOM      6  C   UNL     1       2.369   0.853   0.215  0.00  0.00    +0.046 A 
ENDROOT
BRANCH   1   8
ATOM      7  N   UNL     1      -1.121   2.123   0.163  0.00  0.00    -0.278 N 
ATOM      8  C   UNL     1      -0.093   1.252   0.150  0.00  0.00    +0.250 C 
ATOM      9  O   UNL     1      -0.309   0.056   0.156  0.00  0.00    -0.270 OA
ATOM     10  H   UNL     1      -0.929   3.202   0.070  0.00  0.00    +0.155 HD
BRANCH   7  14
ATOM     11  C   UNL     1      -5.035   0.726   0.558  0.00  0.00    +0.124 A 
ATOM     12  C   UNL     1      -3.996   0.080   1.212  0.00  0.00    +0.047 A 
ATOM     13  C   UNL     1      -2.700   0.542   1.081  0.00  0.00    +0.030 A 
ATOM     14  C   UNL     1      -2.436   1.654   0.295  0.00  0.00    +0.076 A 
ATOM     15  C   UNL     1      -3.479   2.307  -0.358  0.00  0.00    +0.145 A 
ATOM     16  C   UNL     1      -4.776   1.838  -0.229  0.00  0.00    +0.093 A 
BRANCH  11  18
ATOM     17  C   UNL     1      -6.503  -0.881   1.515  0.00  0.00    +0.277 C 
ATOM     18  O   UNL     1      -6.309   0.269   0.689  0.00  0.00    -0.495 OA
ENDBRANCH  11  18
BRANCH  15  19
ATOM     19  O   UNL     1      -3.223   3.400  -1.125  0.00  0.00    -0.493 OA
ATOM     20  C   UNL     1      -4.341   4.019  -1.765  0.00  0.00    +0.277 C 
ENDBRANCH  15  19
ENDBRANCH   7  14
ENDBRANCH   1   8
BRANCH   6  21
ATOM     21  N   UNL     1       2.131  -0.514   0.334  0.00  0.00    -0.286 N 
ATOM     22  C   UNL     1       3.061  -1.399  -0.077  0.00  0.00    +0.200 C 
ATOM     23  O   UNL     1       4.060  -1.009  -0.643  0.00  0.00    -0.278 OA
ATOM     24  H   UNL     1       1.183  -0.872   0.762  0.00  0.00    +0.155 HD
BRANCH  22  25
ATOM     25  C   UNL     1       2.859  -2.872   0.168  0.00  0.00    +0.015 C 
BRANCH  25  26
ATOM     26  N   UNL     1       4.005  -3.619  -0.369  0.00  0.00    +0.386 N 
ATOM     27  H   UNL     1       4.088  -3.435  -1.451  0.00  0.00    -0.085 HD
ATOM     28  H   UNL     1       4.926  -3.287   0.131  0.00  0.00    -0.085 HD
BRANCH  26  29
ATOM     29  C   UNL     1       3.842  -5.062  -0.149  0.00  0.00    -0.050 C 
BRANCH  29  30
ATOM     30  C   UNL     1       5.052  -5.805  -0.720  0.00  0.00    +0.101 C 
ATOM     31  C   UNL     1       4.846  -7.332  -0.612  0.00  0.00    +0.032 C 
ATOM     32  C   UNL     1       6.252  -7.877  -0.275  0.00  0.00    +0.030 C 
ATOM     33  C   UNL     1       7.141  -6.615  -0.220  0.00  0.00    +0.160 C 
ATOM     34  O   UNL     1       6.229  -5.534   0.072  0.00  0.00    -0.378 OA
ENDBRANCH  29  30
ENDBRANCH  26  29
ENDBRANCH  25  26
ENDBRANCH  22  25
ENDBRANCH   6  21
BRANCH   3  35
ATOM     35  N   UNL     1       3.113   5.029  -0.150  0.00  0.00    +0.056 N 
ATOM     36  O   UNL     1       4.260   5.438  -0.173  0.00  0.00    -0.126 OA
ATOM     37  O   UNL     1       2.185   5.813  -0.231  0.00  0.00    -0.126 OA
ENDBRANCH   3  35
TORSDOF 10
