REMARK  Name = ZINC36028179
REMARK  11 active torsions:
REMARK  status: ('A' for Active; 'I' for Inactive)
REMARK    1  A    between atoms: C_1  and  C_2
REMARK    2  A    between atoms: C_2  and  C_3
REMARK    3  A    between atoms: C_3  and  C_5
REMARK    4  A    between atoms: C_3  and  C_6
REMARK    5  A    between atoms: C_6  and  N_7
REMARK    6  A    between atoms: C_10  and  C_30
REMARK    7  A    between atoms: N_16  and  S_19
REMARK    8  A    between atoms: S_19  and  C_22
REMARK    9  A    between atoms: C_30  and  C_32
REMARK   10  A    between atoms: C_30  and  C_33
REMARK   11  A    between atoms: C_33  and  C_34
REMARK                            x       y       z     vdW  Elec       q    Type
REMARK                         _______ _______ _______ _____ _____    ______ ____
ROOT
ATOM      1  N   UNL     1      -2.760  -2.598  -0.339  0.00  0.00    -0.313 N 
ATOM      2  C   UNL     1      -3.627  -2.946   0.635  0.00  0.00    +0.201 C 
ATOM      3  O   UNL     1      -3.425  -2.858   1.828  0.00  0.00    -0.277 OA
ATOM      4  C   UNL     1      -4.893  -3.463  -0.012  0.00  0.00    +0.022 C 
ATOM      5  N   UNL     1      -4.509  -3.758  -1.414  0.00  0.00    +0.401 N 
ATOM      6  C   UNL     1      -3.373  -2.839  -1.648  0.00  0.00    +0.006 C 
ATOM      7  C   UNL     1      -2.366  -3.496  -2.591  0.00  0.00    +0.023 C 
ATOM      8  C   UNL     1      -1.173  -2.556  -2.795  0.00  0.00    +0.109 C 
ATOM      9  N   UNL     1      -1.672  -1.250  -3.246  0.00  0.00    -0.177 NA
ATOM     10  C   UNL     1      -2.699  -0.570  -2.444  0.00  0.00    +0.109 C 
ATOM     11  C   UNL     1      -3.880  -1.526  -2.243  0.00  0.00    +0.023 C 
ATOM     12  H   UNL     1      -4.220  -4.720  -1.509  0.00  0.00    -0.082 HD
ATOM     13  H   UNL     1      -5.269  -3.548  -2.043  0.00  0.00    -0.082 HD
ENDROOT
BRANCH   9  14
ATOM     14  S   UNL     1      -1.088  -0.556  -4.631  0.00  0.00    +0.061 S 
ATOM     15  O   UNL     1      -1.302   0.843  -4.507  0.00  0.00    -0.153 OA
ATOM     16  O   UNL     1       0.200  -1.113  -4.852  0.00  0.00    -0.153 OA
BRANCH  14  17
ATOM     17  C   UNL     1      -2.108  -1.106  -5.959  0.00  0.00    +0.107 A 
ATOM     18  C   UNL     1      -1.789  -2.265  -6.642  0.00  0.00    +0.030 A 
ATOM     19  C   UNL     1      -2.588  -2.697  -7.683  0.00  0.00    +0.023 A 
ATOM     20  C   UNL     1      -3.709  -1.969  -8.043  0.00  0.00    +0.059 A 
ATOM     21  C   UNL     1      -4.029  -0.809  -7.359  0.00  0.00    +0.061 A 
ATOM     22  C   UNL     1      -3.231  -0.381  -6.313  0.00  0.00    +0.050 A 
ATOM     23 CL   UNL     1      -5.434   0.105  -7.809  0.00  0.00    -0.082 Cl
ATOM     24 CL   UNL     1      -4.713  -2.511  -9.352  0.00  0.00    -0.082 Cl
ENDBRANCH  14  17
ENDBRANCH   9  14
BRANCH   4  25
ATOM     25  C   UNL     1      -5.369  -4.736   0.691  0.00  0.00    -0.020 C 
ATOM     26  C   UNL     1      -4.228  -5.753   0.733  0.00  0.00    +0.006 C 
BRANCH  25  27
ATOM     27  C   UNL     1      -5.803  -4.397   2.119  0.00  0.00    -0.001 C 
ATOM     28  C   UNL     1      -6.395  -5.643   2.781  0.00  0.00    +0.004 C 
ENDBRANCH  25  27
ENDBRANCH   4  25
BRANCH   1  29
ATOM     29  C   UNL     1      -1.416  -2.058  -0.121  0.00  0.00    +0.109 C 
BRANCH  29  30
ATOM     30  C   UNL     1      -0.457  -3.199   0.226  0.00  0.00    +0.003 C 
ATOM     31  C   UNL     1      -0.678  -4.363  -0.743  0.00  0.00    +0.009 C 
BRANCH  30  33
ATOM     32  C   UNL     1       1.941  -3.806   0.575  0.00  0.00    +0.004 C 
ATOM     33  C   UNL     1       0.986  -2.705   0.109  0.00  0.00    +0.001 C 
ENDBRANCH  30  33
ENDBRANCH  29  30
ENDBRANCH   1  29
TORSDOF 7
