REMARK  Name = ZINC03600577
REMARK  3 active torsions:
REMARK  status: ('A' for Active; 'I' for Inactive)
REMARK    1  A    between atoms: N_13  and  C_17
REMARK    2  A    between atoms: C_17  and  C_18
REMARK    3  A    between atoms: C_22  and  N_24
REMARK                            x       y       z     vdW  Elec       q    Type
REMARK                         _______ _______ _______ _____ _____    ______ ____
ROOT
ATOM      1  C   UNL     1      -0.017   1.375   0.010  0.00  0.00    +0.000 A 
ATOM      2  C   UNL     1       1.174   2.078   0.002  0.00  0.00    +0.000 A 
ATOM      3  C   UNL     1       2.373   1.395  -0.016  0.00  0.00    +0.006 A 
ATOM      4  C   UNL     1       2.394   0.006  -0.026  0.00  0.00    -0.012 A 
ATOM      5  C   UNL     1       1.207  -0.694  -0.013  0.00  0.00    -0.042 A 
ATOM      6  C   UNL     1       0.002  -0.004   0.002  0.00  0.00    +0.004 A 
ATOM      7  C   UNL     1       1.157  -2.199  -0.006  0.00  0.00    +0.035 C 
ATOM      8  C   UNL     1       2.490  -2.786  -0.467  0.00  0.00    +0.008 C 
ATOM      9  C   UNL     1       3.614  -2.143   0.354  0.00  0.00    +0.040 C 
ATOM     10  C   UNL     1       3.731  -0.680  -0.054  0.00  0.00    +0.138 C 
ATOM     11  C   UNL     1       4.347  -0.566  -1.430  0.00  0.00    +0.251 C 
ATOM     12  O   UNL     1       3.905  -1.003  -2.470  0.00  0.00    -0.272 OA
ATOM     13  N   UNL     1       5.493   0.123  -1.256  0.00  0.00    -0.220 N 
ATOM     14  C   UNL     1       5.679   0.456   0.027  0.00  0.00    +0.310 C 
ATOM     15  O   UNL     1       6.641   1.080   0.431  0.00  0.00    -0.252 OA
ATOM     16  N   UNL     1       4.682   0.021   0.820  0.00  0.00    -0.281 N 
ATOM     17  H   UNL     1       4.606   0.146   1.779  0.00  0.00    +0.152 HD
ENDROOT
BRANCH  13  18
ATOM     18  C   UNL     1       6.420   0.467  -2.338  0.00  0.00    +0.153 C 
BRANCH  18  19
ATOM     19  C   UNL     1       6.037   1.802  -2.922  0.00  0.00    -0.027 A 
ATOM     20  C   UNL     1       5.150   1.865  -3.981  0.00  0.00    +0.005 A 
ATOM     21  C   UNL     1       4.796   3.090  -4.515  0.00  0.00    +0.003 A 
ATOM     22  C   UNL     1       5.335   4.252  -3.995  0.00  0.00    +0.033 A 
ATOM     23  C   UNL     1       6.226   4.189  -2.940  0.00  0.00    +0.127 A 
ATOM     24  C   UNL     1       6.577   2.964  -2.404  0.00  0.00    +0.038 A 
BRANCH  23  25
ATOM     25  N   UNL     1       6.803   5.433  -2.384  0.00  0.00    +0.056 N 
ATOM     26  O   UNL     1       7.588   5.378  -1.454  0.00  0.00    -0.126 OA
ATOM     27  O   UNL     1       6.494   6.512  -2.856  0.00  0.00    -0.126 OA
ENDBRANCH  23  25
ENDBRANCH  18  19
ENDBRANCH  13  18
TORSDOF 3
