REMARK  Name = ZINC52006248
REMARK  8 active torsions:
REMARK  status: ('A' for Active; 'I' for Inactive)
REMARK    1  A    between atoms: C_1  and  C_2
REMARK    2  A    between atoms: C_2  and  C_3
REMARK    3  A    between atoms: C_3  and  N_4
REMARK    4  A    between atoms: N_4  and  S_5
REMARK    5  A    between atoms: S_5  and  C_8
REMARK    6  A    between atoms: C_13  and  N_14
REMARK    7  A    between atoms: N_14  and  C_15
REMARK    8  A    between atoms: C_21  and  O_23
REMARK                            x       y       z     vdW  Elec       q    Type
REMARK                         _______ _______ _______ _____ _____    ______ ____
ROOT
ATOM      1  C   UNL     1       1.171  -2.509   3.737  0.00  0.00    +0.126 A 
ATOM      2  C   UNL     1       0.788  -3.536   4.577  0.00  0.00    +0.030 A 
ATOM      3  C   UNL     1       0.314  -3.254   5.845  0.00  0.00    +0.002 A 
ATOM      4  C   UNL     1       0.223  -1.943   6.277  0.00  0.00    +0.002 A 
ATOM      5  C   UNL     1       0.605  -0.911   5.442  0.00  0.00    +0.025 A 
ATOM      6  C   UNL     1       1.086  -1.192   4.169  0.00  0.00    +0.054 A 
ENDROOT
BRANCH   1   7
ATOM      7  S   UNL     1       1.775  -2.870   2.121  0.00  0.00    +0.060 S 
ATOM      8  O   UNL     1       1.057  -2.034   1.224  0.00  0.00    -0.153 OA
ATOM      9  O   UNL     1       1.787  -4.285   1.999  0.00  0.00    -0.153 OA
BRANCH   7  10
ATOM     10  N   UNL     1       3.354  -2.376   2.067  0.00  0.00    -0.190 NA
ATOM     11  H   UNL     1       3.618  -1.657   1.471  0.00  0.00    +0.148 HD
BRANCH  10  12
ATOM     12  C   UNL     1       4.354  -3.025   2.918  0.00  0.00    +0.105 C 
BRANCH  12  14
ATOM     13  C   UNL     1       6.801  -3.355   3.303  0.00  0.00    +0.005 C 
ATOM     14  C   UNL     1       5.756  -2.678   2.414  0.00  0.00    +0.013 C 
ENDBRANCH  12  14
ENDBRANCH  10  12
ENDBRANCH   7  10
ENDBRANCH   1   7
BRANCH   6  15
ATOM     15  N   UNL     1       1.478  -0.151   3.324  0.00  0.00    -0.337 N 
ATOM     16  H   UNL     1       1.888  -0.350   2.468  0.00  0.00    +0.146 HD
BRANCH  15  17
ATOM     17  C   UNL     1       1.270   1.241   3.731  0.00  0.00    +0.099 C 
ATOM     18  C   UNL     1       2.444   1.700   4.599  0.00  0.00    +0.025 C 
ATOM     19  C   UNL     1       2.226   3.153   5.024  0.00  0.00    +0.002 C 
ATOM     20  C   UNL     1       2.134   4.040   3.780  0.00  0.00    +0.003 C 
ATOM     21  C   UNL     1       0.961   3.581   2.912  0.00  0.00    +0.033 C 
ATOM     22  C   UNL     1       1.178   2.127   2.487  0.00  0.00    +0.135 C 
BRANCH  22  23
ATOM     23  O   UNL     1       2.392   2.026   1.740  0.00  0.00    -0.390 OA
ATOM     24  H   UNL     1       2.404   2.563   0.936  0.00  0.00    +0.210 HD
ENDBRANCH  22  23
ENDBRANCH  15  17
ENDBRANCH   6  15
TORSDOF 7
