REMARK  Name = ZINC29973354
REMARK  11 active torsions:
REMARK  status: ('A' for Active; 'I' for Inactive)
REMARK    1  A    between atoms: C_1  and  C_2
REMARK    2  A    between atoms: C_2  and  C_3
REMARK    3  A    between atoms: C_3  and  N_4
REMARK    4  A    between atoms: N_4  and  C_5
REMARK    5  A    between atoms: N_4  and  C_19
REMARK    6  A    between atoms: C_5  and  C_6
REMARK    7  A    between atoms: C_9  and  C_11
REMARK    8  A    between atoms: C_14  and  C_18
REMARK    9  A    between atoms: C_16  and  C_17
REMARK   10  A    between atoms: C_19  and  C_20
REMARK   11  A    between atoms: N_22  and  C_23
REMARK                            x       y       z     vdW  Elec       q    Type
REMARK                         _______ _______ _______ _____ _____    ______ ____
ROOT
ATOM      1  N   UNL     1       3.025   6.980   0.280  0.00  0.00    +0.389 N 
ATOM      2  H   UNL     1       3.482   6.541  -0.620  0.00  0.00    -0.081 HD
ENDROOT
BRANCH   1   3
ATOM      3  C   UNL     1       3.534   6.248   1.447  0.00  0.00    -0.078 C 
BRANCH   3   5
ATOM      4  C   UNL     1       3.428   6.051   3.936  0.00  0.00    +0.002 C 
ATOM      5  C   UNL     1       2.864   6.780   2.715  0.00  0.00    -0.022 C 
ENDBRANCH   3   5
ENDBRANCH   1   3
BRANCH   1   6
ATOM      6  C   UNL     1       3.412   8.396   0.337  0.00  0.00    -0.018 C 
BRANCH   6   7
ATOM      7  C   UNL     1       4.894   8.522   0.096  0.00  0.00    +0.063 A 
ATOM      8  C   UNL     1       5.486   8.761  -1.089  0.00  0.00    +0.219 A 
ATOM      9  O   UNL     1       6.815   8.801  -0.870  0.00  0.00    -0.443 OA
ATOM     10  C   UNL     1       7.021   8.579   0.439  0.00  0.00    +0.228 A 
ATOM     11  N   UNL     1       5.858   8.410   1.022  0.00  0.00    -0.216 NA
BRANCH  10  12
ATOM     12  C   UNL     1       8.338   8.532   1.111  0.00  0.00    +0.040 A 
ATOM     13  C   UNL     1       8.416   8.304   2.485  0.00  0.00    +0.014 A 
ATOM     14  C   UNL     1       9.647   8.261   3.105  0.00  0.00    +0.004 A 
ATOM     15  C   UNL     1      10.803   8.443   2.368  0.00  0.00    -0.050 A 
ATOM     16  C   UNL     1      10.733   8.669   1.005  0.00  0.00    +0.007 A 
ATOM     17  C   UNL     1       9.508   8.709   0.371  0.00  0.00    -0.038 A 
ATOM     18  C   UNL     1       9.433   8.950  -1.115  0.00  0.00    +0.044 C 
ATOM     19  C   UNL     1      12.145   8.395   3.052  0.00  0.00    +0.044 C 
ENDBRANCH  10  12
ENDBRANCH   6   7
ENDBRANCH   1   6
BRANCH   1  20
ATOM     20  C   UNL     1       1.568   6.836   0.163  0.00  0.00    +0.019 C 
BRANCH  20  21
ATOM     21  C   UNL     1       1.227   5.399  -0.139  0.00  0.00    +0.201 C 
ATOM     22  O   UNL     1       2.112   4.576  -0.246  0.00  0.00    -0.278 OA
ATOM     23  N   UNL     1      -0.060   5.029  -0.290  0.00  0.00    -0.285 N 
ATOM     24  H   UNL     1      -0.855   5.789  -0.281  0.00  0.00    +0.155 HD
BRANCH  23  25
ATOM     25  C   UNL     1      -0.385   3.677  -0.459  0.00  0.00    +0.072 A 
ATOM     26  C   UNL     1       0.521   2.814  -1.062  0.00  0.00    +0.029 A 
ATOM     27  C   UNL     1       0.200   1.481  -1.228  0.00  0.00    +0.043 A 
ATOM     28  C   UNL     1      -1.025   1.002  -0.794  0.00  0.00    +0.161 A 
ATOM     29  C   UNL     1      -1.933   1.860  -0.192  0.00  0.00    +0.195 A 
ATOM     30  C   UNL     1      -1.615   3.197  -0.024  0.00  0.00    +0.182 A 
ATOM     31  F   UNL     1      -2.500   4.035   0.558  0.00  0.00    -0.200 F 
ATOM     32  F   UNL     1      -3.128   1.391   0.229  0.00  0.00    -0.199 F 
ATOM     33  F   UNL     1      -1.336  -0.302  -0.959  0.00  0.00    -0.202 F 
ENDBRANCH  23  25
ENDBRANCH  20  21
ENDBRANCH   1  20
TORSDOF 8
