REMARK  Name = ZINC14954478
REMARK  9 active torsions:
REMARK  status: ('A' for Active; 'I' for Inactive)
REMARK    1  A    between atoms: C_1  and  C_2
REMARK    2  A    between atoms: N_5  and  C_7
REMARK    3  A    between atoms: C_7  and  C_8
REMARK    4  A    between atoms: C_8  and  C_9
REMARK    5  A    between atoms: N_11  and  C_12
REMARK    6  A    between atoms: N_11  and  C_31
REMARK    7  A    between atoms: C_12  and  C_13
REMARK    8  A    between atoms: C_21  and  N_22
REMARK    9  A    between atoms: C_31  and  C_32
REMARK                            x       y       z     vdW  Elec       q    Type
REMARK                         _______ _______ _______ _____ _____    ______ ____
ROOT
ATOM      1  C   UNL     1      -5.421   3.094  -0.446  0.00  0.00    +0.008 A 
ATOM      2  C   UNL     1      -5.420   1.788  -0.833  0.00  0.00    +0.018 A 
ATOM      3  C   UNL     1      -6.040   0.841   0.008  0.00  0.00    -0.001 A 
ATOM      4  C   UNL     1      -6.075  -0.520  -0.326  0.00  0.00    +0.014 A 
ATOM      5  C   UNL     1      -6.682  -1.412   0.509  0.00  0.00    -0.043 A 
ATOM      6  C   UNL     1      -7.271  -0.985   1.699  0.00  0.00    -0.042 A 
ATOM      7  C   UNL     1      -7.253   0.334   2.051  0.00  0.00    +0.030 A 
ATOM      8  C   UNL     1      -6.636   1.278   1.216  0.00  0.00    +0.048 A 
ATOM      9  C   UNL     1      -6.023   3.463   0.765  0.00  0.00    +0.104 A 
ATOM     10  C   UNL     1      -7.865  -2.174   2.425  0.00  0.00    +0.036 C 
ATOM     11  C   UNL     1      -7.200  -3.412   1.788  0.00  0.00    +0.009 C 
ATOM     12  C   UNL     1      -6.848  -2.912   0.372  0.00  0.00    +0.036 C 
ATOM     13  N   UNL     1      -6.638   2.598   1.610  0.00  0.00    -0.343 N 
ATOM     14  H   UNL     1      -7.076   2.907   2.485  0.00  0.00    +0.167 HD
ENDROOT
BRANCH   9  15
ATOM     15  N   UNL     1      -6.011   4.796   1.149  0.00  0.00    -0.312 N 
ATOM     16  C   UNL     1      -5.819   4.924   2.601  0.00  0.00    +0.134 C 
ATOM     17  C   UNL     1      -5.752   6.407   2.973  0.00  0.00    +0.178 C 
ATOM     18  O   UNL     1      -6.942   7.061   2.524  0.00  0.00    -0.377 OA
ATOM     19  C   UNL     1      -7.159   6.957   1.114  0.00  0.00    +0.178 C 
ATOM     20  C   UNL     1      -7.241   5.479   0.724  0.00  0.00    +0.134 C 
ENDBRANCH   9  15
BRANCH   1  21
ATOM     21  C   UNL     1      -4.769   4.139  -1.314  0.00  0.00    +0.146 C 
BRANCH  21  24
ATOM     22  C   UNL     1      -3.134   5.406  -0.027  0.00  0.00    +0.218 C 
ATOM     23  O   UNL     1      -4.019   6.173   0.288  0.00  0.00    -0.276 OA
ATOM     24  N   UNL     1      -3.399   4.374  -0.852  0.00  0.00    -0.295 N 
BRANCH  22  25
ATOM     25  C   UNL     1      -1.738   5.607   0.505  0.00  0.00    +0.119 C 
BRANCH  25  26
ATOM     26  C   UNL     1      -1.714   6.828   1.426  0.00  0.00    +0.152 C 
BRANCH  26  31
ATOM     27  C   UNL     1       2.485   5.724   3.946  0.00  0.00    +0.067 C 
ATOM     28  C   UNL     1       1.442   6.453   3.138  0.00  0.00    +0.060 A 
ATOM     29  C   UNL     1       1.543   7.763   2.660  0.00  0.00    +0.044 A 
ATOM     30  C   UNL     1       0.408   8.046   1.979  0.00  0.00    +0.108 A 
ATOM     31  N   UNL     1      -0.386   6.956   2.031  0.00  0.00    -0.271 N 
ATOM     32  N   UNL     1       0.287   5.968   2.761  0.00  0.00    -0.176 NA
ENDBRANCH  26  31
ENDBRANCH  25  26
ENDBRANCH  22  25
BRANCH  24  33
ATOM     33  C   UNL     1      -2.317   3.486  -1.286  0.00  0.00    +0.139 C 
BRANCH  33  34
ATOM     34  C   UNL     1      -2.180   2.328  -0.296  0.00  0.00    +0.136 C 
ATOM     35  C   UNL     1      -1.044   1.378  -0.735  0.00  0.00    +0.035 C 
ATOM     36  C   UNL     1      -0.388   0.939   0.594  0.00  0.00    +0.031 C 
ATOM     37  C   UNL     1      -1.202   1.676   1.680  0.00  0.00    +0.160 C 
ATOM     38  O   UNL     1      -1.772   2.818   0.999  0.00  0.00    -0.375 OA
ENDBRANCH  33  34
ENDBRANCH  24  33
ENDBRANCH  21  24
ENDBRANCH   1  21
TORSDOF 8
