REMARK  Name = ZINC63478505
REMARK  7 active torsions:
REMARK  status: ('A' for Active; 'I' for Inactive)
REMARK    1  A    between atoms: C_7  and  C_10
REMARK    2  A    between atoms: C_10  and  C_11
REMARK    3  A    between atoms: C_11  and  N_12
REMARK    4  A    between atoms: C_13  and  C_15
REMARK    5  A    between atoms: C_15  and  C_16
REMARK    6  A    between atoms: C_16  and  N_17
REMARK    7  A    between atoms: C_21  and  C_22
REMARK                            x       y       z     vdW  Elec       q    Type
REMARK                         _______ _______ _______ _____ _____    ______ ____
ROOT
ATOM      1  N   UNL     1      -0.458  -4.798  -1.460  0.00  0.00    -0.315 N 
ATOM      2  C   UNL     1      -0.811  -5.380  -2.623  0.00  0.00    +0.215 C 
ATOM      3  O   UNL     1      -0.371  -4.957  -3.671  0.00  0.00    -0.276 OA
ATOM      4  H   UNL     1      -0.810  -5.136  -0.622  0.00  0.00    +0.149 HD
ENDROOT
BRANCH   1   5
ATOM      5  C   UNL     1       0.457  -3.653  -1.462  0.00  0.00    +0.108 C 
BRANCH   5   6
ATOM      6  C   UNL     1       0.691  -3.186  -0.024  0.00  0.00    +0.052 C 
BRANCH   6  13
ATOM      7  C   UNL     1      -0.016   1.348   0.009  0.00  0.00    +0.001 A 
ATOM      8  C   UNL     1       1.166   2.101   0.002  0.00  0.00    +0.002 A 
ATOM      9  C   UNL     1       2.391   1.535  -0.013  0.00  0.00    +0.026 A 
ATOM     10  C   UNL     1       2.529   0.120  -0.022  0.00  0.00    +0.043 A 
ATOM     11  N   UNL     1       3.587  -0.654  -0.037  0.00  0.00    -0.380 N 
ATOM     12  C   UNL     1       3.143  -2.053  -0.041  0.00  0.00    +0.144 C 
ATOM     13  C   UNL     1       1.631  -2.008  -0.025  0.00  0.00    -0.040 C 
ATOM     14  C   UNL     1       1.295  -0.698  -0.014  0.00  0.00    -0.001 A 
ATOM     15  C   UNL     1       0.002  -0.004   0.002  0.00  0.00    +0.010 A 
ATOM     16  H   UNL     1       4.509  -0.353  -0.045  0.00  0.00    +0.160 HD
ENDBRANCH   6  13
ENDBRANCH   5   6
ENDBRANCH   1   5
BRANCH   2  17
ATOM     17  C   UNL     1      -1.752  -6.557  -2.622  0.00  0.00    +0.115 C 
BRANCH  17  18
ATOM     18  C   UNL     1      -1.986  -7.025  -4.059  0.00  0.00    +0.127 C 
BRANCH  18  19
ATOM     19  N   UNL     1      -2.901  -8.169  -4.058  0.00  0.00    -0.228 N 
ATOM     20  C   UNL     1      -2.412  -9.394  -3.965  0.00  0.00    +0.260 C 
ATOM     21  O   UNL     1      -1.212  -9.585  -3.881  0.00  0.00    -0.269 OA
ATOM     22  C   UNL     1      -3.332 -10.485  -3.966  0.00  0.00    +0.080 C 
ATOM     23  C   UNL     1      -3.089 -11.824  -3.882  0.00  0.00    +0.035 C 
ATOM     24  S   UNL     1      -4.889  -9.618  -4.106  0.00  0.00    -0.026 S 
ATOM     25  C   UNL     1      -4.232  -7.957  -4.146  0.00  0.00    +0.286 C 
ATOM     26  O   UNL     1      -4.832  -6.902  -4.232  0.00  0.00    -0.262 OA
BRANCH  23  27
ATOM     27  C   UNL     1      -4.166 -12.741  -3.902  0.00  0.00    +0.013 A 
ATOM     28  C   UNL     1      -4.138 -14.129  -3.824  0.00  0.00    +0.015 A 
ATOM     29  C   UNL     1      -5.362 -14.752  -3.869  0.00  0.00    +0.008 A 
ATOM     30  C   UNL     1      -6.482 -13.998  -3.984  0.00  0.00    +0.046 A 
ATOM     31  S   UNL     1      -5.915 -12.417  -4.026  0.00  0.00    -0.097 S 
ENDBRANCH  23  27
ENDBRANCH  18  19
ENDBRANCH  17  18
ENDBRANCH   2  17
TORSDOF 7
