REMARK  Name = ZINC20726103
REMARK  7 active torsions:
REMARK  status: ('A' for Active; 'I' for Inactive)
REMARK    1  A    between atoms: C_1  and  O_2
REMARK    2  A    between atoms: O_2  and  C_3
REMARK    3  A    between atoms: C_3  and  C_5
REMARK    4  A    between atoms: C_8  and  N_11
REMARK    5  A    between atoms: C_23  and  C_25
REMARK    6  A    between atoms: C_30  and  O_31
REMARK    7  A    between atoms: O_31  and  C_32
REMARK                            x       y       z     vdW  Elec       q    Type
REMARK                         _______ _______ _______ _____ _____    ______ ____
ROOT
ATOM      1  N   UNL     1       0.620  -7.216  -0.646  0.00  0.00    -0.269 N 
ATOM      2  C   UNL     1       1.083  -7.396  -1.899  0.00  0.00    +0.307 C 
ATOM      3  O   UNL     1       1.282  -6.435  -2.617  0.00  0.00    -0.252 OA
ATOM      4  N   UNL     1       1.326  -8.640  -2.355  0.00  0.00    -0.272 N 
ATOM      5  C   UNL     1       0.973  -9.820  -1.550  0.00  0.00    +0.116 C 
ATOM      6  C   UNL     1       2.256 -10.572  -1.173  0.00  0.00    +0.074 C 
ATOM      7  C   UNL     1       3.132 -10.678  -2.393  0.00  0.00    +0.040 A 
ATOM      8  C   UNL     1       3.007  -9.918  -3.502  0.00  0.00    +0.062 A 
ATOM      9  N   UNL     1       3.954 -10.288  -4.368  0.00  0.00    -0.348 N 
ATOM     10  C   UNL     1       4.662 -11.252  -3.841  0.00  0.00    +0.171 A 
ATOM     11  N   UNL     1       4.178 -11.525  -2.607  0.00  0.00    -0.349 N 
ATOM     12  H   UNL     1       4.512 -12.196  -1.992  0.00  0.00    +0.166 HD
ATOM     13  C   UNL     1       1.946  -8.853  -3.675  0.00  0.00    +0.160 C 
ATOM     14  H   UNL     1       0.468  -7.981  -0.070  0.00  0.00    +0.156 HD
ATOM     15  H   UNL     1       4.093  -9.903  -5.247  0.00  0.00    +0.167 HD
ENDROOT
BRANCH   1  19
ATOM     16  C   UNL     1      -0.161  -3.371   0.753  0.00  0.00    +0.059 A 
ATOM     17  C   UNL     1      -0.930  -4.450   1.202  0.00  0.00    +0.017 A 
ATOM     18  C   UNL     1      -0.669  -5.719   0.738  0.00  0.00    +0.024 A 
ATOM     19  C   UNL     1       0.358  -5.929  -0.177  0.00  0.00    +0.035 A 
ATOM     20  C   UNL     1       1.125  -4.858  -0.626  0.00  0.00    +0.024 A 
ATOM     21  C   UNL     1       0.866  -3.585  -0.170  0.00  0.00    +0.017 A 
BRANCH  16  22
ATOM     22  C   UNL     1      -0.438  -2.010   1.248  0.00  0.00    +0.339 C 
ATOM     23  O   UNL     1       0.227  -1.073   0.854  0.00  0.00    -0.245 OA
BRANCH  22  25
ATOM     24  C   UNL     1      -1.641  -0.461   2.575  0.00  0.00    +0.280 C 
ATOM     25  O   UNL     1      -1.429  -1.805   2.139  0.00  0.00    -0.464 OA
ENDBRANCH  22  25
ENDBRANCH  16  22
ENDBRANCH   1  19
BRANCH  13  26
ATOM     26  C   UNL     1       0.905  -9.315  -4.662  0.00  0.00    +0.021 A 
ATOM     27  C   UNL     1       0.643 -10.664  -4.809  0.00  0.00    +0.009 A 
ATOM     28  C   UNL     1      -0.311 -11.089  -5.714  0.00  0.00    +0.001 A 
ATOM     29  C   UNL     1      -1.006 -10.167  -6.475  0.00  0.00    +0.004 A 
ATOM     30  C   UNL     1      -0.748  -8.817  -6.332  0.00  0.00    +0.046 A 
ATOM     31  C   UNL     1       0.206  -8.388  -5.420  0.00  0.00    +0.135 A 
BRANCH  31  32
ATOM     32  O   UNL     1       0.458  -7.060  -5.273  0.00  0.00    -0.405 OA
BRANCH  32  33
ATOM     33  C   UNL     1      -0.300  -6.162  -6.086  0.00  0.00    +0.575 C 
ATOM     34  F   UNL     1      -1.662  -6.319  -5.809  0.00  0.00    -0.133 F 
ATOM     35  F   UNL     1       0.083  -4.846  -5.809  0.00  0.00    -0.133 F 
ATOM     36  F   UNL     1      -0.063  -6.443  -7.436  0.00  0.00    -0.133 F 
ENDBRANCH  32  33
ENDBRANCH  31  32
ENDBRANCH  13  26
TORSDOF 6
