REMARK  Name = ZINC20102249
REMARK  19 active torsions:
REMARK  status: ('A' for Active; 'I' for Inactive)
REMARK    1  A    between atoms: C_1  and  C_2
REMARK    2  A    between atoms: C_2  and  N_3
REMARK    3  A    between atoms: N_3  and  C_4
REMARK    4  A    between atoms: N_3  and  C_6
REMARK    5  A    between atoms: C_4  and  C_5
REMARK    6  A    between atoms: C_6  and  C_7
REMARK    7  A    between atoms: C_7  and  N_8
REMARK    8  A    between atoms: C_9  and  C_30
REMARK    9  A    between atoms: C_11  and  C_16
REMARK   10  A    between atoms: C_16  and  C_18
REMARK   11  A    between atoms: C_21  and  O_25
REMARK   12  A    between atoms: C_22  and  C_24
REMARK   13  A    between atoms: O_25  and  C_26
REMARK   14  A    between atoms: C_26  and  C_27
REMARK   15  A    between atoms: C_27  and  C_28
REMARK   16  A    between atoms: C_27  and  C_29
REMARK   17  A    between atoms: C_33  and  O_38
REMARK   18  A    between atoms: C_34  and  O_36
REMARK   19  A    between atoms: O_36  and  C_37
REMARK                            x       y       z     vdW  Elec       q    Type
REMARK                         _______ _______ _______ _____ _____    ______ ____
ROOT
ATOM      1  N   UNL     1      -3.389   0.153   0.177  0.00  0.00    -0.285 N 
ATOM      2  C   UNL     1      -2.247   0.261   1.093  0.00  0.00    +0.145 C 
ATOM      3  C   UNL     1      -2.226  -1.021   1.893  0.00  0.00    +0.076 C 
ATOM      4  C   UNL     1      -3.266  -1.770   1.457  0.00  0.00    +0.249 C 
ATOM      5  C   UNL     1      -3.985  -1.033   0.397  0.00  0.00    +0.288 C 
ATOM      6  O   UNL     1      -4.968  -1.439  -0.191  0.00  0.00    -0.266 OA
ATOM      7  O   UNL     1      -3.597  -2.997   1.921  0.00  0.00    -0.282 OA
ENDROOT
BRANCH   2   8
ATOM      8  C   UNL     1      -0.968   0.405   0.310  0.00  0.00    -0.019 A 
ATOM      9  C   UNL     1      -0.708  -0.445  -0.749  0.00  0.00    +0.009 A 
ATOM     10  C   UNL     1       0.464  -0.317  -1.471  0.00  0.00    +0.049 A 
ATOM     11  C   UNL     1       1.382   0.664  -1.133  0.00  0.00    +0.158 A 
ATOM     12  C   UNL     1       1.121   1.519  -0.066  0.00  0.00    +0.162 A 
ATOM     13  C   UNL     1      -0.058   1.389   0.650  0.00  0.00    +0.055 A 
BRANCH  12  14
ATOM     14  O   UNL     1       2.019   2.483   0.270  0.00  0.00    -0.491 OA
ATOM     15  C   UNL     1       1.736   3.254   1.439  0.00  0.00    +0.277 C 
ENDBRANCH  12  14
BRANCH  11  16
ATOM     16  O   UNL     1       2.535   0.792  -1.842  0.00  0.00    -0.503 OA
ATOM     17  H   UNL     1       3.263   1.571  -1.572  0.00  0.00    +0.292 HD
ENDBRANCH  11  16
ENDBRANCH   2   8
BRANCH   3  18
ATOM     18  C   UNL     1      -1.265  -1.383   2.939  0.00  0.00    +0.195 C 
ATOM     19  O   UNL     1      -0.496  -2.310   2.764  0.00  0.00    -0.287 OA
BRANCH  18  20
ATOM     20  C   UNL     1      -1.230  -0.624   4.204  0.00  0.00    +0.023 A 
ATOM     21  C   UNL     1      -2.188   0.364   4.456  0.00  0.00    +0.015 A 
ATOM     22  C   UNL     1      -2.154   1.067   5.639  0.00  0.00    +0.046 A 
ATOM     23  C   UNL     1      -1.163   0.803   6.578  0.00  0.00    +0.123 A 
ATOM     24  C   UNL     1      -0.206  -0.174   6.330  0.00  0.00    -0.008 A 
ATOM     25  C   UNL     1      -0.235  -0.885   5.151  0.00  0.00    +0.018 A 
ATOM     26  C   UNL     1       0.866  -0.455   7.351  0.00  0.00    +0.047 C 
BRANCH  23  27
ATOM     27  O   UNL     1      -1.130   1.502   7.741  0.00  0.00    -0.491 OA
BRANCH  27  28
ATOM     28  C   UNL     1      -2.207   2.409   7.984  0.00  0.00    +0.232 C 
BRANCH  28  29
ATOM     29  C   UNL     1      -1.974   3.135   9.310  0.00  0.00    +0.020 C 
ATOM     30  C   UNL     1      -3.060   4.194   9.510  0.00  0.00    +0.010 C 
ATOM     31  C   UNL     1      -2.027   2.127  10.460  0.00  0.00    +0.010 C 
ENDBRANCH  28  29
ENDBRANCH  27  28
ENDBRANCH  23  27
ENDBRANCH  18  20
ENDBRANCH   3  18
BRANCH   1  32
ATOM     32  C   UNL     1      -3.810   1.162  -0.798  0.00  0.00    +0.090 C 
BRANCH  32  33
ATOM     33  C   UNL     1      -3.104   0.908  -2.131  0.00  0.00    -0.060 C 
BRANCH  33  34
ATOM     34  N   UNL     1      -3.526   1.920  -3.109  0.00  0.00    +0.380 N 
ATOM     35  H   UNL     1      -4.625   1.935  -3.127  0.00  0.00    -0.082 HD
BRANCH  34  37
ATOM     36  C   UNL     1      -1.532   3.280  -2.693  0.00  0.00    -0.017 C 
ATOM     37  C   UNL     1      -3.062   3.257  -2.717  0.00  0.00    -0.082 C 
ENDBRANCH  34  37
BRANCH  34  38
ATOM     38  C   UNL     1      -3.057   1.575  -4.458  0.00  0.00    -0.082 C 
ATOM     39  C   UNL     1      -3.812   2.416  -5.490  0.00  0.00    -0.017 C 
ENDBRANCH  34  38
ENDBRANCH  33  34
ENDBRANCH  32  33
ENDBRANCH   1  32
TORSDOF 13
