REMARK  Name = ZINC06866230
REMARK  6 active torsions:
REMARK  status: ('A' for Active; 'I' for Inactive)
REMARK    1  A    between atoms: C_1  and  C_2
REMARK    2  A    between atoms: C_8  and  C_11
REMARK    3  A    between atoms: C_11  and  N_12
REMARK    4  A    between atoms: N_15  and  C_16
REMARK    5  A    between atoms: C_16  and  C_17
REMARK    6  A    between atoms: C_17  and  C_18
REMARK                            x       y       z     vdW  Elec       q    Type
REMARK                         _______ _______ _______ _____ _____    ______ ____
ROOT
ATOM      1  N   UNL     1      -3.329   5.455  -1.317  0.00  0.00    -0.294 N 
ATOM      2  C   UNL     1      -3.785   6.701  -1.553  0.00  0.00    +0.300 C 
ATOM      3  O   UNL     1      -4.046   7.438  -0.622  0.00  0.00    -0.253 OA
ATOM      4  N   UNL     1      -3.951   7.130  -2.819  0.00  0.00    -0.299 N 
ATOM      5  H   UNL     1      -3.121   4.866  -2.060  0.00  0.00    +0.151 HD
ATOM      6  H   UNL     1      -3.742   6.542  -3.562  0.00  0.00    +0.150 HD
ENDROOT
BRANCH   1   7
ATOM      7  C   UNL     1      -3.149   4.988   0.060  0.00  0.00    +0.165 C 
BRANCH   7  15
ATOM      8  C   UNL     1       2.468   3.925  -0.001  0.00  0.00    +0.044 C 
ATOM      9  C   UNL     1       1.163   3.171   0.008  0.00  0.00    -0.050 A 
ATOM     10  C   UNL     1       1.170   1.783   0.001  0.00  0.00    +0.007 A 
ATOM     11  C   UNL     1      -0.013   1.076   0.008  0.00  0.00    +0.050 A 
ATOM     12  C   UNL     1      -1.224   1.756   0.017  0.00  0.00    +0.168 A 
ATOM     13  C   UNL     1      -1.227   3.161   0.031  0.00  0.00    +0.046 A 
ATOM     14  C   UNL     1      -0.017   3.859   0.023  0.00  0.00    +0.017 A 
ATOM     15  C   UNL     1      -2.634   3.572   0.047  0.00  0.00    +0.108 A 
ATOM     16  N   UNL     1      -3.354   2.493   0.031  0.00  0.00    -0.080 NA
ATOM     17  O   UNL     1      -2.512   1.357   0.021  0.00  0.00    -0.354 OA
ENDBRANCH   7  15
ENDBRANCH   1   7
BRANCH   4  18
ATOM     18  C   UNL     1      -4.446   8.485  -3.075  0.00  0.00    +0.110 C 
BRANCH  18  19
ATOM     19  C   UNL     1      -4.542   8.716  -4.584  0.00  0.00    +0.056 C 
BRANCH  19  20
ATOM     20  C   UNL     1      -5.051  10.110  -4.847  0.00  0.00    -0.021 A 
ATOM     21  C   UNL     1      -6.325  10.465  -5.077  0.00  0.00    +0.087 A 
ATOM     22  N   UNL     1      -6.406  11.817  -5.271  0.00  0.00    -0.360 N 
ATOM     23  H   UNL     1      -7.223  12.306  -5.452  0.00  0.00    +0.165 HD
ATOM     24  C   UNL     1      -5.152  12.379  -5.176  0.00  0.00    +0.047 A 
ATOM     25  C   UNL     1      -4.249  11.335  -4.907  0.00  0.00    +0.003 A 
ATOM     26  C   UNL     1      -2.889  11.611  -4.757  0.00  0.00    +0.010 A 
ATOM     27  C   UNL     1      -2.441  12.898  -4.873  0.00  0.00    +0.001 A 
ATOM     28  C   UNL     1      -3.329  13.931  -5.140  0.00  0.00    +0.002 A 
ATOM     29  C   UNL     1      -4.675  13.680  -5.291  0.00  0.00    +0.026 A 
ENDBRANCH  19  20
ENDBRANCH  18  19
ENDBRANCH   4  18
TORSDOF 5
