REMARK  Name = ZINC32104148
REMARK  8 active torsions:
REMARK  status: ('A' for Active; 'I' for Inactive)
REMARK    1  A    between atoms: C_1  and  C_2
REMARK    2  A    between atoms: C_15  and  O_30
REMARK    3  A    between atoms: C_17  and  C_19
REMARK    4  A    between atoms: C_24  and  O_25
REMARK    5  A    between atoms: O_25  and  C_26
REMARK    6  A    between atoms: C_26  and  C_27
REMARK    7  A    between atoms: C_27  and  C_28
REMARK    8  A    between atoms: C_27  and  C_29
REMARK                            x       y       z     vdW  Elec       q    Type
REMARK                         _______ _______ _______ _____ _____    ______ ____
ROOT
ATOM      1  C   UNL     1      -0.018   1.503   0.010  0.00  0.00    +0.068 C 
ATOM      2  C   UNL     1       0.002  -0.004   0.002  0.00  0.00    +0.066 A 
ATOM      3  C   UNL     1       0.008  -0.806  -1.124  0.00  0.00    +0.028 A 
ATOM      4  C   UNL     1       0.032  -2.129  -0.706  0.00  0.00    +0.165 A 
ATOM      5  N   UNL     1       0.034  -2.119   0.648  0.00  0.00    -0.194 N 
ATOM      6  N   UNL     1       0.023  -0.778   1.064  0.00  0.00    -0.168 NA
ATOM      7  C   UNL     1       0.049  -3.241   1.481  0.00  0.00    +0.178 A 
ATOM      8  C   UNL     1       0.553  -3.144   2.777  0.00  0.00    +0.053 A 
ATOM      9  C   UNL     1       0.546  -4.285   3.564  0.00  0.00    +0.045 A 
ATOM     10  C   UNL     1       0.035  -5.453   3.014  0.00  0.00    +0.152 A 
ATOM     11  N   UNL     1      -0.423  -5.454   1.776  0.00  0.00    -0.136 NA
ATOM     12  N   UNL     1      -0.422  -4.399   1.045  0.00  0.00    -0.128 NA
ATOM     13 CL   UNL     1       0.001  -6.913   3.953  0.00  0.00    -0.060 Cl
ATOM     14  N   UNL     1       0.057  -3.160  -1.598  0.00  0.00    -0.197 NA
ATOM     15  C   UNL     1       0.344  -2.913  -2.841  0.00  0.00    +0.190 C 
ATOM     16  C   UNL     1       0.716  -1.552  -3.354  0.00  0.00    +0.108 C 
ATOM     17  C   UNL     1      -0.011  -0.441  -2.587  0.00  0.00    +0.067 C 
ENDROOT
BRANCH  17  18
ATOM     18  C   UNL     1      -1.436  -0.337  -3.069  0.00  0.00    +0.002 A 
ATOM     19  C   UNL     1      -2.275  -1.431  -2.987  0.00  0.00    +0.008 A 
ATOM     20  C   UNL     1      -3.582  -1.335  -3.429  0.00  0.00    +0.001 A 
ATOM     21  C   UNL     1      -4.052  -0.145  -3.954  0.00  0.00    +0.004 A 
ATOM     22  C   UNL     1      -3.216   0.952  -4.037  0.00  0.00    +0.046 A 
ATOM     23  C   UNL     1      -1.906   0.860  -3.589  0.00  0.00    +0.124 A 
BRANCH  23  24
ATOM     24  O   UNL     1      -1.084   1.940  -3.665  0.00  0.00    -0.491 OA
BRANCH  24  25
ATOM     25  C   UNL     1      -1.636   3.139  -4.212  0.00  0.00    +0.232 C 
BRANCH  25  26
ATOM     26  C   UNL     1      -0.570   4.236  -4.216  0.00  0.00    +0.020 C 
ATOM     27  C   UNL     1      -1.121   5.480  -4.914  0.00  0.00    +0.010 C 
ATOM     28  C   UNL     1      -0.192   4.585  -2.775  0.00  0.00    +0.010 C 
ENDBRANCH  25  26
ENDBRANCH  24  25
ENDBRANCH  23  24
ENDBRANCH  17  18
BRANCH  15  29
ATOM     29  O   UNL     1       0.306  -3.936  -3.720  0.00  0.00    -0.495 OA
ATOM     30  H   UNL     1       0.060  -4.784  -3.325  0.00  0.00    +0.293 HD
ENDBRANCH  15  29
TORSDOF 5
