REMARK  Name = ZINC21888163
REMARK  8 active torsions:
REMARK  status: ('A' for Active; 'I' for Inactive)
REMARK    1  A    between atoms: C_1  and  C_2
REMARK    2  A    between atoms: C_5  and  C_32
REMARK    3  A    between atoms: C_6  and  C_8
REMARK    4  A    between atoms: C_8  and  N_9
REMARK    5  A    between atoms: C_12  and  C_15
REMARK    6  A    between atoms: C_15  and  N_16
REMARK    7  A    between atoms: N_16  and  S_17
REMARK    8  A    between atoms: S_17  and  C_20
REMARK                            x       y       z     vdW  Elec       q    Type
REMARK                         _______ _______ _______ _____ _____    ______ ____
ROOT
ATOM      1  N   UNL     1      -4.305  -1.649   1.600  0.00  0.00    -0.190 NA
ATOM      2  H   UNL     1      -4.181  -2.621   2.100  0.00  0.00    +0.148 HD
ENDROOT
BRANCH   1   3
ATOM      3  S   UNL     1      -3.863  -1.494   0.012  0.00  0.00    +0.058 S 
ATOM      4  O   UNL     1      -4.839  -0.664  -0.603  0.00  0.00    -0.153 OA
ATOM      5  O   UNL     1      -3.570  -2.803  -0.458  0.00  0.00    -0.153 OA
BRANCH   3   6
ATOM      6  C   UNL     1      -2.347  -0.597  -0.021  0.00  0.00    +0.106 A 
ATOM      7  C   UNL     1      -2.356   0.784  -0.104  0.00  0.00    +0.030 A 
ATOM      8  C   UNL     1      -1.165   1.468  -0.134  0.00  0.00    +0.025 A 
ATOM      9  C   UNL     1       0.069   0.797  -0.083  0.00  0.00    +0.037 A 
ATOM     10  C   UNL     1       0.071  -0.578   0.009  0.00  0.00    -0.024 A 
ATOM     11  C   UNL     1      -1.145  -1.263   0.034  0.00  0.00    +0.034 A 
ATOM     12  C   UNL     1       1.293  -1.435   0.089  0.00  0.00    +0.037 C 
ATOM     13  C   UNL     1       2.441  -0.861   0.860  0.00  0.00    +0.014 C 
ATOM     14  C   UNL     1       3.213   0.188   0.096  0.00  0.00    +0.096 C 
ATOM     15  C   UNL     1       2.462   1.466  -0.005  0.00  0.00    +0.217 C 
ATOM     16  O   UNL     1       3.120   2.484   0.040  0.00  0.00    -0.275 OA
ATOM     17  N   UNL     1       1.174   1.614  -0.139  0.00  0.00    -0.285 N 
ATOM     18  H   UNL     1       1.054   2.688  -0.342  0.00  0.00    +0.155 HD
ENDBRANCH   3   6
ENDBRANCH   1   3
BRANCH   1  19
ATOM     19  C   UNL     1      -4.648  -0.461   2.384  0.00  0.00    +0.109 C 
BRANCH  19  23
ATOM     20  N   UNL     1      -7.663  -0.688   5.405  0.00  0.00    +0.382 N 
ATOM     21  C   UNL     1      -6.386  -0.079   5.798  0.00  0.00    -0.078 C 
ATOM     22  C   UNL     1      -5.614   0.343   4.546  0.00  0.00    -0.014 C 
ATOM     23  C   UNL     1      -5.366  -0.886   3.667  0.00  0.00    +0.001 C 
ATOM     24  C   UNL     1      -6.710  -1.529   3.312  0.00  0.00    -0.014 C 
ATOM     25  C   UNL     1      -7.450  -1.897   4.600  0.00  0.00    -0.078 C 
ATOM     26  H   UNL     1      -8.204   0.040   4.782  0.00  0.00    -0.081 HD
BRANCH  20  27
ATOM     27  C   UNL     1      -8.492  -0.979   6.583  0.00  0.00    -0.043 C 
BRANCH  27  33
ATOM     28  C   UNL     1     -12.265  -4.159   5.750  0.00  0.00    +0.044 C 
ATOM     29  C   UNL     1     -11.717  -2.755   5.749  0.00  0.00    -0.050 A 
ATOM     30  C   UNL     1     -12.517  -1.701   5.350  0.00  0.00    +0.003 A 
ATOM     31  C   UNL     1     -12.015  -0.413   5.349  0.00  0.00    +0.004 A 
ATOM     32  C   UNL     1     -10.713  -0.179   5.753  0.00  0.00    -0.049 A 
ATOM     33  C   UNL     1      -9.912  -1.234   6.148  0.00  0.00    -0.061 A 
ATOM     34  C   UNL     1     -10.415  -2.522   6.148  0.00  0.00    +0.005 A 
ATOM     35  C   UNL     1     -10.167   1.226   5.759  0.00  0.00    +0.044 C 
ENDBRANCH  27  33
ENDBRANCH  20  27
ENDBRANCH  19  23
ENDBRANCH   1  19
TORSDOF 6
