REMARK  Name = ZINC34872674
REMARK  14 active torsions:
REMARK  status: ('A' for Active; 'I' for Inactive)
REMARK    1  A    between atoms: C_1  and  C_2
REMARK    2  A    between atoms: C_5  and  O_36
REMARK    3  A    between atoms: C_6  and  N_8
REMARK    4  A    between atoms: C_9  and  C_11
REMARK    5  A    between atoms: C_11  and  C_13
REMARK    6  A    between atoms: C_11  and  O_14
REMARK    7  A    between atoms: O_14  and  C_15
REMARK    8  A    between atoms: C_15  and  C_17
REMARK    9  A    between atoms: C_20  and  O_35
REMARK   10  A    between atoms: N_23  and  S_24
REMARK   11  A    between atoms: S_24  and  C_27
REMARK   12  A    between atoms: C_30  and  C_34
REMARK   13  A    between atoms: C_31  and  C_33
REMARK   14  A    between atoms: O_36  and  C_37
REMARK                            x       y       z     vdW  Elec       q    Type
REMARK                         _______ _______ _______ _____ _____    ______ ____
ROOT
ATOM      1  C   UNL     1       1.204  -2.414   6.981  0.00  0.00    +0.327 C 
ATOM      2  O   UNL     1       1.646  -3.539   6.982  0.00  0.00    -0.249 OA
ENDROOT
BRANCH   1   3
ATOM      3  C   UNL     1       1.461  -1.503   8.154  0.00  0.00    +0.191 C 
ATOM      4  C   UNL     1       0.124  -1.107   8.815  0.00  0.00    +0.064 C 
ATOM      5  C   UNL     1       0.469  -1.113  10.327  0.00  0.00    +0.132 C 
ATOM      6  C   UNL     1       1.472  -2.290  10.414  0.00  0.00    +0.141 C 
ATOM      7  N   UNL     1       2.261  -2.207   9.168  0.00  0.00    -0.160 NA
BRANCH   7   8
ATOM      8  S   UNL     1       3.789  -2.806   8.946  0.00  0.00    +0.062 S 
ATOM      9  O   UNL     1       3.961  -3.843   9.902  0.00  0.00    -0.153 OA
ATOM     10  O   UNL     1       3.942  -3.023   7.550  0.00  0.00    -0.153 OA
BRANCH   8  11
ATOM     11  C   UNL     1       4.919  -1.526   9.383  0.00  0.00    +0.106 A 
ATOM     12  C   UNL     1       5.348  -0.626   8.425  0.00  0.00    +0.029 A 
ATOM     13  C   UNL     1       6.234   0.377   8.768  0.00  0.00    +0.005 A 
ATOM     14  C   UNL     1       6.691   0.482  10.069  0.00  0.00    -0.047 A 
ATOM     15  C   UNL     1       6.261  -0.417  11.027  0.00  0.00    -0.046 A 
ATOM     16  C   UNL     1       5.371  -1.418  10.685  0.00  0.00    +0.032 A 
ATOM     17  C   UNL     1       6.759  -0.303  12.444  0.00  0.00    +0.044 C 
ATOM     18  C   UNL     1       7.658   1.576  10.442  0.00  0.00    +0.044 C 
ENDBRANCH   8  11
ENDBRANCH   7   8
BRANCH   5  19
ATOM     19  O   UNL     1       1.085   0.116  10.716  0.00  0.00    -0.390 OA
ATOM     20  H   UNL     1       1.319   0.160  11.654  0.00  0.00    +0.210 HD
ENDBRANCH   5  19
ENDBRANCH   1   3
BRANCH   1  21
ATOM     21  O   UNL     1       0.483  -1.977   5.937  0.00  0.00    -0.451 OA
BRANCH  21  22
ATOM     22  C   UNL     1       0.279  -2.894   4.860  0.00  0.00    +0.259 C 
ATOM     23  C   UNL     1      -1.000  -3.696   5.109  0.00  0.00    +0.062 C 
BRANCH  22  25
ATOM     24  N   UNL     1       0.050  -2.795   2.399  0.00  0.00    -0.280 N 
ATOM     25  C   UNL     1       0.149  -2.130   3.568  0.00  0.00    +0.258 C 
ATOM     26  O   UNL     1       0.134  -0.917   3.579  0.00  0.00    -0.271 OA
ATOM     27  H   UNL     1      -0.018  -3.762   2.396  0.00  0.00    +0.155 HD
BRANCH  24  33
ATOM     28  C   UNL     1       1.263   1.227  -0.157  0.00  0.00    +0.044 C 
ATOM     29  C   UNL     1       0.627  -0.137  -0.079  0.00  0.00    -0.048 A 
ATOM     30  C   UNL     1       0.040  -0.689  -1.202  0.00  0.00    +0.007 A 
ATOM     31  C   UNL     1      -0.546  -1.940  -1.136  0.00  0.00    +0.048 A 
ATOM     32  C   UNL     1      -0.545  -2.643   0.058  0.00  0.00    +0.141 A 
ATOM     33  C   UNL     1       0.047  -2.088   1.189  0.00  0.00    +0.076 A 
ATOM     34  C   UNL     1       0.637  -0.835   1.114  0.00  0.00    +0.030 A 
BRANCH  32  35
ATOM     35  O   UNL     1      -1.121  -3.873   0.124  0.00  0.00    -0.493 OA
ATOM     36  C   UNL     1      -1.709  -4.380  -1.076  0.00  0.00    +0.277 C 
ENDBRANCH  32  35
ENDBRANCH  24  33
ENDBRANCH  22  25
ENDBRANCH  21  22
ENDBRANCH   1  21
TORSDOF 9
