REMARK  Name = ZINC08680404
REMARK  9 active torsions:
REMARK  status: ('A' for Active; 'I' for Inactive)
REMARK    1  A    between atoms: N_12  and  C_27
REMARK    2  A    between atoms: C_13  and  S_15
REMARK    3  A    between atoms: S_15  and  C_16
REMARK    4  A    between atoms: C_16  and  C_17
REMARK    5  A    between atoms: N_19  and  C_20
REMARK    6  A    between atoms: C_20  and  C_21
REMARK    7  A    between atoms: C_27  and  C_28
REMARK    8  A    between atoms: C_28  and  C_29
REMARK    9  A    between atoms: C_29  and  N_30
REMARK                            x       y       z     vdW  Elec       q    Type
REMARK                         _______ _______ _______ _____ _____    ______ ____
ROOT
ATOM      1  C   UNL     1      -0.016   1.356   0.009  0.00  0.00    +0.001 A 
ATOM      2  C   UNL     1       1.158   2.096   0.002  0.00  0.00    +0.001 A 
ATOM      3  C   UNL     1       2.374   1.442  -0.013  0.00  0.00    +0.016 A 
ATOM      4  C   UNL     1       2.403   0.061  -0.021  0.00  0.00    +0.022 A 
ATOM      5  C   UNL     1       1.227  -0.710  -0.013  0.00  0.00    +0.015 A 
ATOM      6  C   UNL     1       0.002  -0.004   0.002  0.00  0.00    +0.011 A 
ATOM      7  C   UNL     1       1.419  -2.172  -0.024  0.00  0.00    +0.094 A 
ATOM      8  C   UNL     1       2.740  -2.616  -0.039  0.00  0.00    +0.103 A 
ATOM      9  S   UNL     1       3.713  -1.135  -0.040  0.00  0.00    -0.081 S 
ATOM     10  C   UNL     1       3.049  -3.980  -0.050  0.00  0.00    +0.269 A 
ATOM     11  O   UNL     1       4.208  -4.359  -0.063  0.00  0.00    -0.266 OA
ATOM     12  N   UNL     1       2.027  -4.869  -0.046  0.00  0.00    -0.287 N 
ATOM     13  C   UNL     1       0.744  -4.406  -0.031  0.00  0.00    +0.173 A 
ATOM     14  N   UNL     1       0.453  -3.132  -0.019  0.00  0.00    -0.222 NA
ENDROOT
BRANCH  13  15
ATOM     15  S   UNL     1      -0.576  -5.575  -0.025  0.00  0.00    -0.078 S 
BRANCH  15  16
ATOM     16  C   UNL     1      -2.071  -4.548  -0.005  0.00  0.00    +0.173 C 
BRANCH  16  17
ATOM     17  C   UNL     1      -3.289  -5.435   0.001  0.00  0.00    +0.223 C 
ATOM     18  O   UNL     1      -3.161  -6.641  -0.007  0.00  0.00    -0.275 OA
ATOM     19  N   UNL     1      -4.521  -4.888   0.016  0.00  0.00    -0.312 N 
ATOM     20  H   UNL     1      -4.623  -3.924   0.023  0.00  0.00    +0.149 HD
BRANCH  19  21
ATOM     21  C   UNL     1      -5.705  -5.751   0.022  0.00  0.00    +0.135 C 
BRANCH  21  22
ATOM     22  C   UNL     1      -6.966  -4.885   0.040  0.00  0.00    +0.135 C 
ATOM     23  C   UNL     1      -8.216  -5.782   0.168  0.00  0.00    +0.035 C 
ATOM     24  C   UNL     1      -9.226  -5.079  -0.780  0.00  0.00    +0.031 C 
ATOM     25  C   UNL     1      -8.274  -4.552  -1.884  0.00  0.00    +0.160 C 
ATOM     26  O   UNL     1      -7.076  -4.161  -1.191  0.00  0.00    -0.375 OA
ENDBRANCH  21  22
ENDBRANCH  19  21
ENDBRANCH  16  17
ENDBRANCH  15  16
ENDBRANCH  13  15
BRANCH  12  27
ATOM     27  C   UNL     1       2.297  -6.309  -0.058  0.00  0.00    +0.125 C 
BRANCH  27  28
ATOM     28  C   UNL     1       2.405  -6.819   1.380  0.00  0.00    +0.003 C 
BRANCH  28  29
ATOM     29  C   UNL     1       2.687  -8.323   1.368  0.00  0.00    -0.077 C 
BRANCH  29  30
ATOM     30  N   UNL     1       2.790  -8.813   2.749  0.00  0.00    +0.380 N 
ATOM     31  C   UNL     1       1.464  -8.753   3.415  0.00  0.00    -0.079 C 
ATOM     32  C   UNL     1       1.601  -9.776   4.571  0.00  0.00    -0.020 C 
ATOM     33  C   UNL     1       2.447 -10.903   3.936  0.00  0.00    -0.020 C 
ATOM     34  C   UNL     1       3.181 -10.240   2.756  0.00  0.00    -0.079 C 
ATOM     35  H   UNL     1       3.464  -8.266   3.263  0.00  0.00    -0.082 HD
ENDBRANCH  29  30
ENDBRANCH  28  29
ENDBRANCH  27  28
ENDBRANCH  12  27
TORSDOF 9
