REMARK  Name = ZINC07707257
REMARK  9 active torsions:
REMARK  status: ('A' for Active; 'I' for Inactive)
REMARK    1  A    between atoms: C_1  and  C_2
REMARK    2  A    between atoms: C_3  and  C_31
REMARK    3  A    between atoms: C_11  and  C_13
REMARK    4  A    between atoms: C_13  and  C_15
REMARK    5  A    between atoms: C_13  and  O_16
REMARK    6  A    between atoms: O_16  and  C_17
REMARK    7  A    between atoms: C_17  and  C_19
REMARK    8  A    between atoms: C_19  and  O_20
REMARK    9  A    between atoms: O_20  and  C_21
REMARK                            x       y       z     vdW  Elec       q    Type
REMARK                         _______ _______ _______ _____ _____    ______ ____
ROOT
ATOM      1  C   UNL     1      -0.013   1.086   0.008  0.00  0.00    +0.239 C 
ATOM      2  C   UNL     1       1.423   1.615  -0.003  0.00  0.00    +0.060 C 
ENDROOT
BRANCH   1  13
ATOM      3  C   UNL     1      -3.809   2.579   5.329  0.00  0.00    +0.045 C 
ATOM      4  C   UNL     1      -2.518   3.066   4.722  0.00  0.00    -0.026 A 
ATOM      5  C   UNL     1      -1.833   4.067   5.296  0.00  0.00    -0.008 A 
ATOM      6  S   UNL     1      -0.420   4.267   4.228  0.00  0.00    -0.073 S 
ATOM      7  C   UNL     1      -0.791   3.001   3.042  0.00  0.00    +0.116 A 
ATOM      8  C   UNL     1      -2.002   2.459   3.509  0.00  0.00    +0.075 A 
ATOM      9  C   UNL     1      -2.547   1.391   2.724  0.00  0.00    +0.260 A 
ATOM     10  O   UNL     1      -3.593   0.855   3.048  0.00  0.00    -0.267 OA
ATOM     11  N   UNL     1      -1.885   0.988   1.624  0.00  0.00    -0.307 N 
ATOM     12  H   UNL     1      -2.260   0.243   1.072  0.00  0.00    +0.170 HD
ATOM     13  C   UNL     1      -0.718   1.572   1.248  0.00  0.00    +0.152 A 
ATOM     14  N   UNL     1      -0.194   2.544   1.945  0.00  0.00    -0.223 NA
ATOM     15  C   UNL     1      -2.176   4.838   6.545  0.00  0.00    +0.052 C 
ENDBRANCH   1  13
BRANCH   1  16
ATOM     16  O   UNL     1      -0.715   1.567  -1.168  0.00  0.00    -0.451 OA
BRANCH  16  17
ATOM     17  C   UNL     1      -0.657   0.800  -2.269  0.00  0.00    +0.346 C 
ATOM     18  O   UNL     1      -0.040  -0.238  -2.249  0.00  0.00    -0.247 OA
BRANCH  17  19
ATOM     19  C   UNL     1      -1.362   1.235  -3.528  0.00  0.00    +0.349 C 
BRANCH  19  20
ATOM     20  O   UNL     1      -1.153   0.259  -4.551  0.00  0.00    -0.481 OA
BRANCH  20  21
ATOM     21  C   UNL     1      -1.726   0.501  -5.759  0.00  0.00    +0.122 A 
ATOM     22  C   UNL     1      -2.482   1.663  -5.945  0.00  0.00    +0.046 A 
ATOM     23  C   UNL     1      -3.063   1.935  -7.144  0.00  0.00    +0.012 A 
ATOM     24  C   UNL     1      -2.913   1.033  -8.212  0.00  0.00    -0.018 A 
ATOM     25  C   UNL     1      -3.506   1.279  -9.462  0.00  0.00    +0.008 A 
ATOM     26  C   UNL     1      -3.341   0.384 -10.474  0.00  0.00    +0.001 A 
ATOM     27  C   UNL     1      -2.593  -0.777 -10.290  0.00  0.00    +0.001 A 
ATOM     28  C   UNL     1      -2.005  -1.050  -9.093  0.00  0.00    +0.008 A 
ATOM     29  C   UNL     1      -2.153  -0.149  -8.024  0.00  0.00    -0.014 A 
ATOM     30  C   UNL     1      -1.561  -0.397  -6.775  0.00  0.00    +0.054 A 
ENDBRANCH  20  21
ENDBRANCH  19  20
ENDBRANCH  17  19
ENDBRANCH  16  17
ENDBRANCH   1  16
TORSDOF 6
