REMARK  Name = ZINC14475465
REMARK  6 active torsions:
REMARK  status: ('A' for Active; 'I' for Inactive)
REMARK    1  A    between atoms: C_4  and  O_7
REMARK    2  A    between atoms: O_7  and  C_8
REMARK    3  A    between atoms: C_8  and  C_9
REMARK    4  A    between atoms: C_9  and  O_10
REMARK    5  A    between atoms: O_10  and  C_11
REMARK    6  A    between atoms: C_18  and  C_27
REMARK                            x       y       z     vdW  Elec       q    Type
REMARK                         _______ _______ _______ _____ _____    ______ ____
ROOT
ATOM      1  C   UNL     1      -4.468   9.283   1.577  0.00  0.00    +0.142 A 
ATOM      2  C   UNL     1      -5.319  10.357   1.402  0.00  0.00    +0.047 A 
ATOM      3  C   UNL     1      -6.232  10.356   0.364  0.00  0.00    +0.004 A 
ATOM      4  C   UNL     1      -6.294   9.274  -0.493  0.00  0.00    +0.006 A 
ATOM      5  C   UNL     1      -5.451   8.195  -0.323  0.00  0.00    -0.016 A 
ATOM      6  C   UNL     1      -4.515   8.184   0.712  0.00  0.00    +0.074 A 
ATOM      7  N   UNL     1      -3.610   7.144   0.940  0.00  0.00    -0.334 N 
ATOM      8  C   UNL     1      -3.727   5.965   0.067  0.00  0.00    +0.105 C 
ATOM      9  C   UNL     1      -4.048   6.469  -1.325  0.00  0.00    +0.029 C 
ATOM     10  C   UNL     1      -5.505   7.018  -1.217  0.00  0.00    +0.049 C 
ATOM     11  C   UNL     1      -5.937   7.079  -2.645  0.00  0.00    -0.023 C 
ATOM     12  C   UNL     1      -5.256   6.179  -3.345  0.00  0.00    -0.030 C 
ATOM     13  C   UNL     1      -4.283   5.432  -2.429  0.00  0.00    +0.033 C 
ATOM     14  H   UNL     1      -3.602   6.875   1.912  0.00  0.00    +0.147 HD
ENDROOT
BRANCH   8  15
ATOM     15  C   UNL     1      -2.424   5.206   0.051  0.00  0.00    -0.026 A 
ATOM     16  C   UNL     1      -1.221   5.909   0.042  0.00  0.00    +0.006 A 
ATOM     17  C   UNL     1      -0.028   5.255   0.029  0.00  0.00    +0.009 A 
ATOM     18  C   UNL     1      -0.005   3.850   0.021  0.00  0.00    -0.018 A 
ATOM     19  C   UNL     1       1.208   3.139   0.006  0.00  0.00    +0.008 A 
ATOM     20  C   UNL     1       1.191   1.779   0.000  0.00  0.00    +0.001 A 
ATOM     21  C   UNL     1      -0.013   1.076   0.008  0.00  0.00    +0.001 A 
ATOM     22  C   UNL     1      -1.206   1.730   0.017  0.00  0.00    +0.008 A 
ATOM     23  C   UNL     1      -1.229   3.135   0.030  0.00  0.00    -0.018 A 
ATOM     24  C   UNL     1      -2.441   3.845   0.045  0.00  0.00    +0.014 A 
ENDBRANCH   8  15
BRANCH   1  25
ATOM     25  O   UNL     1      -3.574   9.295   2.603  0.00  0.00    -0.487 OA
BRANCH  25  26
ATOM     26  C   UNL     1      -3.574  10.444   3.451  0.00  0.00    +0.270 C 
BRANCH  26  27
ATOM     27  C   UNL     1      -2.510  10.277   4.538  0.00  0.00    +0.270 C 
BRANCH  27  28
ATOM     28  O   UNL     1      -1.215  10.252   3.936  0.00  0.00    -0.489 OA
BRANCH  28  32
ATOM     29  C   UNL     1       2.016   9.814   6.464  0.00  0.00    +0.000 A 
ATOM     30  C   UNL     1       2.217   9.928   5.101  0.00  0.00    +0.004 A 
ATOM     31  C   UNL     1       1.137  10.075   4.252  0.00  0.00    +0.045 A 
ATOM     32  C   UNL     1      -0.150  10.108   4.769  0.00  0.00    +0.121 A 
ATOM     33  C   UNL     1      -0.349   9.999   6.138  0.00  0.00    +0.045 A 
ATOM     34  C   UNL     1       0.734   9.846   6.981  0.00  0.00    +0.004 A 
ENDBRANCH  28  32
ENDBRANCH  27  28
ENDBRANCH  26  27
ENDBRANCH  25  26
ENDBRANCH   1  25
TORSDOF 6
