REMARK  Name = ZINC21971083
REMARK  6 active torsions:
REMARK  status: ('A' for Active; 'I' for Inactive)
REMARK    1  A    between atoms: C_5  and  N_7
REMARK    2  A    between atoms: N_7  and  S_8
REMARK    3  A    between atoms: S_8  and  C_11
REMARK    4  A    between atoms: C_14  and  C_17
REMARK    5  A    between atoms: N_19  and  N_20
REMARK    6  A    between atoms: C_21  and  C_23
REMARK                            x       y       z     vdW  Elec       q    Type
REMARK                         _______ _______ _______ _____ _____    ______ ____
ROOT
ATOM      1  C   UNL     1       1.333  -0.781   0.113  0.00  0.00    +0.109 A 
ATOM      2  C   UNL     1       0.155  -0.059   0.197  0.00  0.00    +0.029 A 
ATOM      3  C   UNL     1       0.192   1.317   0.284  0.00  0.00    +0.015 A 
ATOM      4  C   UNL     1       1.419   1.982   0.287  0.00  0.00    +0.038 A 
ATOM      5  C   UNL     1       2.603   1.247   0.203  0.00  0.00    +0.015 A 
ATOM      6  C   UNL     1       2.553  -0.129   0.115  0.00  0.00    +0.029 A 
ENDROOT
BRANCH   4   7
ATOM      7  C   UNL     1       1.465   3.456   0.380  0.00  0.00    +0.260 C 
ATOM      8  O   UNL     1       0.433   4.093   0.454  0.00  0.00    -0.269 OA
ATOM      9  N   UNL     1       2.652   4.095   0.383  0.00  0.00    -0.230 N 
ATOM     10  H   UNL     1       3.587   3.518   0.317  0.00  0.00    +0.173 HD
BRANCH   9  11
ATOM     11  N   UNL     1       2.696   5.492   0.471  0.00  0.00    -0.230 N 
ATOM     12  C   UNL     1       3.883   6.130   0.474  0.00  0.00    +0.267 C 
ATOM     13  O   UNL     1       4.917   5.492   0.400  0.00  0.00    -0.268 OA
ATOM     14  H   UNL     1       1.762   6.069   0.537  0.00  0.00    +0.173 HD
BRANCH  12  15
ATOM     15  C   UNL     1       3.929   7.593   0.566  0.00  0.00    +0.076 A 
ATOM     16  C   UNL     1       5.029   8.432   0.584  0.00  0.00    +0.024 A 
ATOM     17  C   UNL     1       4.805   9.801   0.671  0.00  0.00    -0.036 A 
ATOM     18  C   UNL     1       3.515  10.199   0.761  0.00  0.00    -0.006 A 
ATOM     19  S   UNL     1       2.580   8.758   0.675  0.00  0.00    -0.088 S 
ATOM     20  C   UNL     1       3.017  11.618   0.917  0.00  0.00    +0.043 C 
ATOM     21  C   UNL     1       3.321  12.354  -0.398  0.00  0.00    +0.005 C 
ATOM     22  C   UNL     1       4.776  12.759  -0.448  0.00  0.00    +0.001 C 
ATOM     23  C   UNL     1       5.775  11.649  -0.646  0.00  0.00    +0.005 C 
ATOM     24  C   UNL     1       5.959  10.809   0.618  0.00  0.00    +0.036 C 
ENDBRANCH  12  15
ENDBRANCH   9  11
ENDBRANCH   4   7
BRANCH   1  25
ATOM     25  S   UNL     1       1.278  -2.538   0.002  0.00  0.00    +0.072 S 
ATOM     26  O   UNL     1       2.527  -3.015   0.484  0.00  0.00    -0.150 OA
ATOM     27  O   UNL     1       0.039  -2.942   0.569  0.00  0.00    -0.150 OA
BRANCH  25  28
ATOM     28  N   UNL     1       1.212  -2.926  -1.607  0.00  0.00    -0.213 N 
ATOM     29  H   UNL     1       0.352  -3.486  -2.002  0.00  0.00    +0.174 HD
BRANCH  28  34
ATOM     30  C   UNL     1       4.583  -2.154  -2.853  0.00  0.00    +0.002 A 
ATOM     31  C   UNL     1       4.303  -1.778  -4.154  0.00  0.00    +0.003 A 
ATOM     32  C   UNL     1       2.998  -1.782  -4.612  0.00  0.00    +0.040 A 
ATOM     33  C   UNL     1       1.969  -2.162  -3.770  0.00  0.00    +0.146 A 
ATOM     34  C   UNL     1       2.249  -2.541  -2.462  0.00  0.00    +0.083 A 
ATOM     35  C   UNL     1       3.560  -2.531  -2.005  0.00  0.00    +0.027 A 
ATOM     36  F   UNL     1       0.694  -2.165  -4.218  0.00  0.00    -0.204 F 
ENDBRANCH  28  34
ENDBRANCH  25  28
ENDBRANCH   1  25
TORSDOF 6
