REMARK  Name = ZINC36142323
REMARK  6 active torsions:
REMARK  status: ('A' for Active; 'I' for Inactive)
REMARK    1  A    between atoms: C_1  and  C_2
REMARK    2  A    between atoms: C_4  and  C_17
REMARK    3  A    between atoms: C_8  and  C_12
REMARK    4  A    between atoms: C_8  and  N_16
REMARK    5  A    between atoms: C_12  and  O_14
REMARK    6  A    between atoms: O_14  and  C_15
REMARK                            x       y       z     vdW  Elec       q    Type
REMARK                         _______ _______ _______ _____ _____    ______ ____
ROOT
ATOM      1  C   UNL     1      -0.018   1.503   0.010  0.00  0.00    +0.044 C 
ATOM      2  C   UNL     1       0.002  -0.004   0.002  0.00  0.00    -0.050 A 
ATOM      3  C   UNL     1       0.006  -0.689  -1.199  0.00  0.00    +0.010 A 
ATOM      4  C   UNL     1       0.026  -2.069  -1.206  0.00  0.00    -0.008 A 
ATOM      5  C   UNL     1       0.042  -2.774  -0.006  0.00  0.00    +0.129 A 
ATOM      6  C   UNL     1       0.035  -2.086   1.194  0.00  0.00    +0.025 A 
ATOM      7  C   UNL     1       0.023  -0.701   1.194  0.00  0.00    +0.013 A 
ATOM      8  C   UNL     1       0.041  -2.812   2.515  0.00  0.00    +0.147 C 
ATOM      9  C   UNL     1       0.497  -4.258   2.308  0.00  0.00    +0.079 C 
ATOM     10  C   UNL     1      -0.290  -4.847   1.130  0.00  0.00    +0.232 C 
ATOM     11  O   UNL     1       0.068  -4.132  -0.053  0.00  0.00    -0.491 OA
ATOM     12  C   UNL     1       0.031  -2.814  -2.516  0.00  0.00    +0.047 C 
ENDROOT
BRANCH   8  13
ATOM     13  N   UNL     1      -1.314  -2.803   3.084  0.00  0.00    -0.312 NA
ATOM     14  H   UNL     1      -1.337  -3.284   3.971  0.00  0.00    +0.120 HD
ATOM     15  H   UNL     1      -1.662  -1.860   3.174  0.00  0.00    +0.120 HD
ENDBRANCH   8  13
BRANCH   8  16
ATOM     16  C   UNL     1       0.986  -2.120   3.464  0.00  0.00    +0.332 C 
ATOM     17  O   UNL     1       1.902  -1.461   3.030  0.00  0.00    -0.248 OA
BRANCH  16  18
ATOM     18  O   UNL     1       0.810  -2.235   4.789  0.00  0.00    -0.466 OA
ATOM     19  C   UNL     1       1.744  -1.552   5.629  0.00  0.00    +0.280 C 
ENDBRANCH  16  18
ENDBRANCH   8  16
TORSDOF 3
