REMARK  Name = ZINC03178397
REMARK  9 active torsions:
REMARK  status: ('A' for Active; 'I' for Inactive)
REMARK    1  A    between atoms: C_1  and  C_2
REMARK    2  A    between atoms: C_6  and  C_28
REMARK    3  A    between atoms: C_8  and  O_11
REMARK    4  A    between atoms: O_11  and  P_12
REMARK    5  A    between atoms: P_12  and  C_14
REMARK    6  A    between atoms: P_12  and  N_20
REMARK    7  A    between atoms: N_20  and  C_21
REMARK    8  A    between atoms: C_28  and  C_29
REMARK    9  A    between atoms: C_28  and  C_30
REMARK                            x       y       z     vdW  Elec       q    Type
REMARK                         _______ _______ _______ _____ _____    ______ ____
ROOT
ATOM      1  P   UNL     1      -0.162  -1.292   0.744  0.00  0.00    +0.318 P 
ATOM      2  O   UNL     1       0.256  -0.971   2.127  0.00  0.00    -0.264 OA
ENDROOT
BRANCH   1   3
ATOM      3  C   UNL     1      -1.973  -1.283   0.642  0.00  0.00    +0.055 A 
ATOM      4  C   UNL     1      -2.638  -0.133   0.258  0.00  0.00    +0.015 A 
ATOM      5  C   UNL     1      -4.018  -0.127   0.176  0.00  0.00    +0.001 A 
ATOM      6  C   UNL     1      -4.734  -1.268   0.488  0.00  0.00    +0.000 A 
ATOM      7  C   UNL     1      -4.069  -2.416   0.878  0.00  0.00    +0.001 A 
ATOM      8  C   UNL     1      -2.689  -2.423   0.955  0.00  0.00    +0.015 A 
ENDBRANCH   1   3
BRANCH   1   9
ATOM      9  N   UNL     1       0.401  -2.777   0.333  0.00  0.00    -0.271 N 
ATOM     10  H   UNL     1       0.884  -3.309   0.984  0.00  0.00    +0.156 HD
BRANCH   9  11
ATOM     11  C   UNL     1       0.184  -3.275  -0.954  0.00  0.00    +0.034 A 
ATOM     12  C   UNL     1      -0.442  -2.484  -1.910  0.00  0.00    +0.024 A 
ATOM     13  C   UNL     1      -0.650  -2.978  -3.183  0.00  0.00    +0.016 A 
ATOM     14  C   UNL     1      -0.246  -4.261  -3.503  0.00  0.00    +0.013 A 
ATOM     15  C   UNL     1       0.372  -5.053  -2.552  0.00  0.00    +0.016 A 
ATOM     16  C   UNL     1       0.588  -4.563  -1.279  0.00  0.00    +0.024 A 
ATOM     17  I   UNL     1      -0.572  -5.008  -5.433  0.00  0.00    -0.044 I 
ENDBRANCH   9  11
ENDBRANCH   1   9
BRANCH   1  18
ATOM     18  O   UNL     1       0.438  -0.192  -0.268  0.00  0.00    -0.307 OA
BRANCH  18  24
ATOM     19  C   UNL     1      -1.274   3.863  -2.453  0.00  0.00    +0.007 C 
ATOM     20  C   UNL     1      -0.632   3.289  -1.189  0.00  0.00    -0.012 C 
ATOM     21  C   UNL     1       0.713   3.977  -0.943  0.00  0.00    +0.004 C 
ATOM     22  C   UNL     1       1.355   3.403   0.322  0.00  0.00    +0.006 C 
ATOM     23  C   UNL     1       1.576   1.899   0.144  0.00  0.00    +0.021 C 
ATOM     24  C   UNL     1       0.232   1.212  -0.102  0.00  0.00    +0.131 C 
ATOM     25  C   UNL     1      -0.411   1.786  -1.366  0.00  0.00    +0.035 C 
BRANCH  23  26
ATOM     26  C   UNL     1       2.219   1.325   1.408  0.00  0.00    -0.012 C 
ATOM     27  C   UNL     1       3.631   1.893   1.565  0.00  0.00    +0.007 C 
ATOM     28  C   UNL     1       1.377   1.708   2.627  0.00  0.00    +0.007 C 
ENDBRANCH  23  26
ENDBRANCH  18  24
ENDBRANCH   1  18
TORSDOF 6
