REMARK  Name = ZINC16974278
REMARK  8 active torsions:
REMARK  status: ('A' for Active; 'I' for Inactive)
REMARK    1  A    between atoms: C_1  and  O_2
REMARK    2  A    between atoms: O_2  and  C_3
REMARK    3  A    between atoms: C_8  and  N_9
REMARK    4  A    between atoms: C_12  and  S_19
REMARK    5  A    between atoms: S_19  and  C_20
REMARK    6  A    between atoms: C_20  and  C_21
REMARK    7  A    between atoms: N_23  and  C_24
REMARK    8  A    between atoms: C_27  and  C_30
REMARK                            x       y       z     vdW  Elec       q    Type
REMARK                         _______ _______ _______ _____ _____    ______ ____
ROOT
ATOM      1  N   UNL     1       0.113  -2.778  -0.100  0.00  0.00    -0.210 N 
ATOM      2  C   UNL     1       0.103  -4.143  -0.049  0.00  0.00    +0.171 A 
ATOM      3  N   UNL     1       0.560  -5.110  -0.842  0.00  0.00    -0.202 NA
ATOM      4  C   UNL     1       0.395  -6.381  -0.516  0.00  0.00    +0.194 A 
ATOM      5  N   UNL     1      -0.224  -6.755   0.599  0.00  0.00    -0.183 NA
ATOM      6  C   UNL     1      -0.710  -5.861   1.447  0.00  0.00    +0.285 A 
ATOM      7  O   UNL     1      -1.339  -6.252   2.580  0.00  0.00    -0.265 OA
ATOM      8  C   UNL     1      -0.558  -4.495   1.144  0.00  0.00    +0.105 A 
ATOM      9  C   UNL     1      -0.931  -3.291   1.781  0.00  0.00    +0.150 A 
ATOM     10  N   UNL     1      -0.527  -2.292   1.047  0.00  0.00    -0.172 NA
ENDROOT
BRANCH   1  16
ATOM     11  C   UNL     1       0.620  -0.607  -1.047  0.00  0.00    +0.145 A 
ATOM     12  C   UNL     1       1.180   0.159  -2.057  0.00  0.00    +0.048 A 
ATOM     13  C   UNL     1       1.784  -0.456  -3.137  0.00  0.00    +0.004 A 
ATOM     14  C   UNL     1       1.833  -1.836  -3.214  0.00  0.00    +0.002 A 
ATOM     15  C   UNL     1       1.277  -2.607  -2.211  0.00  0.00    +0.031 A 
ATOM     16  C   UNL     1       0.673  -1.997  -1.121  0.00  0.00    +0.109 A 
BRANCH  11  18
ATOM     17  C   UNL     1       0.006   1.425   0.025  0.00  0.00    +0.277 C 
ATOM     18  O   UNL     1       0.024  -0.004   0.016  0.00  0.00    -0.493 OA
ENDBRANCH  11  18
ENDBRANCH   1  16
BRANCH   4  19
ATOM     19  S   UNL     1       1.017  -7.623  -1.599  0.00  0.00    -0.077 S 
BRANCH  19  20
ATOM     20  C   UNL     1       0.580  -9.181  -0.779  0.00  0.00    +0.173 C 
BRANCH  20  21
ATOM     21  C   UNL     1       1.061 -10.340  -1.612  0.00  0.00    +0.227 C 
ATOM     22  O   UNL     1       1.642 -10.136  -2.657  0.00  0.00    -0.275 OA
ATOM     23  N   UNL     1       0.846 -11.604  -1.197  0.00  0.00    -0.285 N 
ATOM     24  H   UNL     1       0.442 -11.767  -0.331  0.00  0.00    +0.155 HD
BRANCH  23  25
ATOM     25  C   UNL     1       1.206 -12.680  -2.015  0.00  0.00    +0.033 A 
ATOM     26  C   UNL     1       0.428 -13.830  -2.035  0.00  0.00    +0.024 A 
ATOM     27  C   UNL     1       0.786 -14.891  -2.844  0.00  0.00    +0.014 A 
ATOM     28  C   UNL     1       1.918 -14.809  -3.633  0.00  0.00    +0.055 A 
ATOM     29  C   UNL     1       2.695 -13.665  -3.616  0.00  0.00    +0.014 A 
ATOM     30  C   UNL     1       2.339 -12.598  -2.814  0.00  0.00    +0.024 A 
BRANCH  28  31
ATOM     31  C   UNL     1       2.306 -15.968  -4.515  0.00  0.00    +0.417 C 
ATOM     32  F   UNL     1       1.704 -15.822  -5.769  0.00  0.00    -0.166 F 
ATOM     33  F   UNL     1       3.697 -15.995  -4.665  0.00  0.00    -0.166 F 
ATOM     34  F   UNL     1       1.877 -17.163  -3.928  0.00  0.00    -0.166 F 
ENDBRANCH  28  31
ENDBRANCH  23  25
ENDBRANCH  20  21
ENDBRANCH  19  20
ENDBRANCH   4  19
TORSDOF 7
