REMARK  Name = ZINC03047716
REMARK  15 active torsions:
REMARK  status: ('A' for Active; 'I' for Inactive)
REMARK    1  A    between atoms: C_1  and  C_2
REMARK    2  A    between atoms: C_2  and  N_72
REMARK    3  A    between atoms: C_3  and  C_4
REMARK    4  A    between atoms: C_3  and  N_72
REMARK    5  A    between atoms: C_5  and  C_6
REMARK    6  A    between atoms: C_5  and  N_72
REMARK    7  A    between atoms: C_6  and  C_8
REMARK    8  A    between atoms: C_6  and  C_9
REMARK    9  A    between atoms: C_9  and  N_10
REMARK   10  A    between atoms: C_11  and  C_13
REMARK   11  A    between atoms: C_14  and  C_35
REMARK   12  A    between atoms: C_17  and  S_22
REMARK   13  A    between atoms: S_22  and  N_25
REMARK   14  A    between atoms: C_27  and  C_34
REMARK   15  A    between atoms: C_30  and  C_33
REMARK                            x       y       z     vdW  Elec       q    Type
REMARK                         _______ _______ _______ _____ _____    ______ ____
ROOT
ATOM      1  C   UNL     1      -6.367  -2.243  -0.808  0.00  0.00    +0.193 A 
ATOM      2  C   UNL     1      -5.274  -1.791  -0.140  0.00  0.00    +0.008 A 
ATOM      3  C   UNL     1      -4.197  -2.735  -0.439  0.00  0.00    +0.026 A 
ATOM      4  C   UNL     1      -2.856  -2.832  -0.063  0.00  0.00    +0.040 A 
ATOM      5  C   UNL     1      -2.094  -3.864  -0.533  0.00  0.00    +0.106 A 
ATOM      6  C   UNL     1      -2.647  -4.822  -1.372  0.00  0.00    +0.032 A 
ATOM      7  C   UNL     1      -3.970  -4.746  -1.751  0.00  0.00    +0.049 A 
ATOM      8  C   UNL     1      -4.763  -3.702  -1.290  0.00  0.00    +0.136 A 
ATOM      9  O   UNL     1      -6.055  -3.370  -1.482  0.00  0.00    -0.450 OA
ATOM     10  C   UNL     1      -5.189  -0.566   0.733  0.00  0.00    +0.048 C 
ENDROOT
BRANCH   1  12
ATOM     11  N   UNL     1      -8.705  -2.142  -1.500  0.00  0.00    -0.309 N 
ATOM     12  C   UNL     1      -7.690  -1.603  -0.797  0.00  0.00    +0.280 C 
ATOM     13  O   UNL     1      -7.868  -0.586  -0.154  0.00  0.00    -0.267 OA
ATOM     14  H   UNL     1      -8.563  -2.953  -2.013  0.00  0.00    +0.149 HD
BRANCH  11  15
ATOM     15  C   UNL     1     -10.024  -1.504  -1.490  0.00  0.00    +0.106 C 
BRANCH  15  16
ATOM     16  C   UNL     1     -10.988  -2.311  -2.361  0.00  0.00    -0.014 C 
ATOM     17  C   UNL     1     -11.203  -3.693  -1.739  0.00  0.00    +0.007 C 
BRANCH  16  18
ATOM     18  C   UNL     1     -12.329  -1.579  -2.451  0.00  0.00    -0.074 C 
BRANCH  18  19
ATOM     19  N   UNL     1     -13.215  -2.319  -3.374  0.00  0.00    +0.380 N 
ATOM     20  H   UNL     1     -13.245  -3.305  -3.089  0.00  0.00    -0.082 HD
BRANCH  19  22
ATOM     21  C   UNL     1     -15.266  -2.267  -2.045  0.00  0.00    -0.017 C 
ATOM     22  C   UNL     1     -14.583  -1.761  -3.317  0.00  0.00    -0.082 C 
ENDBRANCH  19  22
BRANCH  19  23
ATOM     23  C   UNL     1     -12.692  -2.234  -4.753  0.00  0.00    -0.082 C 
ATOM     24  C   UNL     1     -13.392  -3.290  -5.611  0.00  0.00    -0.017 C 
ENDBRANCH  19  23
ENDBRANCH  18  19
ENDBRANCH  16  18
ENDBRANCH  15  16
ENDBRANCH  11  15
ENDBRANCH   1  12
BRANCH   5  25
ATOM     25  S   UNL     1      -0.400  -3.986  -0.064  0.00  0.00    +0.061 S 
ATOM     26  O   UNL     1      -0.039  -5.354  -0.196  0.00  0.00    -0.153 OA
ATOM     27  O   UNL     1      -0.265  -3.277   1.160  0.00  0.00    -0.153 OA
BRANCH  25  28
ATOM     28  N   UNL     1       0.481  -3.153  -1.192  0.00  0.00    -0.176 NA
ATOM     29  C   UNL     1       0.764  -1.722  -1.014  0.00  0.00    +0.112 C 
ATOM     30  C   UNL     1       2.276  -1.502  -1.125  0.00  0.00    +0.002 C 
ATOM     31  C   UNL     1       2.776  -2.081  -2.451  0.00  0.00    +0.009 C 
ATOM     32  C   UNL     1       2.504  -3.587  -2.486  0.00  0.00    +0.002 C 
ATOM     33  C   UNL     1       0.995  -3.831  -2.390  0.00  0.00    +0.112 C 
ATOM     34  C   UNL     1       3.034  -4.171  -3.797  0.00  0.00    +0.009 C 
ATOM     35  C   UNL     1       2.578  -0.002  -1.077  0.00  0.00    +0.009 C 
ENDBRANCH  25  28
ENDBRANCH   5  25
TORSDOF 9
