REMARK  Name = ZINC16769696
REMARK  7 active torsions:
REMARK  status: ('A' for Active; 'I' for Inactive)
REMARK    1  A    between atoms: C_1  and  C_2
REMARK    2  A    between atoms: C_5  and  C_8
REMARK    3  A    between atoms: N_10  and  C_20
REMARK    4  A    between atoms: N_13  and  C_14
REMARK    5  A    between atoms: C_20  and  C_21
REMARK    6  A    between atoms: N_23  and  C_24
REMARK    7  A    between atoms: C_29  and  N_30
REMARK                            x       y       z     vdW  Elec       q    Type
REMARK                         _______ _______ _______ _____ _____    ______ ____
ROOT
ATOM      1  C   UNL     1       2.817   4.669  -0.990  0.00  0.00    +0.167 A 
ATOM      2  N   UNL     1       3.973   5.163  -0.645  0.00  0.00    -0.150 NA
ATOM      3  N   UNL     1       4.293   4.673   0.628  0.00  0.00    -0.231 N 
ATOM      4  C   UNL     1       3.279   3.876   1.023  0.00  0.00    +0.183 A 
ATOM      5  S   UNL     1       3.176   3.035   2.511  0.00  0.00    -0.011 S 
ATOM      6  N   UNL     1       2.364   3.858   0.034  0.00  0.00    -0.271 N 
ENDROOT
BRANCH   1  11
ATOM      7  C   UNL     1       0.064   5.689  -5.941  0.00  0.00    +0.044 C 
ATOM      8  C   UNL     1       0.785   5.421  -4.645  0.00  0.00    -0.050 A 
ATOM      9  C   UNL     1       1.839   6.232  -4.263  0.00  0.00    +0.004 A 
ATOM     10  C   UNL     1       2.503   5.993  -3.077  0.00  0.00    +0.012 A 
ATOM     11  C   UNL     1       2.110   4.931  -2.263  0.00  0.00    +0.020 A 
ATOM     12  C   UNL     1       1.050   4.113  -2.656  0.00  0.00    +0.012 A 
ATOM     13  C   UNL     1       0.391   4.366  -3.842  0.00  0.00    +0.004 A 
ENDBRANCH   1  11
BRANCH   6  14
ATOM     14  C   UNL     1       1.157   3.146   0.044  0.00  0.00    +0.050 A 
ATOM     15  C   UNL     1       1.170   1.758   0.057  0.00  0.00    +0.026 A 
ATOM     16  C   UNL     1      -0.021   1.058   0.068  0.00  0.00    +0.002 A 
ATOM     17  C   UNL     1      -1.225   1.739   0.060  0.00  0.00    +0.000 A 
ATOM     18  C   UNL     1      -1.240   3.122   0.053  0.00  0.00    +0.002 A 
ATOM     19  C   UNL     1      -0.053   3.827   0.043  0.00  0.00    +0.026 A 
ENDBRANCH   6  14
BRANCH   3  20
ATOM     20  C   UNL     1       5.505   4.976   1.393  0.00  0.00    +0.242 C 
BRANCH  20  21
ATOM     21  C   UNL     1       5.267   6.194   2.249  0.00  0.00    +0.239 C 
ATOM     22  O   UNL     1       4.191   6.754   2.222  0.00  0.00    -0.273 OA
ATOM     23  N   UNL     1       6.250   6.661   3.044  0.00  0.00    -0.282 N 
ATOM     24  H   UNL     1       7.088   6.178   3.114  0.00  0.00    +0.155 HD
BRANCH  23  25
ATOM     25  C   UNL     1       6.062   7.844   3.767  0.00  0.00    +0.064 A 
ATOM     26  C   UNL     1       4.810   8.152   4.283  0.00  0.00    +0.025 A 
ATOM     27  C   UNL     1       4.628   9.318   5.001  0.00  0.00    +0.002 A 
ATOM     28  C   UNL     1       5.689  10.183   5.197  0.00  0.00    +0.002 A 
ATOM     29  C   UNL     1       6.936   9.882   4.681  0.00  0.00    +0.034 A 
ATOM     30  C   UNL     1       7.125   8.715   3.966  0.00  0.00    +0.147 A 
BRANCH  30  31
ATOM     31  N   UNL     1       8.460   8.393   3.413  0.00  0.00    +0.058 N 
ATOM     32  O   UNL     1       9.414   9.105   3.671  0.00  0.00    -0.126 OA
ATOM     33  O   UNL     1       8.604   7.416   2.700  0.00  0.00    -0.126 OA
ENDBRANCH  30  31
ENDBRANCH  23  25
ENDBRANCH  20  21
ENDBRANCH   3  20
TORSDOF 6
