REMARK  Name = ZINC43534386
REMARK  4 active torsions:
REMARK  status: ('A' for Active; 'I' for Inactive)
REMARK    1  A    between atoms: C_1  and  C_2
REMARK    2  A    between atoms: C_2  and  C_3
REMARK    3  A    between atoms: C_8  and  O_9
REMARK    4  A    between atoms: O_9  and  C_10
REMARK                            x       y       z     vdW  Elec       q    Type
REMARK                         _______ _______ _______ _____ _____    ______ ____
ROOT
ATOM      1  C   UNL     1       2.879  -1.185   0.860  0.00  0.00    +0.226 A 
ATOM      2  C   UNL     1       3.510  -0.863   2.060  0.00  0.00    +0.107 A 
ATOM      3  C   UNL     1       3.556  -1.820   3.058  0.00  0.00    +0.138 A 
ATOM      4  N   UNL     1       3.004  -3.006   2.845  0.00  0.00    -0.203 NA
ATOM      5  C   UNL     1       2.411  -3.282   1.693  0.00  0.00    +0.217 A 
ATOM      6  N   UNL     1       2.341  -2.391   0.716  0.00  0.00    -0.179 NA
ATOM      7  N   UNL     1       1.845  -4.532   1.508  0.00  0.00    -0.327 N 
ATOM      8 CL   UNL     1       4.331  -1.472   4.573  0.00  0.00    -0.062 Cl
ATOM      9  H   UNL     1       1.886  -5.192   2.217  0.00  0.00    +0.145 HD
ATOM     10  H   UNL     1       1.408  -4.747   0.669  0.00  0.00    +0.145 HD
ENDROOT
BRANCH   1  11
ATOM     11  O   UNL     1       2.810  -0.278  -0.145  0.00  0.00    -0.438 OA
BRANCH  11  17
ATOM     12  C   UNL     1       0.741  -0.404  -1.313  0.00  0.00    -0.005 A 
ATOM     13  C   UNL     1       0.034  -0.742  -2.451  0.00  0.00    +0.007 A 
ATOM     14  C   UNL     1       0.690  -1.294  -3.535  0.00  0.00    +0.000 A 
ATOM     15  C   UNL     1       2.055  -1.509  -3.484  0.00  0.00    +0.004 A 
ATOM     16  C   UNL     1       2.767  -1.173  -2.349  0.00  0.00    +0.046 A 
ATOM     17  C   UNL     1       2.111  -0.614  -1.261  0.00  0.00    +0.134 A 
BRANCH  12  19
ATOM     18  C   UNL     1       0.114   1.723  -0.204  0.00  0.00    +0.009 C 
ATOM     19  C   UNL     1       0.025   0.198  -0.131  0.00  0.00    +0.035 C 
ENDBRANCH  12  19
ENDBRANCH  11  17
ENDBRANCH   1  11
TORSDOF 3
