REMARK  Name = ZINC17317301
REMARK  8 active torsions:
REMARK  status: ('A' for Active; 'I' for Inactive)
REMARK    1  A    between atoms: C_1  and  C_2
REMARK    2  A    between atoms: C_2  and  C_4
REMARK    3  A    between atoms: C_2  and  N_61
REMARK    4  A    between atoms: C_14  and  C_15
REMARK    5  A    between atoms: C_14  and  N_61
REMARK    6  A    between atoms: N_17  and  C_26
REMARK    7  A    between atoms: C_19  and  C_20
REMARK    8  A    between atoms: C_26  and  C_27
REMARK                            x       y       z     vdW  Elec       q    Type
REMARK                         _______ _______ _______ _____ _____    ______ ____
ROOT
ATOM      1  C   UNL     1       3.188   5.360  -3.182  0.00  0.00    -0.019 A 
ATOM      2  C   UNL     1       3.624   4.098  -2.972  0.00  0.00    +0.111 A 
ATOM      3  N   UNL     1       3.266   3.736  -1.722  0.00  0.00    -0.266 N 
ATOM      4  N   UNL     1       2.578   4.807  -1.137  0.00  0.00    -0.171 NA
ATOM      5  C   UNL     1       2.534   5.790  -2.011  0.00  0.00    +0.095 A 
ENDROOT
BRANCH   5   6
ATOM      6  C   UNL     1       1.900   7.116  -1.803  0.00  0.00    +0.020 A 
ATOM      7  C   UNL     1       0.659   7.218  -1.168  0.00  0.00    +0.013 A 
ATOM      8  C   UNL     1       0.111   8.478  -0.997  0.00  0.00    +0.020 A 
ATOM      9  C   UNL     1       0.802   9.584  -1.456  0.00  0.00    +0.111 A 
ATOM     10  N   UNL     1       1.972   9.457  -2.051  0.00  0.00    -0.263 NA
ATOM     11  C   UNL     1       2.536   8.280  -2.231  0.00  0.00    +0.120 A 
ENDBRANCH   5   6
BRANCH   1  12
ATOM     12  C   UNL     1       3.369   6.163  -4.444  0.00  0.00    -0.042 C 
BRANCH  12  13
ATOM     13  N   UNL     1       2.082   6.232  -5.162  0.00  0.00    +0.386 N 
ATOM     14  H   UNL     1       1.817   5.290  -5.472  0.00  0.00    -0.085 HD
ATOM     15  H   UNL     1       1.361   6.600  -4.530  0.00  0.00    -0.085 HD
BRANCH  13  17
ATOM     16  C   UNL     1       2.745   6.322  -7.523  0.00  0.00    -0.009 C 
ATOM     17  C   UNL     1       2.197   7.117  -6.336  0.00  0.00    -0.044 C 
BRANCH  17  18
ATOM     18  C   UNL     1       0.835   7.661  -6.681  0.00  0.00    -0.061 A 
ATOM     19  C   UNL     1      -0.277   6.843  -6.608  0.00  0.00    +0.002 A 
ATOM     20  C   UNL     1      -1.521   7.348  -6.923  0.00  0.00    +0.004 A 
ATOM     21  C   UNL     1      -1.665   8.670  -7.325  0.00  0.00    -0.044 A 
ATOM     22  C   UNL     1      -0.557   9.484  -7.400  0.00  0.00    -0.044 A 
ATOM     23  C   UNL     1       0.694   8.974  -7.077  0.00  0.00    +0.006 A 
ATOM     24  C   UNL     1      -0.639  10.929  -7.819  0.00  0.00    +0.035 C 
ATOM     25  C   UNL     1      -1.959  11.206  -8.536  0.00  0.00    +0.005 C 
ATOM     26  C   UNL     1      -3.104  10.679  -7.663  0.00  0.00    +0.005 C 
ATOM     27  C   UNL     1      -3.050   9.152  -7.668  0.00  0.00    +0.035 C 
ENDBRANCH  17  18
ENDBRANCH  13  17
ENDBRANCH  12  13
ENDBRANCH   1  12
BRANCH   3  28
ATOM     28  C   UNL     1       3.542   2.444  -1.088  0.00  0.00    +0.178 C 
BRANCH  28  29
ATOM     29  C   UNL     1       4.265   2.668   0.215  0.00  0.00    -0.026 A 
ATOM     30  C   UNL     1       3.547   2.827   1.385  0.00  0.00    +0.005 A 
ATOM     31  C   UNL     1       4.211   3.032   2.581  0.00  0.00    +0.000 A 
ATOM     32  C   UNL     1       5.592   3.084   2.605  0.00  0.00    +0.000 A 
ATOM     33  C   UNL     1       6.310   2.920   1.435  0.00  0.00    +0.000 A 
ATOM     34  C   UNL     1       5.647   2.715   0.240  0.00  0.00    +0.005 A 
ENDBRANCH  28  29
ENDBRANCH   3  28
TORSDOF 7
