REMARK  Name = ZINC09021684
REMARK  9 active torsions:
REMARK  status: ('A' for Active; 'I' for Inactive)
REMARK    1  A    between atoms: C_1  and  C_2
REMARK    2  A    between atoms: C_8  and  N_10
REMARK    3  A    between atoms: C_14  and  C_16
REMARK    4  A    between atoms: C_16  and  O_17
REMARK    5  A    between atoms: O_17  and  C_18
REMARK    6  A    between atoms: C_18  and  C_20
REMARK    7  A    between atoms: C_20  and  S_21
REMARK    8  A    between atoms: S_21  and  C_22
REMARK    9  A    between atoms: C_25  and  C_27
REMARK                            x       y       z     vdW  Elec       q    Type
REMARK                         _______ _______ _______ _____ _____    ______ ____
ROOT
ATOM      1  O   UNL     1       5.959  -2.794  -0.070  0.00  0.00    -0.455 OA
ENDROOT
BRANCH   1   2
ATOM      2  C   UNL     1       5.528  -1.523  -0.059  0.00  0.00    +0.318 C 
ATOM      3  O   UNL     1       6.325  -0.615  -0.063  0.00  0.00    -0.250 OA
BRANCH   2   4
ATOM      4  C   UNL     1       4.050  -1.228  -0.043  0.00  0.00    +0.199 C 
BRANCH   4   5
ATOM      5  S   UNL     1       3.792   0.563  -0.032  0.00  0.00    -0.054 S 
BRANCH   5   6
ATOM      6  C   UNL     1       2.031   0.618  -0.014  0.00  0.00    +0.278 A 
ATOM      7  N   UNL     1       1.221  -0.415  -0.012  0.00  0.00    -0.101 NA
ATOM      8  N   UNL     1       0.002  -0.004   0.002  0.00  0.00    -0.106 NA
ATOM      9  C   UNL     1      -0.016   1.306   0.009  0.00  0.00    +0.249 A 
ATOM     10  O   UNL     1       1.268   1.728  -0.001  0.00  0.00    -0.411 OA
BRANCH   9  11
ATOM     11  C   UNL     1      -1.218   2.165   0.020  0.00  0.00    +0.039 A 
ATOM     12  C   UNL     1      -1.087   3.555   0.032  0.00  0.00    +0.014 A 
ATOM     13  C   UNL     1      -2.213   4.351   0.036  0.00  0.00    +0.021 A 
ATOM     14  C   UNL     1      -3.472   3.774   0.040  0.00  0.00    +0.041 A 
ATOM     15  C   UNL     1      -3.609   2.396   0.034  0.00  0.00    +0.021 A 
ATOM     16  C   UNL     1      -2.490   1.589   0.024  0.00  0.00    +0.014 A 
ATOM     17 CL   UNL     1      -4.885   4.783   0.053  0.00  0.00    -0.084 Cl
ENDBRANCH   9  11
ENDBRANCH   5   6
ENDBRANCH   4   5
ENDBRANCH   2   4
ENDBRANCH   1   2
BRANCH   1  18
ATOM     18  C   UNL     1       7.396  -3.002  -0.086  0.00  0.00    +0.328 C 
BRANCH  18  23
ATOM     19  N   UNL     1      10.502  -6.671  -0.135  0.00  0.00    -0.296 N 
ATOM     20  C   UNL     1       9.226  -6.237  -0.120  0.00  0.00    +0.306 C 
ATOM     21  O   UNL     1       8.312  -7.038  -0.115  0.00  0.00    -0.252 OA
ATOM     22  N   UNL     1       8.964  -4.915  -0.111  0.00  0.00    -0.237 N 
ATOM     23  C   UNL     1       7.689  -4.481  -0.096  0.00  0.00    +0.258 C 
ATOM     24  O   UNL     1       6.777  -5.279  -0.091  0.00  0.00    -0.272 OA
ATOM     25  H   UNL     1      11.232  -6.032  -0.139  0.00  0.00    +0.151 HD
ATOM     26  H   UNL     1       9.694  -4.276  -0.115  0.00  0.00    +0.159 HD
BRANCH  19  33
ATOM     27  C   UNL     1      12.172  -7.819  -2.204  0.00  0.00    +0.009 C 
ATOM     28  C   UNL     1      12.162  -8.351  -0.770  0.00  0.00    +0.006 C 
ATOM     29  C   UNL     1      13.230  -7.626   0.051  0.00  0.00    +0.005 C 
ATOM     30  C   UNL     1      13.220  -8.158   1.485  0.00  0.00    +0.000 C 
ATOM     31  C   UNL     1      11.845  -7.915   2.110  0.00  0.00    +0.002 C 
ATOM     32  C   UNL     1      10.777  -8.640   1.289  0.00  0.00    +0.022 C 
ATOM     33  C   UNL     1      10.787  -8.108  -0.145  0.00  0.00    +0.077 C 
ENDBRANCH  19  33
ENDBRANCH  18  23
ENDBRANCH   1  18
TORSDOF 8
