REMARK  Name = ZINC64491131
REMARK  5 active torsions:
REMARK  status: ('A' for Active; 'I' for Inactive)
REMARK    1  A    between atoms: C_1  and  C_2
REMARK    2  A    between atoms: C_19  and  C_20
REMARK    3  A    between atoms: N_22  and  C_23
REMARK    4  A    between atoms: C_23  and  C_24
REMARK    5  A    between atoms: C_24  and  C_25
REMARK                            x       y       z     vdW  Elec       q    Type
REMARK                         _______ _______ _______ _____ _____    ______ ____
ROOT
ATOM      1  C   UNL     1      -0.019   1.526   0.010  0.00  0.00    +0.009 C 
ATOM      2  C   UNL     1       0.002  -0.004   0.002  0.00  0.00    +0.003 C 
ATOM      3  C   UNL     1       0.720  -0.498  -1.256  0.00  0.00    +0.006 C 
ATOM      4  C   UNL     1       0.712  -2.028  -1.282  0.00  0.00    +0.019 C 
ATOM      5  C   UNL     1       1.463  -2.559  -0.057  0.00  0.00    +0.107 C 
ATOM      6  N   UNL     1       0.869  -1.973   1.153  0.00  0.00    -0.308 N 
ATOM      7  C   UNL     1       0.744  -0.512   1.242  0.00  0.00    +0.110 C 
ATOM      8  C   UNL     1       0.436  -2.782   2.187  0.00  0.00    +0.177 C 
ATOM      9  N   UNL     1      -0.113  -2.421   3.313  0.00  0.00    -0.154 NA
ATOM     10  N   UNL     1      -0.559  -3.319   4.256  0.00  0.00    -0.186 N 
ATOM     11  C   UNL     1      -0.172  -4.734   3.991  0.00  0.00    +0.251 C 
ATOM     12  S   UNL     1       0.490  -4.565   2.289  0.00  0.00    -0.045 S 
ATOM     13  N   UNL     1      -1.412  -5.513   3.996  0.00  0.00    -0.283 N 
ATOM     14  C   UNL     1      -2.395  -5.159   4.853  0.00  0.00    +0.241 C 
ATOM     15  O   UNL     1      -3.383  -5.864   4.948  0.00  0.00    -0.271 OA
ATOM     16  C   UNL     1      -2.303  -3.990   5.642  0.00  0.00    +0.097 C 
ATOM     17  C   UNL     1      -1.367  -3.041   5.345  0.00  0.00    +0.121 C 
ATOM     18  H   UNL     1      -1.526  -6.266   3.396  0.00  0.00    +0.152 HD
ENDROOT
BRANCH  17  19
ATOM     19  C   UNL     1      -1.214  -1.811   6.157  0.00  0.00    +0.260 C 
ATOM     20  O   UNL     1      -0.354  -1.001   5.875  0.00  0.00    -0.269 OA
ATOM     21  N   UNL     1      -2.029  -1.591   7.207  0.00  0.00    -0.310 N 
ATOM     22  H   UNL     1      -2.716  -2.237   7.432  0.00  0.00    +0.149 HD
BRANCH  21  23
ATOM     23  C   UNL     1      -1.878  -0.374   8.009  0.00  0.00    +0.109 C 
BRANCH  23  24
ATOM     24  C   UNL     1      -2.918  -0.370   9.131  0.00  0.00    +0.052 C 
BRANCH  24  25
ATOM     25  C   UNL     1      -2.763   0.881   9.956  0.00  0.00    -0.040 C 
ATOM     26  C   UNL     1      -3.447   2.039   9.815  0.00  0.00    -0.001 A 
ATOM     27  C   UNL     1      -4.500   2.464   8.885  0.00  0.00    +0.010 A 
ATOM     28  C   UNL     1      -5.002   3.716   8.991  0.00  0.00    +0.001 A 
ATOM     29  C   UNL     1      -4.543   4.615   9.963  0.00  0.00    +0.002 A 
ATOM     30  C   UNL     1      -3.578   4.297  10.852  0.00  0.00    +0.026 A 
ATOM     31  C   UNL     1      -2.979   3.007  10.833  0.00  0.00    +0.043 A 
ATOM     32  N   UNL     1      -2.043   2.468  11.575  0.00  0.00    -0.380 N 
ATOM     33  C   UNL     1      -1.814   1.094  11.114  0.00  0.00    +0.144 C 
ATOM     34  H   UNL     1      -1.581   2.904  12.308  0.00  0.00    +0.160 HD
ENDBRANCH  24  25
ENDBRANCH  23  24
ENDBRANCH  21  23
ENDBRANCH  17  19
TORSDOF 4
