REMARK  Name = ZINC38873217
REMARK  13 active torsions:
REMARK  status: ('A' for Active; 'I' for Inactive)
REMARK    1  A    between atoms: C_1  and  O_2
REMARK    2  A    between atoms: O_2  and  C_3
REMARK    3  A    between atoms: C_5  and  C_13
REMARK    4  A    between atoms: C_7  and  O_11
REMARK    5  A    between atoms: C_8  and  O_9
REMARK    6  A    between atoms: O_9  and  C_10
REMARK    7  A    between atoms: O_11  and  C_12
REMARK    8  A    between atoms: C_14  and  C_15
REMARK    9  A    between atoms: C_15  and  N_17
REMARK   10  A    between atoms: N_19  and  C_31
REMARK   11  A    between atoms: C_23  and  S_27
REMARK   12  A    between atoms: S_27  and  N_30
REMARK   13  A    between atoms: C_31  and  C_32
REMARK                            x       y       z     vdW  Elec       q    Type
REMARK                         _______ _______ _______ _____ _____    ______ ____
ROOT
ATOM      1  N   UNL     1      -7.357  -3.224  -0.642  0.00  0.00    -0.153 NA
ATOM      2  C   UNL     1      -7.799  -3.039  -1.880  0.00  0.00    +0.167 A 
ATOM      3  N   UNL     1      -7.175  -2.428  -2.927  0.00  0.00    -0.317 N 
ATOM      4  C   UNL     1      -7.805  -2.331  -4.154  0.00  0.00    +0.058 A 
ATOM      5  C   UNL     1      -7.309  -1.737  -5.328  0.00  0.00    +0.029 A 
ATOM      6  C   UNL     1      -8.057  -1.717  -6.480  0.00  0.00    +0.030 A 
ATOM      7  C   UNL     1      -9.322  -2.279  -6.525  0.00  0.00    +0.106 A 
ATOM      8  C   UNL     1      -9.837  -2.871  -5.385  0.00  0.00    +0.045 A 
ATOM      9  C   UNL     1      -9.089  -2.891  -4.232  0.00  0.00    +0.041 A 
ATOM     10  S   UNL     1      -9.357  -3.533  -2.597  0.00  0.00    -0.052 S 
ENDROOT
BRANCH   7  11
ATOM     11  S   UNL     1     -10.264  -2.240  -8.014  0.00  0.00    +0.056 S 
ATOM     12  O   UNL     1     -11.629  -2.350  -7.634  0.00  0.00    -0.153 OA
ATOM     13  O   UNL     1      -9.771  -1.147  -8.777  0.00  0.00    -0.153 OA
BRANCH  11  14
ATOM     14  N   UNL     1      -9.895  -3.613  -8.862  0.00  0.00    -0.204 NA
ATOM     15  H   UNL     1     -10.557  -4.015  -9.446  0.00  0.00    +0.144 HD
ATOM     16  H   UNL     1      -9.017  -4.016  -8.775  0.00  0.00    +0.144 HD
ENDBRANCH  11  14
ENDBRANCH   7  11
BRANCH   1  17
ATOM     17  C   UNL     1      -6.207  -2.658  -0.249  0.00  0.00    +0.262 C 
ATOM     18  O   UNL     1      -5.158  -3.271  -0.353  0.00  0.00    -0.269 OA
BRANCH  17  20
ATOM     19  C   UNL     1      -5.083  -0.785   0.835  0.00  0.00    +0.013 C 
ATOM     20  C   UNL     1      -6.211  -1.300   0.307  0.00  0.00    +0.070 C 
BRANCH  19  23
ATOM     21  C   UNL     1      -1.569  -2.088   1.022  0.00  0.00    +0.166 A 
ATOM     22  C   UNL     1      -2.644  -1.262   0.756  0.00  0.00    +0.057 A 
ATOM     23  C   UNL     1      -3.936  -1.661   1.116  0.00  0.00    -0.018 A 
ATOM     24  C   UNL     1      -4.134  -2.895   1.746  0.00  0.00    +0.057 A 
ATOM     25  C   UNL     1      -3.053  -3.715   2.009  0.00  0.00    +0.166 A 
ATOM     26  C   UNL     1      -1.770  -3.318   1.644  0.00  0.00    +0.204 A 
BRANCH  21  28
ATOM     27  C   UNL     1      -0.179  -0.428   0.037  0.00  0.00    +0.277 C 
ATOM     28  O   UNL     1      -0.313  -1.702   0.671  0.00  0.00    -0.491 OA
ENDBRANCH  21  28
BRANCH  26  29
ATOM     29  O   UNL     1      -0.710  -4.130   1.899  0.00  0.00    -0.488 OA
ATOM     30  C   UNL     1      -0.056  -3.966   3.159  0.00  0.00    +0.277 C 
ENDBRANCH  26  29
BRANCH  25  31
ATOM     31  O   UNL     1      -3.244  -4.915   2.620  0.00  0.00    -0.491 OA
ATOM     32  C   UNL     1      -4.596  -5.311   2.864  0.00  0.00    +0.277 C 
ENDBRANCH  25  31
ENDBRANCH  19  23
ENDBRANCH  17  20
ENDBRANCH   1  17
BRANCH   3  33
ATOM     33  C   UNL     1      -5.832  -1.870  -2.751  0.00  0.00    +0.151 C 
BRANCH  33  34
ATOM     34  C   UNL     1      -4.807  -2.956  -2.954  0.00  0.00    -0.013 C 
ATOM     35  C   UNL     1      -3.893  -2.829  -3.885  0.00  0.00    +0.005 C 
ENDBRANCH  33  34
ENDBRANCH   3  33
TORSDOF 10
