REMARK  Name = ZINC28579280
REMARK  3 active torsions:
REMARK  status: ('A' for Active; 'I' for Inactive)
REMARK    1  A    between atoms: C_5  and  N_7
REMARK    2  A    between atoms: N_10  and  C_11
REMARK    3  A    between atoms: C_12  and  C_22
REMARK                            x       y       z     vdW  Elec       q    Type
REMARK                         _______ _______ _______ _____ _____    ______ ____
ROOT
ATOM      1  N   UNL     1      -3.577   7.739   3.791  0.00  0.00    -0.268 N 
ATOM      2  C   UNL     1      -3.095   6.907   2.847  0.00  0.00    +0.309 C 
ATOM      3  O   UNL     1      -3.284   7.147   1.671  0.00  0.00    -0.252 OA
ATOM      4  N   UNL     1      -2.403   5.807   3.208  0.00  0.00    -0.263 N 
ATOM      5  H   UNL     1      -3.470   7.484   4.856  0.00  0.00    +0.156 HD
ATOM      6  H   UNL     1      -2.232   5.590   4.272  0.00  0.00    +0.157 HD
ENDROOT
BRANCH   4   7
ATOM      7  C   UNL     1      -1.910   4.955   2.241  0.00  0.00    +0.083 C 
ATOM      8  C   UNL     1      -1.190   3.800   2.437  0.00  0.00    +0.061 C 
ATOM      9  C   UNL     1      -0.706   3.079   1.225  0.00  0.00    +0.045 C 
ATOM     10  C   UNL     1      -0.747   1.546   1.297  0.00  0.00    +0.010 C 
ATOM     11  C   UNL     1      -0.061   1.061   0.006  0.00  0.00    +0.001 C 
ATOM     12  C   UNL     1      -0.761   1.557  -1.253  0.00  0.00    +0.001 C 
ATOM     13  C   UNL     1      -0.962   3.088  -1.240  0.00  0.00    +0.015 C 
ATOM     14  C   UNL     1      -1.658   3.411   0.036  0.00  0.00    +0.061 C 
ATOM     15  S   UNL     1      -2.027   5.127   0.463  0.00  0.00    -0.105 S 
BRANCH   8  16
ATOM     16  C   UNL     1      -0.915   3.310   3.754  0.00  0.00    +0.097 C 
ATOM     17  N   UNL     1      -0.697   2.921   4.799  0.00  0.00    -0.191 NA
ENDBRANCH   8  16
ENDBRANCH   4   7
BRANCH   1  22
ATOM     18  C   UNL     1      -5.612  10.146   1.896  0.00  0.00    +0.002 A 
ATOM     19  C   UNL     1      -5.470  11.280   2.675  0.00  0.00    +0.002 A 
ATOM     20  C   UNL     1      -4.702  11.242   3.824  0.00  0.00    +0.022 A 
ATOM     21  C   UNL     1      -4.073  10.069   4.197  0.00  0.00    +0.062 A 
ATOM     22  C   UNL     1      -4.213   8.928   3.416  0.00  0.00    +0.053 A 
ATOM     23  C   UNL     1      -4.981   8.973   2.260  0.00  0.00    +0.025 A 
ATOM     24 CL   UNL     1      -3.108  10.022   5.640  0.00  0.00    -0.082 Cl
ENDBRANCH   1  22
TORSDOF 3
