REMARK  Name = ZINC05935795
REMARK  11 active torsions:
REMARK  status: ('A' for Active; 'I' for Inactive)
REMARK    1  A    between atoms: C_1  and  C_2
REMARK    2  A    between atoms: C_5  and  N_9
REMARK    3  A    between atoms: C_7  and  C_8
REMARK    4  A    between atoms: C_10  and  C_12
REMARK    5  A    between atoms: C_12  and  S_13
REMARK    6  A    between atoms: S_13  and  C_14
REMARK    7  A    between atoms: N_19  and  N_20
REMARK    8  A    between atoms: C_21  and  C_22
REMARK    9  A    between atoms: C_25  and  N_28
REMARK   10  A    between atoms: N_28  and  C_29
REMARK   11  A    between atoms: N_28  and  C_30
REMARK                            x       y       z     vdW  Elec       q    Type
REMARK                         _______ _______ _______ _____ _____    ______ ____
ROOT
ATOM      1  C   UNL     1      -0.356  -8.692  -2.728  0.00  0.00    +0.211 A 
ATOM      2  N   UNL     1      -0.455  -9.564  -3.736  0.00  0.00    -0.186 NA
ATOM      3  C   UNL     1      -0.509 -10.790  -3.258  0.00  0.00    +0.232 A 
ATOM      4  N   UNL     1      -0.445 -10.715  -1.911  0.00  0.00    -0.245 N 
ATOM      5  N   UNL     1      -0.341  -9.351  -1.594  0.00  0.00    -0.144 NA
ATOM      6  N   UNL     1      -0.614 -11.950  -4.003  0.00  0.00    -0.205 N 
ATOM      7  H   UNL     1      -0.647 -12.811  -3.558  0.00  0.00    +0.177 HD
ATOM      8  H   UNL     1      -0.463 -11.457  -1.287  0.00  0.00    +0.192 HD
ENDROOT
BRANCH   6   9
ATOM      9  N   UNL     1      -0.671 -11.881  -5.402  0.00  0.00    -0.188 NA
ATOM     10  C   UNL     1      -0.769 -12.970  -6.102  0.00  0.00    +0.138 C 
BRANCH  10  11
ATOM     11  C   UNL     1      -0.829 -12.897  -7.573  0.00  0.00    -0.005 A 
ATOM     12  C   UNL     1      -0.775 -11.658  -8.216  0.00  0.00    +0.011 A 
ATOM     13  C   UNL     1      -0.831 -11.594  -9.591  0.00  0.00    +0.024 A 
ATOM     14  C   UNL     1      -0.943 -12.761 -10.339  0.00  0.00    +0.029 A 
ATOM     15  C   UNL     1      -0.998 -13.997  -9.702  0.00  0.00    +0.024 A 
ATOM     16  C   UNL     1      -0.935 -14.069  -8.328  0.00  0.00    +0.011 A 
BRANCH  14  17
ATOM     17  N   UNL     1      -1.000 -12.693 -11.731  0.00  0.00    -0.336 N 
ATOM     18  C   UNL     1      -0.943 -11.392 -12.404  0.00  0.00    +0.129 C 
ATOM     19  C   UNL     1      -1.118 -13.921 -12.521  0.00  0.00    +0.129 C 
ENDBRANCH  14  17
ENDBRANCH  10  11
ENDBRANCH   6   9
BRANCH   1  20
ATOM     20  S   UNL     1      -0.255  -6.941  -2.895  0.00  0.00    -0.075 S 
BRANCH  20  21
ATOM     21  C   UNL     1      -0.134  -6.343  -1.187  0.00  0.00    +0.173 C 
BRANCH  21  23
ATOM     22  N   UNL     1       0.059  -4.170  -0.021  0.00  0.00    -0.285 N 
ATOM     23  C   UNL     1      -0.040  -4.839  -1.187  0.00  0.00    +0.227 C 
ATOM     24  O   UNL     1      -0.054  -4.230  -2.236  0.00  0.00    -0.275 OA
ATOM     25  H   UNL     1       0.147  -4.658   0.812  0.00  0.00    +0.155 HD
BRANCH  22  30
ATOM     26  C   UNL     1      -0.041   1.502   0.014  0.00  0.00    +0.044 C 
ATOM     27  C   UNL     1      -0.015  -0.004   0.004  0.00  0.00    -0.047 A 
ATOM     28  C   UNL     1      -0.752  -0.702  -0.935  0.00  0.00    +0.005 A 
ATOM     29  C   UNL     1      -0.730  -2.082  -0.946  0.00  0.00    +0.023 A 
ATOM     30  C   UNL     1       0.034  -2.771  -0.013  0.00  0.00    +0.034 A 
ATOM     31  C   UNL     1       0.773  -2.068   0.929  0.00  0.00    +0.027 A 
ATOM     32  C   UNL     1       0.751  -0.686   0.932  0.00  0.00    -0.046 A 
ATOM     33  C   UNL     1       1.557   0.078   1.950  0.00  0.00    +0.044 C 
ENDBRANCH  22  30
ENDBRANCH  21  23
ENDBRANCH  20  21
ENDBRANCH   1  20
TORSDOF 7
