REMARK  Name = ZINC30014063
REMARK  6 active torsions:
REMARK  status: ('A' for Active; 'I' for Inactive)
REMARK    1  A    between atoms: C_1  and  C_2
REMARK    2  A    between atoms: C_2  and  C_3
REMARK    3  A    between atoms: C_3  and  C_4
REMARK    4  A    between atoms: C_7  and  C_10
REMARK    5  A    between atoms: C_11  and  C_31
REMARK    6  A    between atoms: C_16  and  C_18
REMARK                            x       y       z     vdW  Elec       q    Type
REMARK                         _______ _______ _______ _____ _____    ______ ____
ROOT
ATOM      1  C   UNL     1      -1.377  -6.294   0.001  0.00  0.00    +0.083 A 
ATOM      2  C   UNL     1      -0.683  -6.981   0.958  0.00  0.00    +0.016 A 
ATOM      3  S   UNL     1      -0.996  -8.666   0.449  0.00  0.00    -0.057 S 
ATOM      4  C   UNL     1      -2.009  -8.285  -0.974  0.00  0.00    +0.165 A 
ATOM      5  N   UNL     1      -2.027  -6.965  -0.938  0.00  0.00    -0.224 NA
ATOM      6  N   UNL     1      -2.619  -9.148  -1.874  0.00  0.00    -0.260 N 
ATOM      7  C   UNL     1      -2.481 -10.480  -1.729  0.00  0.00    +0.255 C 
ATOM      8  O   UNL     1      -1.746 -10.926  -0.869  0.00  0.00    -0.270 OA
ATOM      9  C   UNL     1       0.123  -6.461   2.121  0.00  0.00    +0.054 C 
ATOM     10  H   UNL     1      -3.145  -8.791  -2.607  0.00  0.00    +0.157 HD
ENDROOT
BRANCH   7  11
ATOM     11  C   UNL     1      -3.220 -11.397  -2.612  0.00  0.00    +0.102 A 
ATOM     12  C   UNL     1      -3.183 -12.769  -2.408  0.00  0.00    +0.031 A 
ATOM     13  C   UNL     1      -3.908 -13.608  -3.280  0.00  0.00    +0.037 A 
ATOM     14  C   UNL     1      -4.652 -13.074  -4.319  0.00  0.00    +0.030 A 
ATOM     15  N   UNL     1      -4.684 -11.741  -4.522  0.00  0.00    -0.325 N 
ATOM     16  H   UNL     1      -5.206 -11.390  -5.260  0.00  0.00    +0.169 HD
ATOM     17  C   UNL     1      -4.021 -10.885  -3.728  0.00  0.00    +0.261 A 
ATOM     18  O   UNL     1      -4.080  -9.687  -3.938  0.00  0.00    -0.267 OA
ATOM     19  C   UNL     1      -5.450 -13.954  -5.247  0.00  0.00    +0.054 C 
ATOM     20  C   UNL     1      -4.899 -15.376  -5.274  0.00  0.00    +0.014 C 
ATOM     21  C   UNL     1      -4.842 -15.923  -3.841  0.00  0.00    +0.080 C 
ATOM     22  C   UNL     1      -3.860 -15.066  -3.072  0.00  0.00    +0.165 C 
ATOM     23  O   UNL     1      -3.059 -15.563  -2.309  0.00  0.00    -0.292 OA
ENDBRANCH   7  11
BRANCH   1  27
ATOM     24  C   UNL     1      -1.462  -2.043   0.047  0.00  0.00    -0.047 A 
ATOM     25  C   UNL     1      -1.457  -2.719  -1.160  0.00  0.00    +0.004 A 
ATOM     26  C   UNL     1      -1.429  -4.099  -1.181  0.00  0.00    +0.010 A 
ATOM     27  C   UNL     1      -1.406  -4.811   0.017  0.00  0.00    +0.001 A 
ATOM     28  C   UNL     1      -1.411  -4.125   1.230  0.00  0.00    +0.010 A 
ATOM     29  C   UNL     1      -1.434  -2.745   1.239  0.00  0.00    +0.004 A 
BRANCH  24  30
ATOM     30  C   UNL     1      -1.492  -0.537   0.063  0.00  0.00    +0.035 C 
BRANCH  30  32
ATOM     31  C   UNL     1      -0.090   1.532   0.069  0.00  0.00    +0.004 C 
ATOM     32  C   UNL     1      -0.060   0.002   0.052  0.00  0.00    +0.001 C 
ENDBRANCH  30  32
ENDBRANCH  24  30
ENDBRANCH   1  27
TORSDOF 4
