REMARK  Name = ZINC12873406
REMARK  15 active torsions:
REMARK  status: ('A' for Active; 'I' for Inactive)
REMARK    1  A    between atoms: C_1  and  C_2
REMARK    2  A    between atoms: C_2  and  C_3
REMARK    3  A    between atoms: C_3  and  C_4
REMARK    4  A    between atoms: C_4  and  O_5
REMARK    5  A    between atoms: O_5  and  C_6
REMARK    6  A    between atoms: C_6  and  C_7
REMARK    7  A    between atoms: C_7  and  C_8
REMARK    8  A    between atoms: C_8  and  N_9
REMARK    9  A    between atoms: C_15  and  C_31
REMARK   10  A    between atoms: C_27  and  C_30
REMARK   11  A    between atoms: C_35  and  O_40
REMARK   12  A    between atoms: C_36  and  O_37
REMARK   13  A    between atoms: O_37  and  C_38
REMARK   14  A    between atoms: C_38  and  C_39
REMARK   15  A    between atoms: O_40  and  C_41
REMARK                            x       y       z     vdW  Elec       q    Type
REMARK                         _______ _______ _______ _____ _____    ______ ____
ROOT
ATOM      1  N   UNL     1       1.355  -0.534   0.033  0.00  0.00    -0.291 N 
ATOM      2  C   UNL     1       0.002  -0.004   0.002  0.00  0.00    +0.203 C 
ATOM      3  C   UNL     1      -0.018   1.490   0.010  0.00  0.00    +0.234 C 
ATOM      4  O   UNL     1      -1.098   2.043   0.018  0.00  0.00    -0.274 OA
ATOM      5  N   UNL     1       1.076   2.256   0.004  0.00  0.00    -0.280 N 
ATOM      6  C   UNL     1       0.938   3.710   0.209  0.00  0.00    +0.122 C 
ATOM      7  C   UNL     1       1.627   4.091   1.524  0.00  0.00    +0.072 C 
ATOM      8  C   UNL     1       2.971   3.413   1.591  0.00  0.00    -0.008 A 
ATOM      9  C   UNL     1       4.103   3.737   2.436  0.00  0.00    +0.004 A 
ATOM     10  C   UNL     1       4.310   4.724   3.405  0.00  0.00    +0.010 A 
ATOM     11  C   UNL     1       5.536   4.739   4.022  0.00  0.00    +0.001 A 
ATOM     12  C   UNL     1       6.530   3.827   3.709  0.00  0.00    +0.002 A 
ATOM     13  C   UNL     1       6.351   2.839   2.755  0.00  0.00    +0.026 A 
ATOM     14  C   UNL     1       5.116   2.799   2.111  0.00  0.00    +0.047 A 
ATOM     15  N   UNL     1       4.614   1.977   1.143  0.00  0.00    -0.356 N 
ATOM     16  H   UNL     1       5.093   1.239   0.735  0.00  0.00    +0.166 HD
ATOM     17  C   UNL     1       3.333   2.351   0.838  0.00  0.00    +0.054 A 
ATOM     18  C   UNL     1       2.421   1.711  -0.181  0.00  0.00    +0.151 C 
ATOM     19  C   UNL     1       2.448   0.225  -0.047  0.00  0.00    +0.245 C 
ATOM     20  O   UNL     1       3.529  -0.325  -0.008  0.00  0.00    -0.273 OA
ATOM     21  C   UNL     1       2.902   2.091  -1.583  0.00  0.00    +0.048 C 
ENDROOT
BRANCH   7  22
ATOM     22  C   UNL     1       1.812   5.586   1.582  0.00  0.00    +0.007 A 
ATOM     23  C   UNL     1       2.563   6.228   0.614  0.00  0.00    +0.008 A 
ATOM     24  C   UNL     1       2.733   7.598   0.664  0.00  0.00    +0.004 A 
ATOM     25  C   UNL     1       2.154   8.334   1.681  0.00  0.00    +0.049 A 
ATOM     26  C   UNL     1       1.400   7.697   2.654  0.00  0.00    +0.162 A 
ATOM     27  C   UNL     1       1.224   6.318   2.601  0.00  0.00    +0.166 A 
BRANCH  26  28
ATOM     28  O   UNL     1       0.829   8.420   3.655  0.00  0.00    -0.491 OA
ATOM     29  C   UNL     1       1.048   9.832   3.642  0.00  0.00    +0.277 C 
ENDBRANCH  26  28
BRANCH  27  30
ATOM     30  O   UNL     1       0.481   5.689   3.550  0.00  0.00    -0.488 OA
BRANCH  30  31
ATOM     31  C   UNL     1       1.169   5.233   4.716  0.00  0.00    +0.226 C 
ATOM     32  C   UNL     1       0.176   4.556   5.663  0.00  0.00    +0.048 C 
ENDBRANCH  30  31
ENDBRANCH  27  30
ENDBRANCH   7  22
BRANCH   1  33
ATOM     33  C   UNL     1       1.527  -1.984   0.159  0.00  0.00    +0.110 C 
BRANCH  33  34
ATOM     34  C   UNL     1       1.570  -2.615  -1.234  0.00  0.00    +0.047 C 
BRANCH  34  35
ATOM     35  C   UNL     1       1.750  -4.129  -1.103  0.00  0.00    +0.161 C 
BRANCH  35  36
ATOM     36  O   UNL     1       1.790  -4.719  -2.404  0.00  0.00    -0.380 OA
BRANCH  36  37
ATOM     37  C   UNL     1       1.956  -6.138  -2.393  0.00  0.00    +0.160 C 
BRANCH  37  38
ATOM     38  C   UNL     1       1.985  -6.659  -3.832  0.00  0.00    +0.028 C 
BRANCH  38  40
ATOM     39  C   UNL     1       2.191  -8.698  -5.259  0.00  0.00    +0.004 C 
ATOM     40  C   UNL     1       2.163  -8.178  -3.821  0.00  0.00    -0.001 C 
ENDBRANCH  38  40
ENDBRANCH  37  38
ENDBRANCH  36  37
ENDBRANCH  35  36
ENDBRANCH  34  35
ENDBRANCH  33  34
ENDBRANCH   1  33
TORSDOF 11
