REMARK  Name = ZINC20785735
REMARK  5 active torsions:
REMARK  status: ('A' for Active; 'I' for Inactive)
REMARK    1  A    between atoms: C_1  and  C_2
REMARK    2  A    between atoms: C_3  and  C_12
REMARK    3  A    between atoms: C_5  and  C_7
REMARK    4  A    between atoms: C_12  and  N_13
REMARK    5  A    between atoms: C_17  and  C_20
REMARK                            x       y       z     vdW  Elec       q    Type
REMARK                         _______ _______ _______ _____ _____    ______ ____
ROOT
ATOM      1  C   UNL     1      -4.728  -1.570   0.040  0.00  0.00    +0.143 C 
ENDROOT
BRANCH   1   4
ATOM      2  C   UNL     1      -2.888  -4.096   0.009  0.00  0.00    +0.088 C 
ATOM      3  C   UNL     1      -2.430  -2.660   0.012  0.00  0.00    +0.127 A 
ATOM      4  C   UNL     1      -3.221  -1.572   0.025  0.00  0.00    +0.097 A 
ATOM      5  N   UNL     1      -2.430  -0.488   0.023  0.00  0.00    -0.210 NA
ATOM      6  C   UNL     1      -1.176  -0.883   0.009  0.00  0.00    +0.264 A 
ATOM      7  O   UNL     1      -1.153  -2.229  -0.004  0.00  0.00    -0.438 OA
BRANCH   6   8
ATOM      8  C   UNL     1       0.002  -0.004   0.002  0.00  0.00    +0.189 A 
ATOM      9  C   UNL     1       1.304  -0.409  -0.013  0.00  0.00    +0.055 A 
ATOM     10  C   UNL     1       2.091   0.757  -0.014  0.00  0.00    +0.042 A 
ATOM     11  C   UNL     1       1.244   1.807  -0.000  0.00  0.00    +0.196 A 
ATOM     12  O   UNL     1      -0.016   1.344   0.009  0.00  0.00    -0.458 OA
ENDBRANCH   6   8
ENDBRANCH   1   4
BRANCH   1  13
ATOM     13  N   UNL     1      -5.231  -1.563  -1.340  0.00  0.00    -0.296 NA
ATOM     14  C   UNL     1      -4.881  -0.310  -2.022  0.00  0.00    +0.085 C 
ATOM     15  C   UNL     1      -5.291  -0.397  -3.493  0.00  0.00    +0.016 C 
ATOM     16  C   UNL     1      -6.800  -0.646  -3.584  0.00  0.00    +0.010 C 
ATOM     17  C   UNL     1      -7.144  -1.931  -2.826  0.00  0.00    +0.033 C 
ATOM     18  C   UNL     1      -6.680  -1.800  -1.373  0.00  0.00    +0.093 C 
BRANCH  17  19
ATOM     19  C   UNL     1      -8.634  -2.152  -2.861  0.00  0.00    -0.043 A 
ATOM     20  C   UNL     1      -9.485  -1.208  -2.318  0.00  0.00    +0.004 A 
ATOM     21  C   UNL     1     -10.852  -1.408  -2.353  0.00  0.00    +0.000 A 
ATOM     22  C   UNL     1     -11.368  -2.558  -2.923  0.00  0.00    +0.000 A 
ATOM     23  C   UNL     1     -10.516  -3.504  -3.462  0.00  0.00    +0.000 A 
ATOM     24  C   UNL     1      -9.149  -3.301  -3.430  0.00  0.00    +0.004 A 
ENDBRANCH  17  19
ENDBRANCH   1  13
TORSDOF 4
