REMARK  Name = ZINC02718515
REMARK  9 active torsions:
REMARK  status: ('A' for Active; 'I' for Inactive)
REMARK    1  A    between atoms: C_1  and  C_2
REMARK    2  A    between atoms: C_3  and  S_25
REMARK    3  A    between atoms: C_4  and  O_13
REMARK    4  A    between atoms: N_5  and  C_7
REMARK    5  A    between atoms: O_13  and  C_14
REMARK    6  A    between atoms: C_14  and  C_16
REMARK    7  A    between atoms: C_20  and  N_22
REMARK    8  A    between atoms: S_25  and  C_26
REMARK    9  A    between atoms: C_31  and  N_32
REMARK                            x       y       z     vdW  Elec       q    Type
REMARK                         _______ _______ _______ _____ _____    ______ ____
ROOT
ATOM      1  C   UNL     1       0.759  10.835  -1.420  0.00  0.00    +0.069 C 
ATOM      2  C   UNL     1       0.850   9.563  -0.617  0.00  0.00    +0.078 A 
ATOM      3  C   UNL     1       0.937   8.253  -1.150  0.00  0.00    +0.097 A 
ATOM      4  C   UNL     1       1.001   7.349   0.029  0.00  0.00    +0.241 A 
ATOM      5  N   UNL     1       0.957   8.161   1.110  0.00  0.00    -0.199 N 
ATOM      6  N   UNL     1       0.866   9.486   0.680  0.00  0.00    -0.167 NA
ENDROOT
BRANCH   5   7
ATOM      7  C   UNL     1       0.997   7.740   2.446  0.00  0.00    +0.069 A 
ATOM      8  C   UNL     1       0.382   6.552   2.819  0.00  0.00    +0.028 A 
ATOM      9  C   UNL     1       0.427   6.138   4.136  0.00  0.00    +0.002 A 
ATOM     10  C   UNL     1       1.073   6.910   5.084  0.00  0.00    +0.000 A 
ATOM     11  C   UNL     1       1.682   8.095   4.716  0.00  0.00    +0.002 A 
ATOM     12  C   UNL     1       1.645   8.513   3.400  0.00  0.00    +0.028 A 
ENDBRANCH   5   7
BRANCH   4  13
ATOM     13  O   UNL     1       1.089   6.012   0.022  0.00  0.00    -0.402 OA
BRANCH  13  14
ATOM     14  C   UNL     1      -0.070   5.322   0.029  0.00  0.00    +0.346 C 
ATOM     15  O   UNL     1      -1.130   5.914   0.042  0.00  0.00    -0.244 OA
BRANCH  14  16
ATOM     16  C   UNL     1      -0.050   3.845   0.022  0.00  0.00    +0.062 A 
ATOM     17  C   UNL     1       1.167   3.160   0.007  0.00  0.00    +0.015 A 
ATOM     18  C   UNL     1       1.178   1.781   0.000  0.00  0.00    +0.003 A 
ATOM     19  C   UNL     1      -0.013   1.076   0.008  0.00  0.00    +0.033 A 
ATOM     20  C   UNL     1      -1.222   1.748   0.017  0.00  0.00    +0.127 A 
ATOM     21  C   UNL     1      -1.248   3.127   0.030  0.00  0.00    +0.047 A 
BRANCH  20  22
ATOM     22  N   UNL     1      -2.490   0.985   0.019  0.00  0.00    +0.056 N 
ATOM     23  O   UNL     1      -2.467  -0.331   0.012  0.00  0.00    -0.126 OA
ATOM     24  O   UNL     1      -3.642   1.624   0.028  0.00  0.00    -0.126 OA
ENDBRANCH  20  22
ENDBRANCH  14  16
ENDBRANCH  13  14
ENDBRANCH   4  13
BRANCH   3  25
ATOM     25  S   UNL     1       0.960   7.806  -2.802  0.00  0.00    -0.080 S 
BRANCH  25  26
ATOM     26  C   UNL     1      -0.768   7.612  -3.091  0.00  0.00    +0.043 A 
ATOM     27  C   UNL     1      -1.686   7.833  -2.053  0.00  0.00    +0.017 A 
ATOM     28  C   UNL     1      -3.033   7.679  -2.287  0.00  0.00    +0.001 A 
ATOM     29  C   UNL     1      -3.485   7.308  -3.545  0.00  0.00    +0.002 A 
ATOM     30  C   UNL     1      -2.584   7.088  -4.577  0.00  0.00    +0.034 A 
ATOM     31  C   UNL     1      -1.233   7.242  -4.362  0.00  0.00    +0.140 A 
BRANCH  31  32
ATOM     32  N   UNL     1      -0.275   7.013  -5.466  0.00  0.00    +0.058 N 
ATOM     33  O   UNL     1      -0.714   6.665  -6.658  0.00  0.00    -0.126 OA
ATOM     34  O   UNL     1       1.018   7.156  -5.256  0.00  0.00    -0.126 OA
ENDBRANCH  31  32
ENDBRANCH  25  26
ENDBRANCH   3  25
TORSDOF 8
