REMARK  Name = ZINC05478204
REMARK  4 active torsions:
REMARK  status: ('A' for Active; 'I' for Inactive)
REMARK    1  A    between atoms: C_1  and  C_2
REMARK    2  A    between atoms: C_2  and  C_24
REMARK    3  A    between atoms: C_10  and  C_15
REMARK    4  A    between atoms: C_16  and  C_17
REMARK                            x       y       z     vdW  Elec       q    Type
REMARK                         _______ _______ _______ _____ _____    ______ ____
ROOT
ATOM      1  C   UNL     1       7.276   1.344  -0.938  0.00  0.00    +0.020 C 
ATOM      2  C   UNL     1       5.785   1.366  -1.281  0.00  0.00    +0.034 C 
ATOM      3  C   UNL     1       5.440   0.249  -2.246  0.00  0.00    -0.017 A 
ATOM      4  C   UNL     1       5.622   0.128  -3.608  0.00  0.00    +0.006 A 
ATOM      5  C   UNL     1       5.202  -1.014  -4.265  0.00  0.00    +0.000 A 
ATOM      6  C   UNL     1       4.601  -2.037  -3.553  0.00  0.00    +0.002 A 
ATOM      7  C   UNL     1       4.420  -1.922  -2.191  0.00  0.00    +0.023 A 
ATOM      8  C   UNL     1       4.842  -0.774  -1.521  0.00  0.00    +0.036 A 
ATOM      9  N   UNL     1       4.769  -0.451  -0.160  0.00  0.00    -0.296 N 
ATOM     10  C   UNL     1       4.932   1.024  -0.040  0.00  0.00    +0.131 C 
ATOM     11  N   UNL     1       5.721   1.262   1.174  0.00  0.00    -0.289 N 
ATOM     12  C   UNL     1       6.334   0.102   1.538  0.00  0.00    +0.232 C 
ATOM     13  O   UNL     1       7.062  -0.039   2.498  0.00  0.00    -0.274 OA
ATOM     14  C   UNL     1       5.957  -0.979   0.549  0.00  0.00    +0.203 C 
ATOM     15  C   UNL     1       5.381   2.724  -1.858  0.00  0.00    +0.020 C 
ATOM     16  H   UNL     1       5.795   2.113   1.633  0.00  0.00    +0.151 HD
ENDROOT
BRANCH  10  17
ATOM     17  C   UNL     1       3.615   1.755  -0.023  0.00  0.00    +0.020 C 
ATOM     18  C   UNL     1       2.478   1.073  -0.016  0.00  0.00    +0.007 C 
BRANCH  18  19
ATOM     19  C   UNL     1       1.186   1.791   0.000  0.00  0.00    -0.022 A 
ATOM     20  C   UNL     1      -0.013   1.076   0.008  0.00  0.00    +0.008 A 
ATOM     21  C   UNL     1      -1.216   1.750   0.017  0.00  0.00    +0.003 A 
ATOM     22  C   UNL     1      -1.238   3.133   0.029  0.00  0.00    +0.038 A 
ATOM     23  C   UNL     1      -0.052   3.850   0.022  0.00  0.00    +0.124 A 
ATOM     24  C   UNL     1       1.160   3.186   0.008  0.00  0.00    +0.046 A 
ATOM     25  F   UNL     1      -0.081   5.201   0.029  0.00  0.00    -0.205 F 
ENDBRANCH  18  19
ENDBRANCH  10  17
TORSDOF 2
