REMARK  Name = ZINC04798521
REMARK  13 active torsions:
REMARK  status: ('A' for Active; 'I' for Inactive)
REMARK    1  A    between atoms: C_1  and  C_2
REMARK    2  A    between atoms: C_2  and  C_3
REMARK    3  A    between atoms: C_3  and  C_4
REMARK    4  A    between atoms: C_4  and  N_5
REMARK    5  A    between atoms: N_5  and  C_6
REMARK    6  A    between atoms: C_6  and  C_7
REMARK    7  A    between atoms: N_9  and  C_10
REMARK    8  A    between atoms: N_9  and  C_17
REMARK    9  A    between atoms: C_10  and  C_11
REMARK   10  A    between atoms: C_17  and  C_18
REMARK   11  A    between atoms: C_23  and  C_25
REMARK   12  A    between atoms: C_25  and  C_26
REMARK   13  A    between atoms: C_25  and  C_27
REMARK                            x       y       z     vdW  Elec       q    Type
REMARK                         _______ _______ _______ _____ _____    ______ ____
ROOT
ATOM      1  C   UNL     1       0.073  -2.680   0.563  0.00  0.00    +0.234 C 
ATOM      2  O   UNL     1      -0.315  -2.311   1.651  0.00  0.00    -0.274 OA
ATOM      3  N   UNL     1      -0.149  -1.916  -0.525  0.00  0.00    -0.291 N 
ENDROOT
BRANCH   1   4
ATOM      4  C   UNL     1       0.803  -3.991   0.427  0.00  0.00    +0.203 C 
BRANCH   4   5
ATOM      5  N   UNL     1       0.916  -4.626   1.742  0.00  0.00    -0.292 N 
ATOM      6  C   UNL     1      -0.096  -5.379   2.217  0.00  0.00    +0.219 C 
ATOM      7  O   UNL     1      -0.036  -5.839   3.337  0.00  0.00    -0.275 OA
BRANCH   6   8
ATOM      8  C   UNL     1      -1.303  -5.648   1.355  0.00  0.00    +0.069 C 
ATOM      9  C   UNL     1      -1.784  -7.082   1.586  0.00  0.00    +0.017 C 
ATOM     10  C   UNL     1      -2.420  -4.670   1.722  0.00  0.00    +0.017 C 
ENDBRANCH   6   8
BRANCH   5  11
ATOM     11  C   UNL     1       2.130  -4.441   2.542  0.00  0.00    +0.108 C 
BRANCH  11  12
ATOM     12  C   UNL     1       1.938  -3.260   3.495  0.00  0.00    +0.019 C 
BRANCH  12  14
ATOM     13  C   UNL     1       3.013  -1.886   5.284  0.00  0.00    +0.004 C 
ATOM     14  C   UNL     1       3.205  -3.067   4.331  0.00  0.00    -0.002 C 
ENDBRANCH  12  14
ENDBRANCH  11  12
ENDBRANCH   5  11
ENDBRANCH   4   5
ENDBRANCH   1   4
BRANCH   3  15
ATOM     15  C   UNL     1      -0.859  -0.642  -0.394  0.00  0.00    +0.143 C 
BRANCH  15  16
ATOM     16  C   UNL     1      -2.339  -0.870  -0.563  0.00  0.00    -0.030 A 
ATOM     17  C   UNL     1      -2.912  -0.788  -1.818  0.00  0.00    +0.005 A 
ATOM     18  C   UNL     1      -4.268  -1.003  -1.974  0.00  0.00    +0.000 A 
ATOM     19  C   UNL     1      -5.054  -1.290  -0.874  0.00  0.00    +0.000 A 
ATOM     20  C   UNL     1      -4.482  -1.366   0.383  0.00  0.00    +0.000 A 
ATOM     21  C   UNL     1      -3.124  -1.157   0.538  0.00  0.00    +0.005 A 
ENDBRANCH  15  16
ENDBRANCH   3  15
BRANCH   3  22
ATOM     22  C   UNL     1       0.319  -2.361  -1.841  0.00  0.00    +0.150 C 
BRANCH  22  23
ATOM     23  C   UNL     1       1.716  -1.848  -2.077  0.00  0.00    +0.007 A 
ATOM     24  C   UNL     1       2.902  -2.431  -1.774  0.00  0.00    +0.013 A 
ATOM     25  C   UNL     1       4.073  -1.767  -2.087  0.00  0.00    +0.008 A 
ATOM     26  C   UNL     1       4.002  -0.554  -2.687  0.00  0.00    +0.045 A 
ATOM     27  S   UNL     1       2.238  -0.315  -2.827  0.00  0.00    -0.100 S 
ENDBRANCH  22  23
ENDBRANCH   3  22
TORSDOF 10
