REMARK  Name = ZINC11664997
REMARK  6 active torsions:
REMARK  status: ('A' for Active; 'I' for Inactive)
REMARK    1  A    between atoms: C_8  and  C_11
REMARK    2  A    between atoms: N_13  and  C_14
REMARK    3  A    between atoms: N_13  and  C_21
REMARK    4  A    between atoms: C_14  and  C_15
REMARK    5  A    between atoms: C_21  and  C_22
REMARK    6  A    between atoms: N_27  and  C_29
REMARK                            x       y       z     vdW  Elec       q    Type
REMARK                         _______ _______ _______ _____ _____    ______ ____
ROOT
ATOM      1  C   UNL     1       3.485  -2.945  -0.278  0.00  0.00    +0.263 C 
ATOM      2  O   UNL     1       2.694  -3.861  -0.149  0.00  0.00    -0.268 OA
ATOM      3  N   UNL     1       4.805  -3.167  -0.121  0.00  0.00    -0.292 N 
ENDROOT
BRANCH   1  11
ATOM      4  C   UNL     1       0.977   2.304  -1.882  0.00  0.00    +0.001 A 
ATOM      5  C   UNL     1       2.118   2.839  -1.297  0.00  0.00    +0.002 A 
ATOM      6  C   UNL     1       3.074   2.018  -0.744  0.00  0.00    +0.026 A 
ATOM      7  C   UNL     1       2.899   0.637  -0.769  0.00  0.00    +0.047 A 
ATOM      8  C   UNL     1       1.742   0.097  -1.363  0.00  0.00    +0.000 A 
ATOM      9  C   UNL     1       0.783   0.954  -1.919  0.00  0.00    +0.010 A 
ATOM     10  C   UNL     1       1.835  -1.311  -1.244  0.00  0.00    +0.040 A 
ATOM     11  C   UNL     1       3.000  -1.596  -0.605  0.00  0.00    +0.103 A 
ATOM     12  N   UNL     1       3.656  -0.416  -0.312  0.00  0.00    -0.351 N 
ATOM     13  H   UNL     1       4.510  -0.343   0.141  0.00  0.00    +0.166 HD
ENDBRANCH   1  11
BRANCH   3  14
ATOM     14  C   UNL     1       5.747  -2.046  -0.167  0.00  0.00    +0.144 C 
BRANCH  14  15
ATOM     15  C   UNL     1       6.215  -1.726   1.229  0.00  0.00    -0.012 A 
ATOM     16  C   UNL     1       5.439  -0.939   2.067  0.00  0.00    +0.008 A 
ATOM     17  C   UNL     1       5.910  -0.670   3.342  0.00  0.00    +0.020 A 
ATOM     18  C   UNL     1       7.129  -1.192   3.734  0.00  0.00    +0.111 A 
ATOM     19  N   UNL     1       7.840  -1.936   2.910  0.00  0.00    -0.263 NA
ATOM     20  C   UNL     1       7.420  -2.217   1.692  0.00  0.00    +0.115 A 
ENDBRANCH  14  15
ENDBRANCH   3  14
BRANCH   3  21
ATOM     21  C   UNL     1       5.298  -4.529   0.095  0.00  0.00    +0.110 C 
BRANCH  21  22
ATOM     22  C   UNL     1       5.609  -5.179  -1.255  0.00  0.00    -0.010 C 
ATOM     23  C   UNL     1       4.313  -5.342  -2.055  0.00  0.00    +0.001 C 
ATOM     24  C   UNL     1       4.624  -6.064  -3.369  0.00  0.00    -0.018 C 
ATOM     25  C   UNL     1       5.288  -7.407  -3.063  0.00  0.00    -0.078 C 
ATOM     26  N   UNL     1       6.534  -7.183  -2.320  0.00  0.00    +0.382 N 
ATOM     27  C   UNL     1       6.238  -6.556  -1.026  0.00  0.00    -0.073 C 
ATOM     28  H   UNL     1       7.139  -6.578  -2.855  0.00  0.00    -0.081 HD
BRANCH  26  29
ATOM     29  C   UNL     1       7.208  -8.469  -2.096  0.00  0.00    -0.069 C 
ATOM     30  C   UNL     1       8.507  -8.236  -1.321  0.00  0.00    -0.015 C 
ATOM     31  C   UNL     1       9.208  -9.576  -1.088  0.00  0.00    -0.002 C 
ATOM     32  C   UNL     1       9.527 -10.226  -2.436  0.00  0.00    -0.000 C 
ATOM     33  C   UNL     1       8.228 -10.459  -3.210  0.00  0.00    -0.002 C 
ATOM     34  C   UNL     1       7.527  -9.120  -3.443  0.00  0.00    -0.015 C 
ENDBRANCH  26  29
ENDBRANCH  21  22
ENDBRANCH   3  21
TORSDOF 6
