REMARK  Name = ZINC12864207
REMARK  5 active torsions:
REMARK  status: ('A' for Active; 'I' for Inactive)
REMARK    1  A    between atoms: C_1  and  C_2
REMARK    2  A    between atoms: C_12  and  N_67
REMARK    3  A    between atoms: C_17  and  C_18
REMARK    4  A    between atoms: C_17  and  N_67
REMARK    5  A    between atoms: C_30  and  C_37
REMARK                            x       y       z     vdW  Elec       q    Type
REMARK                         _______ _______ _______ _____ _____    ______ ____
ROOT
ATOM      1  N   UNL     1       4.066   1.919   0.831  0.00  0.00    +0.385 N 
ATOM      2  H   UNL     1       3.992   1.543   1.784  0.00  0.00    -0.085 HD
ATOM      3  H   UNL     1       3.488   2.764   0.751  0.00  0.00    -0.085 HD
ENDROOT
BRANCH   1  15
ATOM      4  C   UNL     1      -3.829  -0.114  -0.623  0.00  0.00    +0.044 C 
ATOM      5  C   UNL     1      -2.480   0.552  -0.549  0.00  0.00    -0.050 A 
ATOM      6  C   UNL     1      -2.393   1.938  -0.589  0.00  0.00    +0.005 A 
ATOM      7  C   UNL     1      -1.169   2.566  -0.528  0.00  0.00    +0.026 A 
ATOM      8  C   UNL     1      -0.007   1.809  -0.415  0.00  0.00    +0.047 A 
ATOM      9  C   UNL     1      -0.100   0.404  -0.374  0.00  0.00    +0.003 A 
ATOM     10  C   UNL     1      -1.352  -0.211  -0.442  0.00  0.00    +0.013 A 
ATOM     11  C   UNL     1       1.271  -0.083  -0.261  0.00  0.00    -0.021 A 
ATOM     12  C   UNL     1       2.080   0.994  -0.239  0.00  0.00    +0.006 A 
ATOM     13  N   UNL     1       1.330   2.132  -0.331  0.00  0.00    -0.359 N 
ATOM     14  H   UNL     1       1.686   3.034  -0.335  0.00  0.00    +0.166 HD
ATOM     15  C   UNL     1       3.585   0.908  -0.130  0.00  0.00    -0.024 C 
ATOM     16  C   UNL     1       3.958  -0.493   0.365  0.00  0.00    -0.009 C 
ATOM     17  C   UNL     1       3.245  -1.545  -0.489  0.00  0.00    +0.003 C 
ATOM     18  C   UNL     1       1.742  -1.512  -0.182  0.00  0.00    +0.037 C 
ENDBRANCH   1  15
BRANCH   1  19
ATOM     19  C   UNL     1       5.473   2.263   0.552  0.00  0.00    -0.067 C 
BRANCH  19  20
ATOM     20  C   UNL     1       5.943   3.311   1.562  0.00  0.00    +0.087 C 
ATOM     21  C   UNL     1       7.439   3.673   1.316  0.00  0.00    +0.042 C 
ATOM     22  C   UNL     1       7.703   3.334  -0.131  0.00  0.00    +0.016 C 
ATOM     23  C   UNL     1       8.957   4.053  -0.620  0.00  0.00    +0.021 C 
ATOM     24  C   UNL     1       9.235   3.691  -2.061  0.00  0.00    -0.073 C 
ATOM     25  C   UNL     1       8.575   2.727  -2.652  0.00  0.00    +0.008 C 
ATOM     26  C   UNL     1      10.298   4.475  -2.800  0.00  0.00    +0.030 C 
ATOM     27  C   UNL     1      10.010   5.970  -2.634  0.00  0.00    +0.005 C 
ATOM     28  C   UNL     1       9.891   6.309  -1.147  0.00  0.00    +0.007 C 
ATOM     29  C   UNL     1       8.700   5.566  -0.544  0.00  0.00    -0.022 C 
ATOM     30  C   UNL     1       8.535   5.938   0.929  0.00  0.00    +0.052 C 
ATOM     31  C   UNL     1       7.378   5.196   1.554  0.00  0.00    +0.181 C 
ATOM     32  O   UNL     1       6.085   5.578   1.002  0.00  0.00    -0.461 OA
ATOM     33  C   UNL     1       5.202   4.618   1.355  0.00  0.00    +0.309 C 
ATOM     34  O   UNL     1       4.011   4.776   1.486  0.00  0.00    -0.251 OA
ATOM     35  C   UNL     1       7.420   5.910  -1.308  0.00  0.00    +0.012 C 
ENDBRANCH  19  20
ENDBRANCH   1  19
TORSDOF 3
