REMARK  Name = ZINC12321253
REMARK  6 active torsions:
REMARK  status: ('A' for Active; 'I' for Inactive)
REMARK    1  A    between atoms: C_4  and  C_7
REMARK    2  A    between atoms: C_7  and  C_9
REMARK    3  A    between atoms: C_7  and  O_32
REMARK    4  A    between atoms: C_9  and  N_10
REMARK    5  A    between atoms: C_11  and  C_13
REMARK    6  A    between atoms: C_20  and  C_22
REMARK                            x       y       z     vdW  Elec       q    Type
REMARK                         _______ _______ _______ _____ _____    ______ ____
ROOT
ATOM      1  C   UNL     1      -1.748   1.371   1.607  0.00  0.00    +0.092 C 
ATOM      2  C   UNL     1      -1.626   0.452   0.389  0.00  0.00    +0.016 C 
ATOM      3  C   UNL     1      -2.393   1.058  -0.788  0.00  0.00    +0.020 C 
ATOM      4  C   UNL     1      -1.783   2.417  -1.145  0.00  0.00    +0.108 C 
ATOM      5  N   UNL     1      -1.764   3.258   0.060  0.00  0.00    -0.296 N 
ATOM      6  C   UNL     1      -1.130   2.733   1.277  0.00  0.00    +0.120 C 
ATOM      7  C   UNL     1      -2.316   4.487   0.049  0.00  0.00    +0.263 C 
ATOM      8  O   UNL     1      -2.404   5.124   1.081  0.00  0.00    -0.268 OA
ENDROOT
BRANCH   7   9
ATOM      9  C   UNL     1      -2.812   5.058  -1.212  0.00  0.00    +0.103 A 
ATOM     10  C   UNL     1      -3.765   6.021  -1.320  0.00  0.00    +0.040 A 
ATOM     11  C   UNL     1      -3.952   6.290  -2.697  0.00  0.00    +0.000 A 
ATOM     12  C   UNL     1      -4.786   7.169  -3.401  0.00  0.00    +0.010 A 
ATOM     13  C   UNL     1      -4.741   7.201  -4.764  0.00  0.00    +0.001 A 
ATOM     14  C   UNL     1      -3.874   6.371  -5.464  0.00  0.00    +0.002 A 
ATOM     15  C   UNL     1      -3.045   5.499  -4.795  0.00  0.00    +0.026 A 
ATOM     16  C   UNL     1      -3.073   5.447  -3.404  0.00  0.00    +0.047 A 
ATOM     17  N   UNL     1      -2.381   4.705  -2.476  0.00  0.00    -0.351 N 
ATOM     18  H   UNL     1      -1.702   4.042  -2.676  0.00  0.00    +0.166 HD
ENDBRANCH   7   9
BRANCH   1  20
ATOM     19  N   UNL     1      -0.992   1.395   3.962  0.00  0.00    -0.312 N 
ATOM     20  C   UNL     1      -1.020   0.757   2.775  0.00  0.00    +0.218 C 
ATOM     21  O   UNL     1      -0.458  -0.310   2.647  0.00  0.00    -0.275 OA
ATOM     22  H   UNL     1      -1.441   2.248   4.065  0.00  0.00    +0.149 HD
BRANCH  19  23
ATOM     23  C   UNL     1      -0.284   0.799   5.097  0.00  0.00    +0.140 C 
BRANCH  23  24
ATOM     24  C   UNL     1      -0.406   1.718   6.314  0.00  0.00    +0.162 C 
BRANCH  24  28
ATOM     25  C   UNL     1       1.659  -0.021   9.625  0.00  0.00    +0.000 A 
ATOM     26  C   UNL     1       0.300  -0.223   9.475  0.00  0.00    +0.000 A 
ATOM     27  C   UNL     1      -0.368   0.340   8.404  0.00  0.00    +0.006 A 
ATOM     28  C   UNL     1       0.323   1.105   7.482  0.00  0.00    -0.018 A 
ATOM     29  C   UNL     1       1.683   1.302   7.629  0.00  0.00    +0.006 A 
ATOM     30  C   UNL     1       2.350   0.743   8.703  0.00  0.00    +0.000 A 
ENDBRANCH  24  28
BRANCH  24  31
ATOM     31  O   UNL     1       0.169   2.990   6.010  0.00  0.00    -0.386 OA
ATOM     32  H   UNL     1       1.105   2.953   5.774  0.00  0.00    +0.210 HD
ENDBRANCH  24  31
ENDBRANCH  23  24
ENDBRANCH  19  23
ENDBRANCH   1  20
TORSDOF 6
