REMARK  Name = ZINC00904040
REMARK  9 active torsions:
REMARK  status: ('A' for Active; 'I' for Inactive)
REMARK    1  A    between atoms: C_8  and  N_11
REMARK    2  A    between atoms: N_11  and  C_12
REMARK    3  A    between atoms: C_12  and  C_14
REMARK    4  A    between atoms: C_12  and  C_20
REMARK    5  A    between atoms: N_22  and  C_23
REMARK    6  A    between atoms: C_23  and  C_24
REMARK    7  A    between atoms: C_30  and  C_32
REMARK    8  A    between atoms: C_32  and  N_33
REMARK    9  A    between atoms: C_35  and  C_38
REMARK                            x       y       z     vdW  Elec       q    Type
REMARK                         _______ _______ _______ _____ _____    ______ ____
ROOT
ATOM      1  N   UNL     1       2.650  -4.087  -0.602  0.00  0.00    -0.252 N 
ATOM      2  C   UNL     1       1.621  -4.957  -0.639  0.00  0.00    +0.244 C 
ATOM      3  O   UNL     1       1.789  -6.111  -0.306  0.00  0.00    -0.273 OA
ENDROOT
BRANCH   1  11
ATOM      4  C   UNL     1       0.665   1.589   0.103  0.00  0.00    +0.001 A 
ATOM      5  C   UNL     1       1.198   2.066  -1.093  0.00  0.00    +0.002 A 
ATOM      6  C   UNL     1       1.893   1.247  -1.929  0.00  0.00    +0.028 A 
ATOM      7  C   UNL     1       2.081  -0.104  -1.586  0.00  0.00    +0.071 A 
ATOM      8  C   UNL     1       1.538  -0.586  -0.369  0.00  0.00    +0.002 A 
ATOM      9  C   UNL     1       0.826   0.288   0.469  0.00  0.00    +0.010 A 
ATOM     10  C   UNL     1       1.725  -1.937  -0.025  0.00  0.00    +0.035 A 
ATOM     11  C   UNL     1       2.436  -2.737  -0.899  0.00  0.00    +0.056 A 
ATOM     12  C   UNL     1       2.942  -2.189  -2.083  0.00  0.00    +0.135 A 
ATOM     13  N   UNL     1       2.760  -0.928  -2.390  0.00  0.00    -0.253 NA
ENDBRANCH   1  11
BRANCH   1  14
ATOM     14  C   UNL     1       3.993  -4.557  -0.250  0.00  0.00    +0.197 C 
BRANCH  14  15
ATOM     15  C   UNL     1       4.982  -3.437  -0.443  0.00  0.00    -0.015 A 
ATOM     16  C   UNL     1       4.816  -2.222   0.204  0.00  0.00    +0.025 A 
ATOM     17  C   UNL     1       5.744  -1.219   0.003  0.00  0.00    +0.111 A 
ATOM     18  N   UNL     1       6.778  -1.406  -0.794  0.00  0.00    -0.263 NA
ATOM     19  C   UNL     1       6.968  -2.548  -1.426  0.00  0.00    +0.111 A 
ATOM     20  C   UNL     1       6.085  -3.599  -1.268  0.00  0.00    +0.025 A 
ENDBRANCH  14  15
BRANCH  14  21
ATOM     21  C   UNL     1       4.009  -4.999   1.190  0.00  0.00    +0.239 C 
ATOM     22  O   UNL     1       2.999  -4.929   1.858  0.00  0.00    -0.273 OA
ATOM     23  N   UNL     1       5.146  -5.472   1.737  0.00  0.00    -0.311 N 
ATOM     24  H   UNL     1       5.954  -5.528   1.203  0.00  0.00    +0.149 HD
BRANCH  23  25
ATOM     25  C   UNL     1       5.162  -5.902   3.138  0.00  0.00    +0.135 C 
BRANCH  25  26
ATOM     26  C   UNL     1       6.564  -6.392   3.505  0.00  0.00    +0.135 C 
ATOM     27  C   UNL     1       6.562  -6.959   4.941  0.00  0.00    +0.035 C 
ATOM     28  C   UNL     1       7.923  -6.456   5.496  0.00  0.00    +0.031 C 
ATOM     29  C   UNL     1       8.044  -5.087   4.781  0.00  0.00    +0.160 C 
ATOM     30  O   UNL     1       7.486  -5.296   3.472  0.00  0.00    -0.375 OA
ENDBRANCH  25  26
ENDBRANCH  23  25
ENDBRANCH  14  21
ENDBRANCH   1  14
BRANCH   2  31
ATOM     31  C   UNL     1       0.260  -4.494  -1.094  0.00  0.00    +0.264 C 
BRANCH  31  32
ATOM     32  N   UNL     1      -0.697  -5.596  -0.967  0.00  0.00    -0.154 N 
ATOM     33  N   UNL     1      -0.958  -6.466  -1.881  0.00  0.00    -0.130 NA
ATOM     34  C   UNL     1      -1.865  -7.295  -1.402  0.00  0.00    +0.205 A 
ATOM     35  N   UNL     1      -2.141  -6.884  -0.157  0.00  0.00    -0.108 NA
ATOM     36  N   UNL     1      -1.407  -5.849   0.077  0.00  0.00    -0.045 NA
BRANCH  34  37
ATOM     37  C   UNL     1      -2.464  -8.456  -2.107  0.00  0.00    +0.023 A 
ATOM     38  C   UNL     1      -2.071  -8.764  -3.407  0.00  0.00    +0.014 A 
ATOM     39  C   UNL     1      -2.630  -9.844  -4.058  0.00  0.00    +0.039 A 
ATOM     40  C   UNL     1      -3.583 -10.622  -3.420  0.00  0.00    +0.123 A 
ATOM     41  C   UNL     1      -3.978 -10.319  -2.127  0.00  0.00    +0.039 A 
ATOM     42  C   UNL     1      -3.418  -9.244  -1.467  0.00  0.00    +0.014 A 
ATOM     43  F   UNL     1      -4.129 -11.678  -4.061  0.00  0.00    -0.205 F 
ENDBRANCH  34  37
ENDBRANCH  31  32
ENDBRANCH   2  31
TORSDOF 9
