REMARK  Name = ZINC19583382
REMARK  11 active torsions:
REMARK  status: ('A' for Active; 'I' for Inactive)
REMARK    1  A    between atoms: C_1  and  N_2
REMARK    2  A    between atoms: N_2  and  C_3
REMARK    3  A    between atoms: N_2  and  C_4
REMARK    4  A    between atoms: C_4  and  C_5
REMARK    5  A    between atoms: C_7  and  C_12
REMARK    6  A    between atoms: C_10  and  O_11
REMARK    7  A    between atoms: C_12  and  N_13
REMARK    8  A    between atoms: N_13  and  C_14
REMARK    9  A    between atoms: C_21  and  C_23
REMARK   10  A    between atoms: C_25  and  O_30
REMARK   11  A    between atoms: O_30  and  C_31
REMARK                            x       y       z     vdW  Elec       q    Type
REMARK                         _______ _______ _______ _____ _____    ______ ____
ROOT
ATOM      1  C   UNL     1      -0.843   1.622   1.173  0.00  0.00    +0.079 C 
ATOM      2  C   UNL     1       0.032   1.215  -0.018  0.00  0.00    +0.030 C 
ATOM      3  C   UNL     1      -0.580   1.803  -1.292  0.00  0.00    +0.097 C 
ATOM      4  C   UNL     1      -0.884   3.259  -1.088  0.00  0.00    +0.214 C 
ATOM      5  O   UNL     1      -1.064   3.951  -2.067  0.00  0.00    -0.276 OA
ATOM      6  N   UNL     1      -0.967   3.833   0.113  0.00  0.00    -0.307 N 
ATOM      7  C   UNL     1      -0.728   3.135   1.370  0.00  0.00    +0.123 C 
ATOM      8  H   UNL     1      -1.234   4.900   0.119  0.00  0.00    +0.149 HD
ENDROOT
BRANCH   7   9
ATOM      9  C   UNL     1      -1.744   3.582   2.390  0.00  0.00    +0.013 A 
ATOM     10  C   UNL     1      -1.341   3.898   3.673  0.00  0.00    +0.054 A 
ATOM     11  C   UNL     1      -2.276   4.311   4.611  0.00  0.00    +0.121 A 
ATOM     12  C   UNL     1      -3.614   4.405   4.259  0.00  0.00    +0.048 A 
ATOM     13  C   UNL     1      -4.014   4.088   2.975  0.00  0.00    +0.042 A 
ATOM     14  C   UNL     1      -3.079   3.682   2.038  0.00  0.00    +0.129 A 
ATOM     15  F   UNL     1      -3.470   3.379   0.781  0.00  0.00    -0.205 F 
BRANCH  11  16
ATOM     16  O   UNL     1      -1.881   4.621   5.874  0.00  0.00    -0.495 OA
ATOM     17  C   UNL     1      -2.898   5.038   6.787  0.00  0.00    +0.277 C 
ENDBRANCH  11  16
ENDBRANCH   7   9
BRANCH   1  18
ATOM     18  N   UNL     1      -0.379   0.931   2.384  0.00  0.00    -0.307 NA
ATOM     19  H   UNL     1      -0.660   1.530   3.262  0.00  0.00    +0.123 HD
BRANCH  18  20
ATOM     20  C   UNL     1      -0.982  -0.405   2.490  0.00  0.00    +0.116 C 
BRANCH  20  23
ATOM     21  C   UNL     1      -0.720  -1.549   6.078  0.00  0.00    -0.022 A 
ATOM     22  C   UNL     1      -1.174  -0.929   4.929  0.00  0.00    +0.010 A 
ATOM     23  C   UNL     1      -0.484  -1.082   3.741  0.00  0.00    -0.033 A 
ATOM     24  C   UNL     1       0.658  -1.860   3.697  0.00  0.00    +0.008 A 
ATOM     25  C   UNL     1       1.119  -2.478   4.843  0.00  0.00    +0.046 A 
ATOM     26  C   UNL     1       0.429  -2.325   6.037  0.00  0.00    +0.118 A 
BRANCH  26  27
ATOM     27  O   UNL     1       0.878  -2.936   7.165  0.00  0.00    -0.507 OA
ATOM     28  H   UNL     1       1.789  -3.552   7.132  0.00  0.00    +0.292 HD
ENDBRANCH  26  27
BRANCH  21  29
ATOM     29  C   UNL     1      -1.472  -1.381   7.373  0.00  0.00    -0.040 C 
BRANCH  29  31
ATOM     30  C   UNL     1      -2.767  -2.579   9.032  0.00  0.00    -0.096 C 
ATOM     31  N   UNL     1      -2.215  -2.613   7.671  0.00  0.00    +0.379 N 
ATOM     32  C   UNL     1      -3.274  -2.841   6.679  0.00  0.00    -0.096 C 
ATOM     33  H   UNL     1      -1.510  -3.455   7.613  0.00  0.00    -0.082 HD
ENDBRANCH  29  31
ENDBRANCH  21  29
ENDBRANCH  20  23
ENDBRANCH  18  20
ENDBRANCH   1  18
TORSDOF 8
