REMARK  Name = ZINC63489322
REMARK  9 active torsions:
REMARK  status: ('A' for Active; 'I' for Inactive)
REMARK    1  A    between atoms: C_1  and  C_2
REMARK    2  A    between atoms: C_2  and  C_4
REMARK    3  A    between atoms: C_7  and  N_10
REMARK    4  A    between atoms: C_11  and  C_13
REMARK    5  A    between atoms: C_13  and  S_14
REMARK    6  A    between atoms: S_14  and  C_15
REMARK    7  A    between atoms: C_19  and  C_29
REMARK    8  A    between atoms: N_21  and  C_22
REMARK    9  A    between atoms: C_29  and  C_30
REMARK                            x       y       z     vdW  Elec       q    Type
REMARK                         _______ _______ _______ _____ _____    ______ ____
ROOT
ATOM      1  C   UNL     1      -7.443  -7.667  -0.487  0.00  0.00    +0.217 C 
ATOM      2  N   UNL     1      -8.161  -7.178   0.713  0.00  0.00    -0.226 NA
ATOM      3  N   UNL     1      -8.849  -5.961   0.256  0.00  0.00    -0.234 NA
ATOM      4  C   UNL     1      -9.274  -6.315  -1.123  0.00  0.00    +0.163 C 
ATOM      5  N   UNL     1      -8.153  -7.118  -1.655  0.00  0.00    -0.287 N 
ATOM      6  H   UNL     1      -8.822  -7.865   1.044  0.00  0.00    +0.143 HD
ATOM      7  H   UNL     1      -8.221  -5.171   0.249  0.00  0.00    +0.143 HD
ENDROOT
BRANCH   5   8
ATOM      8  C   UNL     1      -7.830  -7.318  -3.001  0.00  0.00    +0.033 A 
ATOM      9  C   UNL     1      -6.661  -6.778  -3.522  0.00  0.00    +0.026 A 
ATOM     10  C   UNL     1      -6.343  -6.977  -4.852  0.00  0.00    +0.040 A 
ATOM     11  C   UNL     1      -7.189  -7.713  -5.664  0.00  0.00    +0.124 A 
ATOM     12  C   UNL     1      -8.355  -8.252  -5.147  0.00  0.00    +0.040 A 
ATOM     13  C   UNL     1      -8.674  -8.060  -3.817  0.00  0.00    +0.026 A 
ATOM     14  F   UNL     1      -6.876  -7.905  -6.965  0.00  0.00    -0.205 F 
ENDBRANCH   5   8
BRANCH   1  15
ATOM     15  S   UNL     1      -5.728  -7.078  -0.469  0.00  0.00    -0.112 S 
BRANCH  15  16
ATOM     16  C   UNL     1      -5.885  -5.272  -0.400  0.00  0.00    +0.168 C 
BRANCH  16  18
ATOM     17  N   UNL     1      -4.383  -3.308  -0.329  0.00  0.00    -0.285 N 
ATOM     18  C   UNL     1      -4.513  -4.649  -0.379  0.00  0.00    +0.227 C 
ATOM     19  O   UNL     1      -3.527  -5.353  -0.408  0.00  0.00    -0.275 OA
ATOM     20  H   UNL     1      -5.169  -2.748  -0.236  0.00  0.00    +0.155 HD
BRANCH  17  24
ATOM     21  C   UNL     1      -0.608  -1.575  -0.568  0.00  0.00    +0.017 A 
ATOM     22  C   UNL     1      -0.885  -2.755  -1.270  0.00  0.00    +0.013 A 
ATOM     23  C   UNL     1      -2.130  -3.322  -1.188  0.00  0.00    +0.024 A 
ATOM     24  C   UNL     1      -3.119  -2.728  -0.409  0.00  0.00    +0.033 A 
ATOM     25  C   UNL     1      -2.848  -1.555   0.291  0.00  0.00    +0.024 A 
ATOM     26  C   UNL     1      -1.604  -0.984   0.220  0.00  0.00    +0.013 A 
BRANCH  21  28
ATOM     27  C   UNL     1       1.794  -1.602  -1.500  0.00  0.00    +0.091 C 
ATOM     28  C   UNL     1       0.724  -0.964  -0.652  0.00  0.00    +0.160 C 
ATOM     29  O   UNL     1       0.964   0.055  -0.039  0.00  0.00    -0.292 OA
ENDBRANCH  21  28
ENDBRANCH  17  24
ENDBRANCH  16  18
ENDBRANCH  15  16
ENDBRANCH   1  15
BRANCH   4  30
ATOM     30  C   UNL     1      -9.477  -5.052  -1.962  0.00  0.00    +0.093 C 
BRANCH  30  31
ATOM     31  C   UNL     1     -10.559  -4.206  -1.343  0.00  0.00    +0.029 A 
ATOM     32  N   UNL     1     -11.874  -4.454  -1.629  0.00  0.00    -0.311 N 
ATOM     33  C   UNL     1     -12.848  -3.704  -1.080  0.00  0.00    +0.327 A 
ATOM     34  O   UNL     1     -14.010  -3.942  -1.348  0.00  0.00    -0.247 OA
ATOM     35  N   UNL     1     -12.554  -2.696  -0.239  0.00  0.00    -0.275 N 
ATOM     36  C   UNL     1     -11.270  -2.419   0.068  0.00  0.00    +0.254 A 
ATOM     37  O   UNL     1     -11.003  -1.507   0.830  0.00  0.00    -0.268 OA
ATOM     38  C   UNL     1     -10.236  -3.203  -0.498  0.00  0.00    +0.091 A 
ATOM     39  H   UNL     1     -13.268  -2.165   0.148  0.00  0.00    +0.173 HD
ATOM     40  H   UNL     1     -12.107  -5.176  -2.233  0.00  0.00    +0.170 HD
ENDBRANCH  30  31
ENDBRANCH   4  30
TORSDOF 8
