REMARK  Name = ZINC39480859
REMARK  8 active torsions:
REMARK  status: ('A' for Active; 'I' for Inactive)
REMARK    1  A    between atoms: C_1  and  C_2
REMARK    2  A    between atoms: C_5  and  N_22
REMARK    3  A    between atoms: C_6  and  N_8
REMARK    4  A    between atoms: C_12  and  C_15
REMARK    5  A    between atoms: C_20  and  O_21
REMARK    6  A    between atoms: N_22  and  S_23
REMARK    7  A    between atoms: S_23  and  C_26
REMARK    8  A    between atoms: C_31  and  O_32
REMARK                            x       y       z     vdW  Elec       q    Type
REMARK                         _______ _______ _______ _____ _____    ______ ____
ROOT
ATOM      1  C   UNL     1       1.565   1.130   0.362  0.00  0.00    +0.044 C 
ATOM      2  C   UNL     1       1.232  -0.335   0.243  0.00  0.00    -0.049 A 
ATOM      3  C   UNL     1       0.977  -0.885  -1.000  0.00  0.00    +0.005 A 
ATOM      4  C   UNL     1       0.670  -2.228  -1.116  0.00  0.00    +0.026 A 
ATOM      5  C   UNL     1       0.617  -3.028   0.016  0.00  0.00    +0.069 A 
ATOM      6  C   UNL     1       0.874  -2.473   1.269  0.00  0.00    +0.052 A 
ATOM      7  C   UNL     1       1.186  -1.126   1.376  0.00  0.00    +0.028 A 
ENDROOT
BRANCH   6   8
ATOM      8  N   UNL     1       0.821  -3.274   2.416  0.00  0.00    -0.331 N 
ATOM      9  C   UNL     1       2.020  -3.972   2.907  0.00  0.00    +0.086 C 
ATOM     10  C   UNL     1       1.665  -5.444   3.137  0.00  0.00    -0.063 C 
ATOM     11  N   UNL     1       0.503  -5.534   4.030  0.00  0.00    +0.386 N 
ATOM     12  C   UNL     1      -0.673  -4.941   3.382  0.00  0.00    -0.020 C 
ATOM     13  C   UNL     1      -0.433  -3.438   3.168  0.00  0.00    +0.094 C 
ATOM     14  H   UNL     1       0.317  -6.503   4.241  0.00  0.00    -0.085 HD
ATOM     15  H   UNL     1       0.700  -5.037   4.886  0.00  0.00    -0.085 HD
BRANCH  12  16
ATOM     16  C   UNL     1      -1.882  -5.135   4.260  0.00  0.00    -0.018 A 
ATOM     17  C   UNL     1      -1.728  -5.292   5.624  0.00  0.00    +0.005 A 
ATOM     18  C   UNL     1      -2.837  -5.470   6.430  0.00  0.00    +0.000 A 
ATOM     19  C   UNL     1      -4.103  -5.491   5.874  0.00  0.00    +0.004 A 
ATOM     20  C   UNL     1      -4.262  -5.334   4.511  0.00  0.00    +0.045 A 
ATOM     21  C   UNL     1      -3.151  -5.150   3.700  0.00  0.00    +0.118 A 
BRANCH  21  22
ATOM     22  O   UNL     1      -3.306  -4.989   2.360  0.00  0.00    -0.507 OA
ATOM     23  H   UNL     1      -3.291  -5.817   1.860  0.00  0.00    +0.292 HD
ENDBRANCH  21  22
ENDBRANCH  12  16
ENDBRANCH   6   8
BRANCH   5  24
ATOM     24  N   UNL     1       0.306  -4.388  -0.099  0.00  0.00    -0.214 N 
ATOM     25  H   UNL     1      -0.215  -4.827   0.591  0.00  0.00    +0.174 HD
BRANCH  24  26
ATOM     26  S   UNL     1       0.827  -5.248  -1.415  0.00  0.00    +0.076 S 
ATOM     27  O   UNL     1       2.195  -4.914  -1.603  0.00  0.00    -0.150 OA
ATOM     28  O   UNL     1       0.389  -6.586  -1.225  0.00  0.00    -0.150 OA
BRANCH  26  29
ATOM     29  C   UNL     1      -0.040  -4.629  -2.819  0.00  0.00    +0.150 A 
ATOM     30  C   UNL     1       0.654  -4.017  -3.845  0.00  0.00    +0.032 A 
ATOM     31  C   UNL     1      -0.026  -3.530  -4.946  0.00  0.00    +0.002 A 
ATOM     32  C   UNL     1      -1.401  -3.656  -5.024  0.00  0.00    +0.004 A 
ATOM     33  C   UNL     1      -2.099  -4.267  -4.001  0.00  0.00    +0.047 A 
ATOM     34  C   UNL     1      -1.419  -4.761  -2.897  0.00  0.00    +0.143 A 
BRANCH  34  35
ATOM     35  O   UNL     1      -2.102  -5.368  -1.891  0.00  0.00    -0.505 OA
ATOM     36  H   UNL     1      -2.414  -4.761  -1.206  0.00  0.00    +0.292 HD
ENDBRANCH  34  35
ENDBRANCH  26  29
ENDBRANCH  24  26
ENDBRANCH   5  24
TORSDOF 7
