REMARK  Name = ZINC04004169
REMARK  2 active torsions:
REMARK  status: ('A' for Active; 'I' for Inactive)
REMARK    1  A    between atoms: C_5  and  C_7
REMARK    2  A    between atoms: C_22  and  N_27
REMARK                            x       y       z     vdW  Elec       q    Type
REMARK                         _______ _______ _______ _____ _____    ______ ____
ROOT
ATOM      1  C   UNL     1      -1.595   1.075   2.149  0.00  0.00    +0.107 C 
ATOM      2  C   UNL     1      -0.675   1.767   1.203  0.00  0.00    +0.025 C 
ATOM      3  C   UNL     1      -0.013   1.086   0.008  0.00  0.00    -0.005 C 
ATOM      4  C   UNL     1       1.374   1.837  -0.001  0.00  0.00    +0.004 C 
ATOM      5  C   UNL     1       0.966   3.305  -0.279  0.00  0.00    +0.004 C 
ATOM      6  C   UNL     1      -0.537   3.282  -0.666  0.00  0.00    -0.003 C 
ATOM      7  C   UNL     1      -0.641   1.810  -1.246  0.00  0.00    +0.008 C 
ATOM      8  C   UNL     1      -1.383   3.060   0.593  0.00  0.00    +0.029 C 
ATOM      9  C   UNL     1      -1.357   4.060   1.692  0.00  0.00    -0.021 A 
ATOM     10  C   UNL     1      -0.994   5.315   1.652  0.00  0.00    +0.038 A 
ATOM     11  C   UNL     1      -0.989   6.120   2.780  0.00  0.00    +0.127 A 
ATOM     12  C   UNL     1      -1.339   5.589   4.008  0.00  0.00    +0.034 A 
ATOM     13  C   UNL     1      -1.701   4.261   4.120  0.00  0.00    +0.025 A 
ATOM     14  C   UNL     1      -1.716   3.445   2.999  0.00  0.00    +0.031 A 
ATOM     15  N   UNL     1      -2.093   2.103   3.095  0.00  0.00    -0.336 N 
ATOM     16  H   UNL     1      -2.700   1.835   3.802  0.00  0.00    +0.147 HD
ENDROOT
BRANCH   1  21
ATOM     17  C   UNL     1       0.278  -0.743   4.877  0.00  0.00    +0.000 A 
ATOM     18  C   UNL     1       0.517  -1.967   4.280  0.00  0.00    +0.003 A 
ATOM     19  C   UNL     1       0.074  -2.208   2.994  0.00  0.00    +0.039 A 
ATOM     20  C   UNL     1      -0.611  -1.223   2.302  0.00  0.00    +0.128 A 
ATOM     21  C   UNL     1      -0.850   0.003   2.900  0.00  0.00    +0.008 A 
ATOM     22  C   UNL     1      -0.401   0.243   4.185  0.00  0.00    +0.008 A 
ATOM     23  F   UNL     1      -1.045  -1.457   1.044  0.00  0.00    -0.205 F 
ENDBRANCH   1  21
BRANCH  11  24
ATOM     24  N   UNL     1      -0.611   7.547   2.670  0.00  0.00    +0.056 N 
ATOM     25  O   UNL     1      -0.607   8.254   3.662  0.00  0.00    -0.126 OA
ATOM     26  O   UNL     1      -0.302   8.014   1.588  0.00  0.00    -0.126 OA
ENDBRANCH  11  24
TORSDOF 2
