REMARK  Name = ZINC42910069
REMARK  11 active torsions:
REMARK  status: ('A' for Active; 'I' for Inactive)
REMARK    1  A    between atoms: C_1  and  C_2
REMARK    2  A    between atoms: C_2  and  C_3
REMARK    3  A    between atoms: C_2  and  O_4
REMARK    4  A    between atoms: O_4  and  C_5
REMARK    5  A    between atoms: C_8  and  C_11
REMARK    6  A    between atoms: C_11  and  N_12
REMARK    7  A    between atoms: N_15  and  C_16
REMARK    8  A    between atoms: C_18  and  C_24
REMARK    9  A    between atoms: C_18  and  C_25
REMARK   10  A    between atoms: C_20  and  C_22
REMARK   11  A    between atoms: C_20  and  C_23
REMARK                            x       y       z     vdW  Elec       q    Type
REMARK                         _______ _______ _______ _____ _____    ______ ____
ROOT
ATOM      1  N   UNL     1      -2.435  -5.843  -4.109  0.00  0.00    -0.295 N 
ATOM      2  C   UNL     1      -2.718  -6.824  -4.990  0.00  0.00    +0.300 C 
ATOM      3  O   UNL     1      -2.718  -7.984  -4.628  0.00  0.00    -0.253 OA
ATOM      4  N   UNL     1      -3.000  -6.517  -6.271  0.00  0.00    -0.297 N 
ATOM      5  H   UNL     1      -2.435  -4.917  -4.397  0.00  0.00    +0.151 HD
ATOM      6  H   UNL     1      -2.999  -5.591  -6.560  0.00  0.00    +0.151 HD
ENDROOT
BRANCH   4   7
ATOM      7  C   UNL     1      -3.308  -7.585  -7.231  0.00  0.00    +0.072 C 
ATOM      8  C   UNL     1      -4.803  -7.902  -7.168  0.00  0.00    +0.009 C 
ATOM      9  C   UNL     1      -5.142  -9.004  -8.171  0.00  0.00    -0.072 C 
ATOM     10  N   UNL     1      -4.698  -8.675  -9.517  0.00  0.00    +0.386 N 
ATOM     11  C   UNL     1      -3.346  -8.163  -9.677  0.00  0.00    -0.072 C 
ATOM     12  C   UNL     1      -2.979  -7.103  -8.644  0.00  0.00    +0.009 C 
ATOM     13  C   UNL     1      -2.309  -9.288  -9.661  0.00  0.00    -0.010 C 
ATOM     14  C   UNL     1      -3.265  -7.494 -11.069  0.00  0.00    -0.010 C 
ATOM     15  C   UNL     1      -6.682  -9.134  -8.205  0.00  0.00    -0.010 C 
ATOM     16  C   UNL     1      -4.584 -10.344  -7.692  0.00  0.00    -0.010 C 
ATOM     17  H   UNL     1      -4.798  -9.509 -10.101  0.00  0.00    -0.084 HD
ATOM     18  H   UNL     1      -5.350  -7.992  -9.912  0.00  0.00    -0.084 HD
ENDBRANCH   4   7
BRANCH   1  19
ATOM     19  C   UNL     1      -2.129  -6.177  -2.716  0.00  0.00    +0.142 C 
BRANCH  19  23
ATOM     20  C   UNL     1      -1.270  -2.634  -0.574  0.00  0.00    +0.215 A 
ATOM     21  C   UNL     1      -2.586  -3.078  -0.614  0.00  0.00    +0.067 A 
ATOM     22  C   UNL     1      -2.885  -4.236  -1.311  0.00  0.00    +0.012 A 
ATOM     23  C   UNL     1      -1.851  -4.912  -1.946  0.00  0.00    -0.012 A 
ATOM     24  C   UNL     1      -0.567  -4.412  -1.864  0.00  0.00    +0.119 A 
ATOM     25  N   UNL     1      -0.314  -3.302  -1.196  0.00  0.00    -0.221 NA
BRANCH  20  26
ATOM     26  O   UNL     1      -0.965  -1.500   0.105  0.00  0.00    -0.474 OA
BRANCH  26  28
ATOM     27  C   UNL     1       0.483   0.432   0.210  0.00  0.00    +0.051 C 
ATOM     28  C   UNL     1       0.405  -1.092   0.104  0.00  0.00    +0.169 C 
ATOM     29  C   UNL     1       1.126  -1.723   1.297  0.00  0.00    +0.051 C 
ENDBRANCH  26  28
ENDBRANCH  20  26
ENDBRANCH  19  23
ENDBRANCH   1  19
TORSDOF 5
