REMARK  Name = ZINC10355800
REMARK  12 active torsions:
REMARK  status: ('A' for Active; 'I' for Inactive)
REMARK    1  A    between atoms: C_1  and  C_2
REMARK    2  A    between atoms: C_5  and  C_35
REMARK    3  A    between atoms: C_6  and  N_8
REMARK    4  A    between atoms: C_9  and  C_34
REMARK    5  A    between atoms: C_10  and  C_27
REMARK    6  A    between atoms: C_11  and  C_16
REMARK    7  A    between atoms: C_19  and  N_22
REMARK    8  A    between atoms: C_27  and  O_29
REMARK    9  A    between atoms: O_29  and  C_30
REMARK   10  A    between atoms: C_30  and  C_31
REMARK   11  A    between atoms: C_31  and  O_32
REMARK   12  A    between atoms: O_32  and  C_33
REMARK                            x       y       z     vdW  Elec       q    Type
REMARK                         _______ _______ _______ _____ _____    ______ ____
ROOT
ATOM      1  N   UNL     1      -4.985   2.873  -0.820  0.00  0.00    -0.255 N 
ATOM      2  C   UNL     1      -4.209   3.529  -1.733  0.00  0.00    +0.027 C 
ATOM      3  C   UNL     1      -3.009   4.042  -1.387  0.00  0.00    +0.078 C 
ATOM      4  C   UNL     1      -2.554   3.867   0.047  0.00  0.00    +0.141 C 
ATOM      5  N   UNL     1      -3.464   3.145   0.953  0.00  0.00    -0.315 N 
ATOM      6  C   UNL     1      -4.632   2.690   0.459  0.00  0.00    +0.142 C 
ATOM      7  S   UNL     1      -5.700   1.849   1.500  0.00  0.00    -0.018 S 
ATOM      8  C   UNL     1      -4.700   3.681  -3.150  0.00  0.00    +0.062 C 
ATOM      9  H   UNL     1      -3.228   3.002   1.883  0.00  0.00    +0.149 HD
ENDROOT
BRANCH   1  15
ATOM     10  C   UNL     1      -9.817   3.498  -1.484  0.00  0.00    +0.044 C 
ATOM     11  C   UNL     1      -8.577   2.647  -1.577  0.00  0.00    -0.049 A 
ATOM     12  C   UNL     1      -8.658   1.361  -2.080  0.00  0.00    +0.004 A 
ATOM     13  C   UNL     1      -7.523   0.577  -2.167  0.00  0.00    +0.005 A 
ATOM     14  C   UNL     1      -6.304   1.075  -1.749  0.00  0.00    -0.029 A 
ATOM     15  C   UNL     1      -6.219   2.365  -1.244  0.00  0.00    +0.043 A 
ATOM     16  C   UNL     1      -7.362   3.149  -1.154  0.00  0.00    +0.027 A 
ATOM     17  C   UNL     1      -5.067   0.219  -1.844  0.00  0.00    +0.045 C 
ENDBRANCH   1  15
BRANCH   4  18
ATOM     18  C   UNL     1      -1.237   3.133   0.031  0.00  0.00    -0.022 A 
ATOM     19  C   UNL     1      -1.218   1.751   0.017  0.00  0.00    +0.008 A 
ATOM     20  C   UNL     1      -0.013   1.076   0.008  0.00  0.00    +0.026 A 
ATOM     21  C   UNL     1       1.180   1.787   0.000  0.00  0.00    +0.047 A 
ATOM     22  C   UNL     1       1.157   3.175   0.008  0.00  0.00    +0.026 A 
ATOM     23  C   UNL     1      -0.051   3.844   0.023  0.00  0.00    +0.008 A 
BRANCH  21  24
ATOM     24  N   UNL     1       2.405   1.104  -0.015  0.00  0.00    -0.306 N 
ATOM     25  C   UNL     1       3.653   1.671  -0.030  0.00  0.00    +0.112 A 
ATOM     26  C   UNL     1       4.541   0.658  -0.039  0.00  0.00    +0.130 A 
ATOM     27  N   UNL     1       3.858  -0.497  -0.040  0.00  0.00    -0.244 NA
ATOM     28  C   UNL     1       2.578  -0.243  -0.025  0.00  0.00    +0.204 A 
ENDBRANCH  21  24
ENDBRANCH   4  18
BRANCH   3  29
ATOM     29  C   UNL     1      -2.204   4.721  -2.332  0.00  0.00    +0.339 C 
ATOM     30  O   UNL     1      -2.590   4.850  -3.479  0.00  0.00    -0.245 OA
BRANCH  29  31
ATOM     31  O   UNL     1      -1.008   5.225  -1.961  0.00  0.00    -0.459 OA
BRANCH  31  32
ATOM     32  C   UNL     1      -0.248   5.899  -2.967  0.00  0.00    +0.260 C 
BRANCH  32  33
ATOM     33  C   UNL     1       1.066   6.398  -2.364  0.00  0.00    +0.200 C 
BRANCH  33  34
ATOM     34  O   UNL     1       1.865   5.280  -1.972  0.00  0.00    -0.380 OA
ATOM     35  C   UNL     1       3.122   5.638  -1.393  0.00  0.00    +0.194 C 
ENDBRANCH  33  34
ENDBRANCH  32  33
ENDBRANCH  31  32
ENDBRANCH  29  31
ENDBRANCH   3  29
TORSDOF 8
