REMARK  Name = ZINC04903180
REMARK  10 active torsions:
REMARK  status: ('A' for Active; 'I' for Inactive)
REMARK    1  A    between atoms: C_1  and  C_2
REMARK    2  A    between atoms: C_2  and  C_3
REMARK    3  A    between atoms: C_3  and  C_4
REMARK    4  A    between atoms: C_4  and  C_5
REMARK    5  A    between atoms: C_5  and  C_6
REMARK    6  A    between atoms: C_6  and  C_7
REMARK    7  A    between atoms: C_10  and  C_12
REMARK    8  A    between atoms: C_10  and  O_16
REMARK    9  A    between atoms: C_17  and  C_19
REMARK   10  A    between atoms: C_24  and  N_25
REMARK                            x       y       z     vdW  Elec       q    Type
REMARK                         _______ _______ _______ _____ _____    ______ ____
ROOT
ATOM      1  C   UNL     1      -0.741   1.541   1.250  0.00  0.00    +0.042 C 
ATOM      2  N   UNL     1      -1.782   2.269   1.261  0.00  0.00    -0.183 NA
ATOM      3  N   UNL     1      -2.235   2.610   2.533  0.00  0.00    -0.148 N 
ATOM      4  C   UNL     1      -1.334   2.011   3.532  0.00  0.00    +0.257 C 
ATOM      5  C   UNL     1      -0.294   1.268   2.669  0.00  0.00    +0.118 C 
ATOM      6  C   UNL     1      -3.317   3.366   2.805  0.00  0.00    +0.270 C 
ATOM      7  O   UNL     1      -3.679   3.519   3.956  0.00  0.00    -0.268 OA
ENDROOT
BRANCH   6   8
ATOM      8  C   UNL     1      -4.062   4.009   1.708  0.00  0.00    +0.059 A 
ATOM      9  C   UNL     1      -3.420   4.305   0.502  0.00  0.00    +0.015 A 
ATOM     10  C   UNL     1      -4.123   4.900  -0.522  0.00  0.00    +0.001 A 
ATOM     11  C   UNL     1      -5.463   5.218  -0.360  0.00  0.00    +0.002 A 
ATOM     12  C   UNL     1      -6.109   4.937   0.826  0.00  0.00    +0.023 A 
ATOM     13  C   UNL     1      -5.418   4.332   1.868  0.00  0.00    +0.037 A 
BRANCH  13  14
ATOM     14  N   UNL     1      -6.067   4.047   3.063  0.00  0.00    -0.357 N 
ATOM     15  H   UNL     1      -5.566   3.690   3.813  0.00  0.00    +0.142 HD
ATOM     16  H   UNL     1      -7.020   4.206   3.148  0.00  0.00    +0.142 HD
ENDBRANCH  13  14
ENDBRANCH   6   8
BRANCH   4  17
ATOM     17  C   UNL     1      -0.661   3.098   4.372  0.00  0.00    +0.438 C 
ATOM     18  F   UNL     1      -0.033   4.019   3.527  0.00  0.00    -0.166 F 
ATOM     19  F   UNL     1      -1.625   3.755   5.144  0.00  0.00    -0.166 F 
ATOM     20  F   UNL     1       0.292   2.514   5.214  0.00  0.00    -0.166 F 
ENDBRANCH   4  17
BRANCH   4  21
ATOM     21  O   UNL     1      -2.044   1.094   4.367  0.00  0.00    -0.363 OA
ATOM     22  H   UNL     1      -2.711   1.510   4.930  0.00  0.00    +0.212 HD
ENDBRANCH   4  21
BRANCH   1  23
ATOM     23  C   UNL     1      -0.051   1.032   0.011  0.00  0.00    +0.052 C 
BRANCH  23  24
ATOM     24  C   UNL     1      -0.804   1.521  -1.228  0.00  0.00    +0.006 C 
BRANCH  24  25
ATOM     25  C   UNL     1      -0.103   1.004  -2.487  0.00  0.00    +0.000 C 
BRANCH  25  26
ATOM     26  C   UNL     1      -0.856   1.493  -3.726  0.00  0.00    -0.000 C 
BRANCH  26  28
ATOM     27  C   UNL     1      -0.908   1.465  -6.224  0.00  0.00    +0.004 C 
ATOM     28  C   UNL     1      -0.156   0.976  -4.985  0.00  0.00    -0.003 C 
ENDBRANCH  26  28
ENDBRANCH  25  26
ENDBRANCH  24  25
ENDBRANCH  23  24
ENDBRANCH   1  23
TORSDOF 9
