REMARK  Name = ZINC00931431
REMARK  8 active torsions:
REMARK  status: ('A' for Active; 'I' for Inactive)
REMARK    1  A    between atoms: C_1  and  C_2
REMARK    2  A    between atoms: C_3  and  C_8
REMARK    3  A    between atoms: N_5  and  C_7
REMARK    4  A    between atoms: C_8  and  C_10
REMARK    5  A    between atoms: C_8  and  N_19
REMARK    6  A    between atoms: N_12  and  C_13
REMARK    7  A    between atoms: N_19  and  C_20
REMARK    8  A    between atoms: C_30  and  C_32
REMARK                            x       y       z     vdW  Elec       q    Type
REMARK                         _______ _______ _______ _____ _____    ______ ____
ROOT
ATOM      1  N   UNL     1      -0.532  -1.399  -3.426  0.00  0.00    -0.251 N 
ATOM      2  C   UNL     1      -1.633  -1.167  -4.167  0.00  0.00    +0.265 C 
ATOM      3  O   UNL     1      -2.127  -0.060  -4.190  0.00  0.00    -0.271 OA
ENDROOT
BRANCH   1   4
ATOM      4  C   UNL     1       0.086  -2.651  -3.466  0.00  0.00    +0.045 A 
ATOM      5  C   UNL     1      -0.177  -3.588  -2.491  0.00  0.00    +0.024 A 
ATOM      6  C   UNL     1       0.433  -4.838  -2.523  0.00  0.00    +0.002 A 
ATOM      7  C   UNL     1       1.306  -5.170  -3.514  0.00  0.00    +0.008 A 
ATOM      8  C   UNL     1       1.601  -4.242  -4.528  0.00  0.00    -0.016 A 
ATOM      9  C   UNL     1       0.982  -2.969  -4.509  0.00  0.00    +0.004 A 
ATOM     10  C   UNL     1       1.275  -2.045  -5.525  0.00  0.00    +0.010 A 
ATOM     11  C   UNL     1       2.144  -2.385  -6.516  0.00  0.00    +0.001 A 
ATOM     12  C   UNL     1       2.750  -3.640  -6.538  0.00  0.00    +0.001 A 
ATOM     13  C   UNL     1       2.498  -4.557  -5.563  0.00  0.00    +0.008 A 
ENDBRANCH   1   4
BRANCH   2  14
ATOM     14  C   UNL     1      -2.251  -2.284  -4.969  0.00  0.00    +0.296 C 
ATOM     15  C   UNL     1      -2.964  -3.264  -4.028  0.00  0.00    +0.283 C 
ATOM     16  O   UNL     1      -3.550  -4.301  -4.821  0.00  0.00    -0.484 OA
ATOM     17  C   UNL     1      -4.241  -3.910  -5.927  0.00  0.00    +0.162 A 
ATOM     18  C   UNL     1      -5.122  -4.796  -6.528  0.00  0.00    +0.049 A 
ATOM     19  C   UNL     1      -5.828  -4.414  -7.653  0.00  0.00    +0.004 A 
ATOM     20  C   UNL     1      -5.658  -3.148  -8.182  0.00  0.00    +0.004 A 
ATOM     21  C   UNL     1      -4.782  -2.260  -7.587  0.00  0.00    +0.049 A 
ATOM     22  C   UNL     1      -4.072  -2.636  -6.457  0.00  0.00    +0.163 A 
ATOM     23  O   UNL     1      -3.219  -1.748  -5.878  0.00  0.00    -0.472 OA
ENDBRANCH   2  14
BRANCH   1  24
ATOM     24  C   UNL     1       0.017  -0.339  -2.577  0.00  0.00    +0.200 C 
BRANCH  24  27
ATOM     25  C   UNL     1       2.199   1.799  -1.735  0.00  0.00    +0.068 C 
ATOM     26  C   UNL     1       1.510   1.718  -3.073  0.00  0.00    +0.065 A 
ATOM     27  C   UNL     1       0.546   0.775  -3.443  0.00  0.00    +0.022 A 
ATOM     28  C   UNL     1       0.174   1.038  -4.717  0.00  0.00    +0.114 A 
ATOM     29  N   UNL     1       0.878   2.110  -5.138  0.00  0.00    -0.274 N 
ATOM     30  N   UNL     1       1.706   2.522  -4.086  0.00  0.00    -0.176 NA
ATOM     31  C   UNL     1       0.787   2.735  -6.460  0.00  0.00    +0.172 C 
ENDBRANCH  24  27
BRANCH  24  32
ATOM     32  C   UNL     1      -1.068   0.197  -1.678  0.00  0.00    +0.239 C 
ATOM     33  O   UNL     1      -2.183  -0.279  -1.724  0.00  0.00    -0.273 OA
ATOM     34  N   UNL     1      -0.800   1.204  -0.824  0.00  0.00    -0.311 N 
ATOM     35  H   UNL     1       0.092   1.584  -0.788  0.00  0.00    +0.149 HD
BRANCH  34  36
ATOM     36  C   UNL     1      -1.854   1.725   0.050  0.00  0.00    +0.073 C 
ATOM     37  C   UNL     1      -2.668   2.777  -0.705  0.00  0.00    +0.022 C 
ATOM     38  C   UNL     1      -3.770   3.321   0.207  0.00  0.00    +0.002 C 
ATOM     39  C   UNL     1      -3.137   3.958   1.446  0.00  0.00    +0.000 C 
ATOM     40  C   UNL     1      -2.323   2.905   2.201  0.00  0.00    +0.002 C 
ATOM     41  C   UNL     1      -1.222   2.361   1.289  0.00  0.00    +0.022 C 
ENDBRANCH  34  36
ENDBRANCH  24  32
ENDBRANCH   1  24
TORSDOF 6
