REMARK  Name = ZINC63985627
REMARK  11 active torsions:
REMARK  status: ('A' for Active; 'I' for Inactive)
REMARK    1  A    between atoms: C_1  and  C_2
REMARK    2  A    between atoms: C_2  and  C_4
REMARK    3  A    between atoms: C_2  and  N_15
REMARK    4  A    between atoms: C_4  and  C_5
REMARK    5  A    between atoms: C_5  and  C_6
REMARK    6  A    between atoms: N_23  and  C_31
REMARK    7  A    between atoms: N_26  and  C_27
REMARK    8  A    between atoms: C_27  and  C_28
REMARK    9  A    between atoms: C_28  and  C_29
REMARK   10  A    between atoms: C_28  and  C_30
REMARK   11  A    between atoms: C_31  and  C_32
REMARK                            x       y       z     vdW  Elec       q    Type
REMARK                         _______ _______ _______ _____ _____    ______ ____
ROOT
ATOM      1  N   UNL     1       1.045  -0.181   1.914  0.00  0.00    +0.382 N 
ATOM      2  C   UNL     1       1.254  -1.623   1.734  0.00  0.00    -0.076 C 
ATOM      3  C   UNL     1       1.900  -2.209   2.992  0.00  0.00    +0.017 C 
ATOM      4  C   UNL     1       0.993  -1.952   4.191  0.00  0.00    +0.112 C 
ATOM      5  C   UNL     1       0.696  -0.461   4.323  0.00  0.00    +0.017 C 
ATOM      6  C   UNL     1       0.098   0.054   3.011  0.00  0.00    -0.076 C 
ATOM      7  C   UNL     1       1.626  -2.479   5.457  0.00  0.00    +0.247 C 
ATOM      8  O   UNL     1       2.677  -2.131   5.953  0.00  0.00    -0.273 OA
ATOM      9  N   UNL     1       0.775  -3.418   5.921  0.00  0.00    -0.218 N 
ATOM     10  C   UNL     1      -0.294  -3.550   5.126  0.00  0.00    +0.312 C 
ATOM     11  O   UNL     1      -1.200  -4.333   5.336  0.00  0.00    -0.252 OA
ATOM     12  N   UNL     1      -0.254  -2.717   4.069  0.00  0.00    -0.271 N 
ATOM     13  H   UNL     1       1.926   0.259   2.132  0.00  0.00    -0.081 HD
ENDROOT
BRANCH   1  15
ATOM     14  C   UNL     1       0.337   1.904   0.842  0.00  0.00    -0.013 C 
ATOM     15  C   UNL     1       0.507   0.393   0.673  0.00  0.00    -0.071 C 
BRANCH  15  16
ATOM     16  C   UNL     1       1.474   0.114  -0.479  0.00  0.00    -0.011 C 
BRANCH  16  17
ATOM     17  C   UNL     1       0.892   0.670  -1.780  0.00  0.00    +0.031 C 
BRANCH  17  18
ATOM     18  C   UNL     1       1.781   0.285  -2.933  0.00  0.00    -0.042 C 
ATOM     19  C   UNL     1       1.634  -0.781  -3.753  0.00  0.00    -0.001 A 
ATOM     20  C   UNL     1       0.640  -1.860  -3.812  0.00  0.00    +0.010 A 
ATOM     21  C   UNL     1       0.759  -2.809  -4.768  0.00  0.00    +0.001 A 
ATOM     22  C   UNL     1       1.804  -2.788  -5.702  0.00  0.00    +0.002 A 
ATOM     23  C   UNL     1       2.755  -1.830  -5.711  0.00  0.00    +0.026 A 
ATOM     24  C   UNL     1       2.728  -0.782  -4.750  0.00  0.00    +0.043 A 
ATOM     25  N   UNL     1       3.521   0.244  -4.555  0.00  0.00    -0.380 N 
ATOM     26  C   UNL     1       3.015   1.015  -3.414  0.00  0.00    +0.144 C 
ATOM     27  H   UNL     1       4.308   0.459  -5.079  0.00  0.00    +0.160 HD
ENDBRANCH  17  18
ENDBRANCH  16  17
ENDBRANCH  15  16
ENDBRANCH   1  15
BRANCH  12  28
ATOM     28  C   UNL     1      -1.256  -2.598   3.007  0.00  0.00    +0.113 C 
BRANCH  28  29
ATOM     29  C   UNL     1      -1.389  -3.937   2.278  0.00  0.00    +0.000 C 
ATOM     30  C   UNL     1      -2.482  -3.832   1.213  0.00  0.00    +0.009 C 
ATOM     31  C   UNL     1      -0.058  -4.288   1.610  0.00  0.00    +0.009 C 
ENDBRANCH  28  29
ENDBRANCH  12  28
BRANCH   9  32
ATOM     32  C   UNL     1       0.995  -4.197   7.142  0.00  0.00    +0.173 C 
BRANCH  32  33
ATOM     33  C   UNL     1       0.388  -3.474   8.316  0.00  0.00    +0.059 A 
ATOM     34  C   UNL     1      -0.888  -3.801   8.735  0.00  0.00    +0.025 A 
ATOM     35  C   UNL     1      -1.437  -3.129   9.816  0.00  0.00    +0.003 A 
ATOM     36  C   UNL     1      -0.679  -2.148  10.438  0.00  0.00    +0.020 A 
ATOM     37  C   UNL     1       0.589  -1.876   9.963  0.00  0.00    +0.111 A 
ATOM     38  N   UNL     1       1.082  -2.539   8.935  0.00  0.00    -0.258 NA
ENDBRANCH  32  33
ENDBRANCH   9  32
TORSDOF 8
