REMARK  Name = ZINC12704604
REMARK  15 active torsions:
REMARK  status: ('A' for Active; 'I' for Inactive)
REMARK    1  A    between atoms: C_1  and  C_2
REMARK    2  A    between atoms: C_2  and  N_70
REMARK    3  A    between atoms: C_3  and  C_4
REMARK    4  A    between atoms: C_3  and  N_70
REMARK    5  A    between atoms: C_5  and  C_6
REMARK    6  A    between atoms: C_5  and  N_70
REMARK    7  A    between atoms: C_6  and  C_7
REMARK    8  A    between atoms: C_7  and  N_8
REMARK    9  A    between atoms: N_8  and  C_9
REMARK   10  A    between atoms: C_9  and  C_10
REMARK   11  A    between atoms: C_14  and  C_23
REMARK   12  A    between atoms: C_15  and  C_22
REMARK   13  A    between atoms: N_26  and  C_27
REMARK   14  A    between atoms: C_32  and  O_33
REMARK   15  A    between atoms: O_33  and  C_34
REMARK                            x       y       z     vdW  Elec       q    Type
REMARK                         _______ _______ _______ _____ _____    ______ ____
ROOT
ATOM      1  N   UNL     1      -0.055  -0.247   0.083  0.00  0.00    -0.281 N 
ATOM      2  C   UNL     1       0.043   1.097   0.121  0.00  0.00    +0.307 C 
ATOM      3  O   UNL     1       1.137   1.627   0.124  0.00  0.00    -0.252 OA
ATOM      4  N   UNL     1      -1.073   1.853   0.151  0.00  0.00    -0.266 N 
ATOM      5  H   UNL     1      -1.945   1.434   0.081  0.00  0.00    +0.156 HD
ENDROOT
BRANCH   4   6
ATOM      6  C   UNL     1      -0.973   3.245   0.283  0.00  0.00    +0.077 A 
ATOM      7  C   UNL     1       0.086   3.924  -0.300  0.00  0.00    +0.027 A 
ATOM      8  C   UNL     1       0.180   5.297  -0.173  0.00  0.00    +0.002 A 
ATOM      9  C   UNL     1      -0.774   5.995   0.544  0.00  0.00    +0.004 A 
ATOM     10  C   UNL     1      -1.830   5.324   1.133  0.00  0.00    +0.047 A 
ATOM     11  C   UNL     1      -1.934   3.948   1.006  0.00  0.00    +0.141 A 
BRANCH  11  12
ATOM     12  O   UNL     1      -2.971   3.286   1.585  0.00  0.00    -0.493 OA
ATOM     13  C   UNL     1      -3.918   4.073   2.310  0.00  0.00    +0.277 C 
ENDBRANCH  11  12
ENDBRANCH   4   6
BRANCH   1  14
ATOM     14  C   UNL     1      -1.373  -0.886   0.079  0.00  0.00    +0.108 C 
BRANCH  14  15
ATOM     15  C   UNL     1      -1.849  -1.065  -1.365  0.00  0.00    +0.000 C 
BRANCH  15  16
ATOM     16  C   UNL     1      -3.226  -1.733  -1.369  0.00  0.00    -0.077 C 
BRANCH  16  17
ATOM     17  N   UNL     1      -3.680  -1.880  -2.767  0.00  0.00    +0.379 N 
ATOM     18  H   UNL     1      -3.605  -0.971  -3.240  0.00  0.00    -0.082 HD
BRANCH  17  20
ATOM     19  C   UNL     1      -2.966  -4.245  -2.841  0.00  0.00    -0.017 C 
ATOM     20  C   UNL     1      -2.829  -2.860  -3.475  0.00  0.00    -0.082 C 
ENDBRANCH  17  20
BRANCH  17  21
ATOM     21  C   UNL     1      -5.090  -2.322  -2.796  0.00  0.00    -0.082 C 
ATOM     22  C   UNL     1      -5.566  -2.363  -4.250  0.00  0.00    -0.017 C 
ENDBRANCH  17  21
ENDBRANCH  16  17
ENDBRANCH  15  16
ENDBRANCH  14  15
ENDBRANCH   1  14
BRANCH   1  23
ATOM     23  C   UNL     1       1.157  -1.069   0.044  0.00  0.00    +0.150 C 
BRANCH  23  24
ATOM     24  C   UNL     1       1.589  -1.392   1.451  0.00  0.00    +0.035 A 
ATOM     25  C   UNL     1       1.201  -2.557   2.026  0.00  0.00    +0.020 A 
ATOM     26  C   UNL     1       1.641  -2.844   3.392  0.00  0.00    -0.001 A 
ATOM     27  C   UNL     1       1.277  -4.032   4.035  0.00  0.00    +0.013 A 
ATOM     28  C   UNL     1       1.700  -4.267   5.313  0.00  0.00    -0.047 A 
ATOM     29  C   UNL     1       2.489  -3.338   5.978  0.00  0.00    -0.046 A 
ATOM     30  C   UNL     1       2.860  -2.162   5.364  0.00  0.00    +0.030 A 
ATOM     31  C   UNL     1       2.441  -1.900   4.064  0.00  0.00    +0.049 A 
ATOM     32  N   UNL     1       2.797  -0.732   3.425  0.00  0.00    -0.322 N 
ATOM     33  H   UNL     1       3.349  -0.083   3.889  0.00  0.00    +0.169 HD
ATOM     34  C   UNL     1       2.392  -0.479   2.168  0.00  0.00    +0.254 A 
ATOM     35  O   UNL     1       2.727   0.564   1.634  0.00  0.00    -0.268 OA
ATOM     36  C   UNL     1       2.944  -3.620   7.387  0.00  0.00    +0.044 C 
ATOM     37  C   UNL     1       1.307  -5.546   6.006  0.00  0.00    +0.044 C 
ENDBRANCH  23  24
ENDBRANCH   1  23
TORSDOF 10
