REMARK  Name = ZINC14163570
REMARK  6 active torsions:
REMARK  status: ('A' for Active; 'I' for Inactive)
REMARK    1  A    between atoms: C_1  and  C_2
REMARK    2  A    between atoms: C_6  and  N_9
REMARK    3  A    between atoms: C_7  and  C_8
REMARK    4  A    between atoms: C_12  and  C_17
REMARK    5  A    between atoms: C_17  and  O_18
REMARK    6  A    between atoms: O_18  and  C_19
REMARK                            x       y       z     vdW  Elec       q    Type
REMARK                         _______ _______ _______ _____ _____    ______ ____
ROOT
ATOM      1  N   UNL     1       6.943   5.530   2.315  0.00  0.00    -0.283 N 
ATOM      2  C   UNL     1       6.384   5.120   1.120  0.00  0.00    +0.224 A 
ATOM      3  N   UNL     1       5.332   4.305   1.121  0.00  0.00    -0.196 NA
ATOM      4  C   UNL     1       4.797   3.912  -0.021  0.00  0.00    +0.173 A 
ATOM      5  N   UNL     1       5.307   4.322  -1.169  0.00  0.00    -0.196 NA
ATOM      6  C   UNL     1       6.356   5.141  -1.179  0.00  0.00    +0.217 A 
ATOM      7  N   UNL     1       6.897   5.538  -0.032  0.00  0.00    -0.181 NA
ATOM      8  N   UNL     1       6.885   5.573  -2.378  0.00  0.00    -0.327 N 
ATOM      9  H   UNL     1       6.519   5.294   3.155  0.00  0.00    +0.155 HD
ATOM     10  H   UNL     1       7.652   6.167  -2.384  0.00  0.00    +0.145 HD
ATOM     11  H   UNL     1       6.489   5.282  -3.215  0.00  0.00    +0.145 HD
ENDROOT
BRANCH   1  17
ATOM     12  C   UNL     1       9.896   8.768   4.543  0.00  0.00    +0.044 C 
ATOM     13  C   UNL     1       9.577   7.863   3.381  0.00  0.00    -0.046 A 
ATOM     14  C   UNL     1      10.450   7.778   2.311  0.00  0.00    +0.004 A 
ATOM     15  C   UNL     1      10.161   6.949   1.244  0.00  0.00    +0.002 A 
ATOM     16  C   UNL     1       8.999   6.202   1.242  0.00  0.00    +0.023 A 
ATOM     17  C   UNL     1       8.120   6.285   2.314  0.00  0.00    +0.037 A 
ATOM     18  C   UNL     1       8.411   7.124   3.382  0.00  0.00    -0.026 A 
ATOM     19  C   UNL     1       7.457   7.222   4.545  0.00  0.00    +0.046 C 
ENDBRANCH   1  17
BRANCH   4  20
ATOM     20  C   UNL     1       3.606   2.989  -0.015  0.00  0.00    +0.305 C 
BRANCH  20  21
ATOM     21  O   UNL     1       2.404   3.762   0.007  0.00  0.00    -0.482 OA
BRANCH  21  22
ATOM     22  C   UNL     1       1.230   3.078   0.016  0.00  0.00    +0.147 A 
ATOM     23  C   UNL     1       1.232   1.712   0.003  0.00  0.00    +0.048 A 
ATOM     24  C   UNL     1       0.040   0.994   0.012  0.00  0.00    +0.004 A 
ATOM     25  C   UNL     1      -1.163   1.633   0.027  0.00  0.00    +0.010 A 
ATOM     26  C   UNL     1      -1.205   3.036   0.046  0.00  0.00    +0.004 A 
ATOM     27  C   UNL     1       0.004   3.774   0.038  0.00  0.00    +0.112 A 
ATOM     28  N   UNL     1      -0.031   5.109   0.051  0.00  0.00    -0.251 NA
ATOM     29  C   UNL     1      -1.168   5.761   0.071  0.00  0.00    +0.111 A 
ATOM     30  C   UNL     1      -2.393   5.097   0.081  0.00  0.00    +0.020 A 
ATOM     31  C   UNL     1      -2.429   3.732   0.069  0.00  0.00    +0.011 A 
ENDBRANCH  21  22
ENDBRANCH  20  21
ENDBRANCH   4  20
TORSDOF 4
