REMARK  Name = ZINC09669910
REMARK  11 active torsions:
REMARK  status: ('A' for Active; 'I' for Inactive)
REMARK    1  A    between atoms: C_1  and  C_2
REMARK    2  A    between atoms: C_4  and  C_15
REMARK    3  A    between atoms: C_5  and  C_14
REMARK    4  A    between atoms: N_6  and  C_7
REMARK    5  A    between atoms: C_7  and  C_8
REMARK    6  A    between atoms: C_8  and  C_9
REMARK    7  A    between atoms: C_15  and  C_17
REMARK    8  A    between atoms: C_17  and  S_18
REMARK    9  A    between atoms: S_18  and  C_19
REMARK   10  A    between atoms: N_23  and  C_24
REMARK   11  A    between atoms: C_27  and  O_30
REMARK                            x       y       z     vdW  Elec       q    Type
REMARK                         _______ _______ _______ _____ _____    ______ ____
ROOT
ATOM      1  C   UNL     1      -8.049   0.761   1.483  0.00  0.00    +0.175 C 
ATOM      2  O   UNL     1      -8.362   1.933   1.490  0.00  0.00    -0.291 OA
ENDROOT
BRANCH   1   6
ATOM      3  C   UNL     1      -3.758  -1.986   1.450  0.00  0.00    +0.063 C 
ATOM      4  C   UNL     1      -4.748  -0.850   1.460  0.00  0.00    +0.017 A 
ATOM      5  C   UNL     1      -6.085  -0.982   1.465  0.00  0.00    +0.034 A 
ATOM      6  C   UNL     1      -6.635   0.380   1.475  0.00  0.00    +0.039 A 
ATOM      7  C   UNL     1      -5.544   1.228   1.481  0.00  0.00    +0.026 A 
ATOM      8  N   UNL     1      -4.429   0.477   1.466  0.00  0.00    -0.347 N 
ATOM      9  C   UNL     1      -5.595   2.735   1.498  0.00  0.00    +0.064 C 
BRANCH   8  10
ATOM     10  C   UNL     1      -3.063   1.008   1.463  0.00  0.00    +0.127 C 
BRANCH  10  11
ATOM     11  C   UNL     1      -2.594   1.202   0.020  0.00  0.00    +0.064 C 
BRANCH  11  12
ATOM     12  C   UNL     1      -1.190   1.748   0.017  0.00  0.00    -0.009 A 
ATOM     13  C   UNL     1      -0.013   1.076   0.008  0.00  0.00    +0.011 A 
ATOM     14  C   UNL     1       1.169   1.793   0.001  0.00  0.00    +0.008 A 
ATOM     15  C   UNL     1       1.115   3.148   0.008  0.00  0.00    +0.045 A 
ATOM     16  S   UNL     1      -0.644   3.448   0.027  0.00  0.00    -0.102 S 
ENDBRANCH  11  12
ENDBRANCH  10  11
ENDBRANCH   8  10
ENDBRANCH   1   6
BRANCH   1  17
ATOM     17  C   UNL     1      -9.116  -0.304   1.482  0.00  0.00    +0.157 C 
BRANCH  17  18
ATOM     18  S   UNL     1     -10.748   0.478   1.493  0.00  0.00    -0.076 S 
BRANCH  18  19
ATOM     19  C   UNL     1     -11.774  -0.955   1.490  0.00  0.00    +0.214 A 
ATOM     20  N   UNL     1     -11.369  -2.206   1.482  0.00  0.00    -0.101 NA
ATOM     21  N   UNL     1     -12.375  -3.005   1.482  0.00  0.00    -0.022 NA
ATOM     22  N   UNL     1     -13.478  -2.338   1.490  0.00  0.00    -0.038 NA
ATOM     23  N   UNL     1     -13.130  -0.975   1.501  0.00  0.00    -0.187 N 
BRANCH  23  24
ATOM     24  C   UNL     1     -14.000   0.126   1.518  0.00  0.00    +0.070 A 
ATOM     25  C   UNL     1     -13.654   1.273   2.218  0.00  0.00    +0.031 A 
ATOM     26  C   UNL     1     -14.508   2.359   2.230  0.00  0.00    +0.047 A 
ATOM     27  C   UNL     1     -15.716   2.299   1.550  0.00  0.00    +0.117 A 
ATOM     28  C   UNL     1     -16.064   1.150   0.854  0.00  0.00    +0.047 A 
ATOM     29  C   UNL     1     -15.209   0.067   0.838  0.00  0.00    +0.031 A 
BRANCH  27  30
ATOM     30  O   UNL     1     -16.558   3.365   1.567  0.00  0.00    -0.507 OA
ATOM     31  H   UNL     1     -17.193   3.354   2.296  0.00  0.00    +0.292 HD
ENDBRANCH  27  30
ENDBRANCH  23  24
ENDBRANCH  18  19
ENDBRANCH  17  18
ENDBRANCH   1  17
TORSDOF 9
