REMARK  Name = ZINC36660310
REMARK  13 active torsions:
REMARK  status: ('A' for Active; 'I' for Inactive)
REMARK    1  A    between atoms: C_1  and  C_2
REMARK    2  A    between atoms: C_2  and  N_3
REMARK    3  A    between atoms: N_3  and  C_4
REMARK    4  A    between atoms: N_3  and  C_6
REMARK    5  A    between atoms: C_4  and  C_5
REMARK    6  A    between atoms: C_6  and  C_7
REMARK    7  A    between atoms: C_7  and  N_8
REMARK    8  A    between atoms: C_12  and  C_19
REMARK    9  A    between atoms: C_15  and  C_18
REMARK   10  A    between atoms: C_20  and  C_22
REMARK   11  A    between atoms: N_27  and  S_28
REMARK   12  A    between atoms: S_28  and  C_31
REMARK   13  A    between atoms: C_34  and  C_37
REMARK                            x       y       z     vdW  Elec       q    Type
REMARK                         _______ _______ _______ _____ _____    ______ ____
ROOT
ATOM      1  N   UNL     1       1.703  -4.463  -2.919  0.00  0.00    -0.251 N 
ATOM      2  C   UNL     1       0.697  -4.942  -3.741  0.00  0.00    +0.168 A 
ATOM      3  N   UNL     1      -0.225  -4.271  -4.391  0.00  0.00    -0.224 NA
ATOM      4  C   UNL     1      -1.153  -4.875  -5.165  0.00  0.00    +0.083 A 
ATOM      5  C   UNL     1      -2.193  -4.273  -5.911  0.00  0.00    -0.024 A 
ATOM      6  C   UNL     1      -3.057  -5.038  -6.650  0.00  0.00    +0.006 A 
ATOM      7  C   UNL     1      -2.946  -6.420  -6.693  0.00  0.00    +0.005 A 
ATOM      8  C   UNL     1      -1.941  -7.042  -5.975  0.00  0.00    -0.035 A 
ATOM      9  C   UNL     1      -1.071  -6.284  -5.232  0.00  0.00    +0.044 A 
ATOM     10  S   UNL     1       0.328  -6.631  -4.194  0.00  0.00    -0.052 S 
ATOM     11  C   UNL     1      -1.803  -8.542  -6.008  0.00  0.00    +0.045 C 
ATOM     12  C   UNL     1      -2.352  -2.775  -5.894  0.00  0.00    +0.046 C 
ATOM     13  C   UNL     1       2.566  -5.321  -2.340  0.00  0.00    +0.240 C 
ATOM     14  O   UNL     1       2.521  -6.502  -2.611  0.00  0.00    -0.273 OA
ENDROOT
BRANCH  13  15
ATOM     15  C   UNL     1       3.589  -4.812  -1.357  0.00  0.00    +0.166 C 
ATOM     16  C   UNL     1       4.886  -4.428  -2.099  0.00  0.00    +0.031 C 
ATOM     17  C   UNL     1       5.997  -4.896  -1.123  0.00  0.00    +0.019 C 
ATOM     18  C   UNL     1       5.368  -6.182  -0.530  0.00  0.00    +0.110 C 
ATOM     19  N   UNL     1       3.930  -5.873  -0.397  0.00  0.00    -0.165 NA
BRANCH  19  20
ATOM     20  S   UNL     1       2.876  -6.597   0.656  0.00  0.00    +0.062 S 
ATOM     21  O   UNL     1       3.638  -6.983   1.791  0.00  0.00    -0.153 OA
ATOM     22  O   UNL     1       1.746  -5.741   0.753  0.00  0.00    -0.153 OA
BRANCH  20  23
ATOM     23  C   UNL     1       2.318  -8.084  -0.106  0.00  0.00    +0.106 A 
ATOM     24  C   UNL     1       1.118  -8.100  -0.793  0.00  0.00    +0.029 A 
ATOM     25  C   UNL     1       0.680  -9.267  -1.391  0.00  0.00    +0.005 A 
ATOM     26  C   UNL     1       1.442 -10.417  -1.302  0.00  0.00    -0.050 A 
ATOM     27  C   UNL     1       2.642 -10.401  -0.617  0.00  0.00    +0.005 A 
ATOM     28  C   UNL     1       3.082  -9.233  -0.022  0.00  0.00    +0.029 A 
ATOM     29  C   UNL     1       0.964 -11.690  -1.954  0.00  0.00    +0.044 C 
ENDBRANCH  20  23
ENDBRANCH  19  20
ENDBRANCH  13  15
BRANCH   1  30
ATOM     30  C   UNL     1       1.829  -3.023  -2.678  0.00  0.00    +0.097 C 
BRANCH  30  31
ATOM     31  C   UNL     1       1.032  -2.643  -1.428  0.00  0.00    -0.059 C 
BRANCH  31  32
ATOM     32  N   UNL     1       1.257  -1.226  -1.117  0.00  0.00    +0.380 N 
ATOM     33  H   UNL     1       2.248  -1.049  -1.048  0.00  0.00    -0.082 HD
BRANCH  32  35
ATOM     34  C   UNL     1       1.024   1.075  -1.923  0.00  0.00    -0.017 C 
ATOM     35  C   UNL     1       0.683  -0.393  -2.183  0.00  0.00    -0.082 C 
ENDBRANCH  32  35
BRANCH  32  36
ATOM     36  C   UNL     1       0.611  -0.897   0.162  0.00  0.00    -0.082 C 
ATOM     37  C   UNL     1       1.303  -1.661   1.293  0.00  0.00    -0.017 C 
ENDBRANCH  32  36
ENDBRANCH  31  32
ENDBRANCH  30  31
ENDBRANCH   1  30
TORSDOF 8
