REMARK  Name = ZINC01217639
REMARK  10 active torsions:
REMARK  status: ('A' for Active; 'I' for Inactive)
REMARK    1  A    between atoms: C_1  and  C_2
REMARK    2  A    between atoms: C_2  and  C_3
REMARK    3  A    between atoms: C_3  and  C_4
REMARK    4  A    between atoms: C_3  and  C_5
REMARK    5  A    between atoms: C_3  and  C_6
REMARK    6  A    between atoms: C_13  and  N_19
REMARK    7  A    between atoms: C_14  and  C_15
REMARK    8  A    between atoms: C_15  and  O_17
REMARK    9  A    between atoms: O_17  and  C_18
REMARK   10  A    between atoms: C_20  and  C_22
REMARK                            x       y       z     vdW  Elec       q    Type
REMARK                         _______ _______ _______ _____ _____    ______ ____
ROOT
ATOM      1  C   UNL     1       0.739  -2.027  -1.265  0.00  0.00    -0.000 C 
ATOM      2  C   UNL     1       1.455  -2.524  -2.524  0.00  0.00    +0.009 C 
ATOM      3  C   UNL     1       1.699  -4.031  -2.424  0.00  0.00    +0.037 C 
ATOM      4  C   UNL     1       0.381  -4.720  -2.095  0.00  0.00    -0.021 A 
ATOM      5  C   UNL     1      -0.659  -4.026  -1.585  0.00  0.00    -0.004 A 
ATOM      6  S   UNL     1      -1.944  -5.225  -1.372  0.00  0.00    -0.077 S 
ATOM      7  C   UNL     1      -1.114  -6.631  -1.951  0.00  0.00    +0.087 A 
ATOM      8  C   UNL     1       0.139  -6.139  -2.296  0.00  0.00    +0.091 A 
ATOM      9  C   UNL     1      -0.701  -2.562  -1.272  0.00  0.00    +0.046 C 
ENDROOT
BRANCH   7  10
ATOM     10  N   UNL     1      -1.585  -7.929  -2.047  0.00  0.00    -0.274 N 
ATOM     11  C   UNL     1      -2.843  -8.221  -1.660  0.00  0.00    +0.268 C 
ATOM     12  O   UNL     1      -3.563  -7.343  -1.226  0.00  0.00    -0.268 OA
ATOM     13  H   UNL     1      -1.010  -8.630  -2.394  0.00  0.00    +0.156 HD
BRANCH  11  14
ATOM     14  C   UNL     1      -3.346  -9.609  -1.763  0.00  0.00    +0.144 A 
ATOM     15  C   UNL     1      -4.647  -9.913  -1.363  0.00  0.00    +0.143 A 
ATOM     16  N   UNL     1      -5.092 -11.153  -1.457  0.00  0.00    -0.259 NA
ATOM     17  C   UNL     1      -4.306 -12.104  -1.930  0.00  0.00    +0.130 A 
ATOM     18  C   UNL     1      -3.012 -11.806  -2.329  0.00  0.00    +0.131 A 
ATOM     19  N   UNL     1      -2.561 -10.570  -2.243  0.00  0.00    -0.247 NA
ENDBRANCH  11  14
ENDBRANCH   7  10
BRANCH   1  20
ATOM     20  C   UNL     1       0.718  -0.497  -1.257  0.00  0.00    -0.032 C 
ATOM     21  C   UNL     1      -0.022   0.009  -2.496  0.00  0.00    +0.011 C 
ATOM     22  C   UNL     1       2.154   0.032  -1.268  0.00  0.00    +0.011 C 
BRANCH  20  24
ATOM     23  C   UNL     1      -0.019   1.526   0.010  0.00  0.00    +0.004 C 
ATOM     24  C   UNL     1       0.002  -0.004   0.002  0.00  0.00    +0.003 C 
ENDBRANCH  20  24
ENDBRANCH   1  20
BRANCH   8  25
ATOM     25  C   UNL     1       1.175  -7.017  -2.842  0.00  0.00    +0.342 C 
ATOM     26  O   UNL     1       1.953  -7.579  -2.094  0.00  0.00    -0.245 OA
BRANCH  25  27
ATOM     27  O   UNL     1       1.269  -7.203  -4.175  0.00  0.00    -0.464 OA
ATOM     28  C   UNL     1       2.321  -8.086  -4.645  0.00  0.00    +0.280 C 
ENDBRANCH  25  27
ENDBRANCH   8  25
TORSDOF 6
