REMARK  Name = ZINC18167883
REMARK  13 active torsions:
REMARK  status: ('A' for Active; 'I' for Inactive)
REMARK    1  A    between atoms: C_1  and  C_2
REMARK    2  A    between atoms: C_2  and  O_3
REMARK    3  A    between atoms: O_3  and  C_4
REMARK    4  A    between atoms: C_4  and  C_5
REMARK    5  A    between atoms: C_5  and  O_6
REMARK    6  A    between atoms: O_6  and  C_7
REMARK    7  A    between atoms: C_7  and  C_9
REMARK    8  A    between atoms: C_10  and  C_36
REMARK    9  A    between atoms: C_14  and  C_16
REMARK   10  A    between atoms: C_19  and  O_23
REMARK   11  A    between atoms: C_20  and  O_22
REMARK   12  A    between atoms: O_23  and  C_24
REMARK   13  A    between atoms: C_28  and  C_31
REMARK                            x       y       z     vdW  Elec       q    Type
REMARK                         _______ _______ _______ _____ _____    ______ ____
ROOT
ATOM      1  C   UNL     1       0.749  -1.816   5.778  0.00  0.00    +0.065 C 
ATOM      2  C   UNL     1       1.385  -1.906   6.959  0.00  0.00    +0.016 C 
ATOM      3  N   UNL     1       0.735  -1.599   8.121  0.00  0.00    -0.321 N 
ATOM      4  C   UNL     1      -0.634  -1.585   8.172  0.00  0.00    +0.016 C 
ATOM      5  C   UNL     1      -1.360  -1.477   7.039  0.00  0.00    +0.024 C 
ATOM      6  C   UNL     1      -0.680  -1.365   5.696  0.00  0.00    +0.092 C 
ATOM      7  C   UNL     1      -2.765  -1.457   7.077  0.00  0.00    +0.162 C 
ATOM      8  O   UNL     1      -3.389  -1.376   6.038  0.00  0.00    -0.292 OA
ATOM      9  C   UNL     1      -3.510  -1.536   8.382  0.00  0.00    +0.088 C 
ATOM     10  C   UNL     1      -2.637  -0.941   9.491  0.00  0.00    +0.039 C 
ATOM     11  C   UNL     1      -1.306  -1.695   9.518  0.00  0.00    +0.060 C 
ATOM     12  C   UNL     1       2.825  -2.349   7.002  0.00  0.00    +0.061 C 
ATOM     13  H   UNL     1       1.247  -1.390   8.918  0.00  0.00    +0.152 HD
ENDROOT
BRANCH   6  14
ATOM     14  C   UNL     1      -0.720   0.069   5.234  0.00  0.00    -0.032 A 
ATOM     15  C   UNL     1      -0.087   1.050   5.974  0.00  0.00    +0.008 A 
ATOM     16  C   UNL     1      -0.120   2.367   5.555  0.00  0.00    +0.050 A 
ATOM     17  C   UNL     1      -0.790   2.706   4.390  0.00  0.00    +0.161 A 
ATOM     18  C   UNL     1      -1.427   1.718   3.645  0.00  0.00    +0.159 A 
ATOM     19  C   UNL     1      -1.385   0.400   4.068  0.00  0.00    +0.053 A 
BRANCH  18  20
ATOM     20  O   UNL     1      -2.085   2.046   2.501  0.00  0.00    -0.503 OA
ATOM     21  H   UNL     1      -1.556   1.940   1.698  0.00  0.00    +0.292 HD
ENDBRANCH  18  20
BRANCH  17  22
ATOM     22  O   UNL     1      -0.825   4.001   3.976  0.00  0.00    -0.491 OA
ATOM     23  C   UNL     1      -0.149   4.961   4.791  0.00  0.00    +0.277 C 
ENDBRANCH  17  22
ENDBRANCH   6  14
BRANCH  10  24
ATOM     24  C   UNL     1      -3.334  -1.089  10.819  0.00  0.00    -0.006 A 
ATOM     25  C   UNL     1      -3.729  -0.126  11.688  0.00  0.00    +0.011 A 
ATOM     26  C   UNL     1      -4.360  -0.499  12.860  0.00  0.00    +0.008 A 
ATOM     27  C   UNL     1      -4.565  -1.816  13.106  0.00  0.00    +0.045 A 
ATOM     28  S   UNL     1      -3.862  -2.577  11.652  0.00  0.00    -0.101 S 
ENDBRANCH  10  24
BRANCH   1  29
ATOM     29  C   UNL     1       1.441  -2.147   4.590  0.00  0.00    +0.338 C 
ATOM     30  O   UNL     1       1.298  -3.247   4.089  0.00  0.00    -0.245 OA
BRANCH  29  31
ATOM     31  O   UNL     1       2.261  -1.244   4.013  0.00  0.00    -0.459 OA
BRANCH  31  32
ATOM     32  C   UNL     1       2.944  -1.653   2.826  0.00  0.00    +0.260 C 
BRANCH  32  33
ATOM     33  C   UNL     1       3.893  -0.541   2.375  0.00  0.00    +0.201 C 
BRANCH  33  34
ATOM     34  O   UNL     1       4.925  -0.371   3.349  0.00  0.00    -0.377 OA
BRANCH  34  36
ATOM     35  C   UNL     1       6.934   0.734   4.112  0.00  0.00    +0.034 C 
ATOM     36  C   UNL     1       5.808   0.718   3.076  0.00  0.00    +0.156 C 
ENDBRANCH  34  36
ENDBRANCH  33  34
ENDBRANCH  32  33
ENDBRANCH  31  32
ENDBRANCH  29  31
ENDBRANCH   1  29
TORSDOF 10
