REMARK  Name = ZINC39635769
REMARK  4 active torsions:
REMARK  status: ('A' for Active; 'I' for Inactive)
REMARK    1  A    between atoms: C_1  and  C_2
REMARK    2  A    between atoms: C_8  and  N_10
REMARK    3  A    between atoms: C_11  and  C_13
REMARK    4  A    between atoms: C_24  and  C_26
REMARK                            x       y       z     vdW  Elec       q    Type
REMARK                         _______ _______ _______ _____ _____    ______ ____
ROOT
ATOM      1  C   UNL     1       4.102   0.049   2.472  0.00  0.00    +0.100 C 
ATOM      2  C   UNL     1       5.185  -0.700   1.664  0.00  0.00    +0.121 C 
ATOM      3  N   UNL     1       6.420  -0.557   2.471  0.00  0.00    -0.296 N 
ATOM      4  C   UNL     1       5.963  -0.705   3.874  0.00  0.00    +0.115 C 
ATOM      5  C   UNL     1       4.615   0.043   3.922  0.00  0.00    -0.004 C 
ATOM      6  C   UNL     1       3.634  -0.695   4.827  0.00  0.00    -0.010 C 
ATOM      7  C   UNL     1       4.137  -0.637   6.272  0.00  0.00    -0.082 C 
ATOM      8  N   UNL     1       4.263   0.764   6.692  0.00  0.00    +0.379 N 
ATOM      9  C   UNL     1       5.277   1.443   5.876  0.00  0.00    -0.082 C 
ATOM     10  C   UNL     1       4.822   1.472   4.415  0.00  0.00    -0.010 C 
ATOM     11  C   UNL     1       7.675  -0.341   2.029  0.00  0.00    +0.247 C 
ATOM     12  O   UNL     1       7.876  -0.132   0.849  0.00  0.00    -0.270 OA
ATOM     13  H   UNL     1       3.375   1.229   6.578  0.00  0.00    -0.086 HD
ATOM     14  H   UNL     1       4.536   0.799   7.663  0.00  0.00    -0.086 HD
ENDROOT
BRANCH  11  15
ATOM     15  C   UNL     1       8.806  -0.359   2.980  0.00  0.00    +0.037 A 
ATOM     16  C   UNL     1       8.677  -1.038   4.205  0.00  0.00    +0.013 A 
ATOM     17  C   UNL     1       9.702  -1.069   5.095  0.00  0.00    +0.009 A 
ATOM     18  C   UNL     1      10.912  -0.416   4.798  0.00  0.00    -0.018 A 
ATOM     19  C   UNL     1      11.986  -0.434   5.702  0.00  0.00    +0.008 A 
ATOM     20  C   UNL     1      13.145   0.207   5.387  0.00  0.00    +0.001 A 
ATOM     21  C   UNL     1      13.285   0.884   4.177  0.00  0.00    +0.001 A 
ATOM     22  C   UNL     1      12.266   0.924   3.275  0.00  0.00    +0.008 A 
ATOM     23  C   UNL     1      11.054   0.273   3.566  0.00  0.00    -0.017 A 
ATOM     24  C   UNL     1       9.986   0.288   2.656  0.00  0.00    +0.021 A 
ENDBRANCH  11  15
BRANCH   1  26
ATOM     25  N   UNL     1       1.628   0.014   2.470  0.00  0.00    -0.312 N 
ATOM     26  C   UNL     1       2.783  -0.675   2.380  0.00  0.00    +0.218 C 
ATOM     27  O   UNL     1       2.761  -1.878   2.224  0.00  0.00    -0.275 OA
ATOM     28  H   UNL     1       1.646   0.976   2.594  0.00  0.00    +0.149 HD
BRANCH  25  35
ATOM     29  C   UNL     1      -0.346   0.291   4.571  0.00  0.00    +0.009 C 
ATOM     30  C   UNL     1      -0.732   0.121   3.101  0.00  0.00    +0.006 C 
ATOM     31  C   UNL     1      -2.071  -0.615   3.007  0.00  0.00    +0.005 C 
ATOM     32  C   UNL     1      -2.457  -0.784   1.536  0.00  0.00    +0.000 C 
ATOM     33  C   UNL     1      -1.379  -1.595   0.816  0.00  0.00    +0.002 C 
ATOM     34  C   UNL     1      -0.040  -0.860   0.909  0.00  0.00    +0.022 C 
ATOM     35  C   UNL     1       0.347  -0.690   2.380  0.00  0.00    +0.076 C 
ENDBRANCH  25  35
ENDBRANCH   1  26
TORSDOF 3
