REMARK  Name = ZINC54911389
REMARK  3 active torsions:
REMARK  status: ('A' for Active; 'I' for Inactive)
REMARK    1  A    between atoms: C_1  and  N_2
REMARK    2  A    between atoms: N_2  and  C_14
REMARK    3  A    between atoms: C_8  and  O_13
REMARK                            x       y       z     vdW  Elec       q    Type
REMARK                         _______ _______ _______ _____ _____    ______ ____
ROOT
ATOM      1  C   UNL     1      -0.018   1.461   0.010  0.00  0.00    +0.131 C 
ATOM      2  N   UNL     1       0.002  -0.004   0.002  0.00  0.00    -0.310 N 
ATOM      3  C   UNL     1       0.023  -0.704   1.198  0.00  0.00    +0.161 A 
ATOM      4  N   UNL     1       0.048  -2.005   1.384  0.00  0.00    -0.229 NA
ATOM      5  C   UNL     1       0.067  -2.542   2.603  0.00  0.00    +0.056 A 
ATOM      6  C   UNL     1       0.057  -1.645   3.621  0.00  0.00    +0.042 A 
ATOM      7  S   UNL     1       0.029  -0.092   2.769  0.00  0.00    -0.054 S 
ATOM      8  C   UNL     1       0.070  -1.928   5.085  0.00  0.00    +0.153 C 
ATOM      9  C   UNL     1      -0.273  -3.412   5.290  0.00  0.00    +0.037 C 
ATOM     10  C   UNL     1       0.572  -4.252   4.327  0.00  0.00    +0.009 C 
ATOM     11  C   UNL     1       0.098  -4.037   2.888  0.00  0.00    +0.056 C 
ENDROOT
BRANCH   2  12
ATOM     12  C   UNL     1      -0.000  -0.730  -1.271  0.00  0.00    +0.075 C 
ATOM     13  C   UNL     1       1.287  -0.382  -2.046  0.00  0.00    +0.022 C 
ATOM     14  C   UNL     1       1.540  -1.463  -3.061  0.00  0.00    +0.002 C 
ATOM     15  C   UNL     1       0.956  -1.122  -4.445  0.00  0.00    +0.000 C 
ATOM     16  C   UNL     1      -0.444  -0.484  -4.361  0.00  0.00    +0.000 C 
ATOM     17  C   UNL     1      -1.322  -1.154  -3.340  0.00  0.00    +0.002 C 
ATOM     18  C   UNL     1      -1.204  -0.381  -2.010  0.00  0.00    +0.022 C 
ENDBRANCH   2  12
BRANCH   8  19
ATOM     19  O   UNL     1      -0.902  -1.113   5.742  0.00  0.00    -0.387 OA
ATOM     20  H   UNL     1      -0.755  -0.163   5.636  0.00  0.00    +0.210 HD
ENDBRANCH   8  19
TORSDOF 2
