REMARK  Name = ZINC64565560
REMARK  10 active torsions:
REMARK  status: ('A' for Active; 'I' for Inactive)
REMARK    1  A    between atoms: C_1  and  C_2
REMARK    2  A    between atoms: N_8  and  C_9
REMARK    3  A    between atoms: C_9  and  C_10
REMARK    4  A    between atoms: C_10  and  C_11
REMARK    5  A    between atoms: C_11  and  N_12
REMARK    6  A    between atoms: C_13  and  C_15
REMARK    7  A    between atoms: C_15  and  C_16
REMARK    8  A    between atoms: C_16  and  C_17
REMARK    9  A    between atoms: C_24  and  C_28
REMARK   10  A    between atoms: N_26  and  C_27
REMARK                            x       y       z     vdW  Elec       q    Type
REMARK                         _______ _______ _______ _____ _____    ______ ____
ROOT
ATOM      1  C   UNL     1       1.525   0.042  10.996  0.00  0.00    +0.216 C 
ATOM      2  O   UNL     1       2.543  -0.606  10.870  0.00  0.00    -0.276 OA
ATOM      3  N   UNL     1       1.104   0.402  12.225  0.00  0.00    -0.297 N 
ATOM      4  C   UNL     1      -0.130   1.182  12.400  0.00  0.00    +0.114 C 
ATOM      5  C   UNL     1      -1.156   0.343  13.172  0.00  0.00    +0.074 C 
ATOM      6  C   UNL     1      -0.466  -0.309  14.342  0.00  0.00    +0.046 A 
ATOM      7  C   UNL     1       0.877  -0.454  14.453  0.00  0.00    +0.023 A 
ATOM      8  C   UNL     1       1.099  -1.109  15.675  0.00  0.00    +0.152 A 
ATOM      9  N   UNL     1      -0.090  -1.311  16.216  0.00  0.00    -0.166 NA
ATOM     10  N   UNL     1      -1.013  -0.847  15.447  0.00  0.00    -0.270 N 
ATOM     11  C   UNL     1      -2.449  -0.896  15.733  0.00  0.00    +0.172 C 
ATOM     12  C   UNL     1       1.867   0.019  13.428  0.00  0.00    +0.147 C 
ENDROOT
BRANCH   8  13
ATOM     13  C   UNL     1       2.406  -1.496  16.245  0.00  0.00    +0.267 C 
ATOM     14  O   UNL     1       3.421  -1.347  15.593  0.00  0.00    -0.268 OA
ATOM     15  N   UNL     1       2.472  -2.014  17.487  0.00  0.00    -0.292 N 
ATOM     16  C   UNL     1       3.769  -2.313  18.115  0.00  0.00    +0.136 C 
ATOM     17  C   UNL     1       3.790  -1.676  19.509  0.00  0.00    +0.179 C 
ATOM     18  O   UNL     1       2.626  -2.085  20.231  0.00  0.00    -0.377 OA
ATOM     19  C   UNL     1       1.394  -1.660  19.644  0.00  0.00    +0.179 C 
ATOM     20  C   UNL     1       1.250  -2.291  18.259  0.00  0.00    +0.136 C 
ENDBRANCH   8  13
BRANCH   1  21
ATOM     21  C   UNL     1       0.731   0.443   9.780  0.00  0.00    +0.105 C 
BRANCH  21  22
ATOM     22  C   UNL     1       1.421  -0.088   8.522  0.00  0.00    +0.105 C 
BRANCH  22  24
ATOM     23  N   UNL     1       1.049  -0.047   6.077  0.00  0.00    -0.315 N 
ATOM     24  C   UNL     1       0.628   0.313   7.306  0.00  0.00    +0.213 C 
ATOM     25  O   UNL     1      -0.390   0.961   7.432  0.00  0.00    -0.276 OA
ATOM     26  H   UNL     1       1.863  -0.565   5.976  0.00  0.00    +0.149 HD
BRANCH  23  27
ATOM     27  C   UNL     1       0.277   0.343   4.895  0.00  0.00    +0.102 C 
BRANCH  27  28
ATOM     28  C   UNL     1       0.967  -0.189   3.637  0.00  0.00    +0.000 C 
BRANCH  28  29
ATOM     29  C   UNL     1       0.161   0.219   2.402  0.00  0.00    -0.077 C 
BRANCH  29  36
ATOM     30  C   UNL     1       0.071   1.729   0.036  0.00  0.00    -0.013 C 
ATOM     31  C   UNL     1       0.117   0.200   0.005  0.00  0.00    -0.072 C 
ATOM     32  C   UNL     1       0.852  -0.262  -1.255  0.00  0.00    -0.016 C 
ATOM     33  C   UNL     1       0.895  -1.792  -1.282  0.00  0.00    -0.003 C 
ATOM     34  C   UNL     1       1.567  -2.296  -0.002  0.00  0.00    -0.019 C 
ATOM     35  C   UNL     1       0.807  -1.759   1.212  0.00  0.00    -0.078 C 
ATOM     36  N   UNL     1       0.824  -0.291   1.194  0.00  0.00    +0.381 N 
ATOM     37  H   UNL     1       1.779   0.033   1.175  0.00  0.00    -0.081 HD
ENDBRANCH  29  36
ENDBRANCH  28  29
ENDBRANCH  27  28
ENDBRANCH  23  27
ENDBRANCH  22  24
ENDBRANCH  21  22
ENDBRANCH   1  21
TORSDOF 8
