REMARK  Name = ZINC08789846
REMARK  14 active torsions:
REMARK  status: ('A' for Active; 'I' for Inactive)
REMARK    1  A    between atoms: C_1  and  C_2
REMARK    2  A    between atoms: C_2  and  C_3
REMARK    3  A    between atoms: C_3  and  O_4
REMARK    4  A    between atoms: O_4  and  C_5
REMARK    5  A    between atoms: C_8  and  C_14
REMARK    6  A    between atoms: C_10  and  O_11
REMARK    7  A    between atoms: O_11  and  C_12
REMARK    8  A    between atoms: C_12  and  C_13
REMARK    9  A    between atoms: N_21  and  C_36
REMARK   10  A    between atoms: C_24  and  C_35
REMARK   11  A    between atoms: C_36  and  C_37
REMARK   12  A    between atoms: C_37  and  C_38
REMARK   13  A    between atoms: C_38  and  C_39
REMARK   14  A    between atoms: C_38  and  C_40
REMARK                            x       y       z     vdW  Elec       q    Type
REMARK                         _______ _______ _______ _____ _____    ______ ____
ROOT
ATOM      1  C   UNL     1       3.647  -3.396  -6.236  0.00  0.00    +0.069 C 
ATOM      2  C   UNL     1       2.925  -2.206  -6.880  0.00  0.00    +0.122 C 
ATOM      3  N   UNL     1       2.032  -1.593  -5.880  0.00  0.00    -0.280 N 
ATOM      4  C   UNL     1       2.278  -0.348  -5.462  0.00  0.00    +0.234 C 
ATOM      5  O   UNL     1       3.136   0.285  -6.039  0.00  0.00    -0.274 OA
ATOM      6  C   UNL     1       1.560   0.316  -4.331  0.00  0.00    +0.203 C 
ATOM      7  N   UNL     1       0.597  -0.569  -3.698  0.00  0.00    -0.291 N 
ATOM      8  C   UNL     1       0.298  -1.785  -4.157  0.00  0.00    +0.245 C 
ATOM      9  O   UNL     1      -0.526  -2.437  -3.550  0.00  0.00    -0.273 OA
ATOM     10  C   UNL     1       0.917  -2.391  -5.372  0.00  0.00    +0.151 C 
ATOM     11  C   UNL     1       1.432  -3.777  -5.067  0.00  0.00    +0.054 A 
ATOM     12  C   UNL     1       2.649  -4.216  -5.459  0.00  0.00    -0.008 A 
ATOM     13  C   UNL     1       2.778  -5.580  -4.988  0.00  0.00    +0.004 A 
ATOM     14  C   UNL     1       3.802  -6.526  -5.093  0.00  0.00    +0.010 A 
ATOM     15  C   UNL     1       3.579  -7.750  -4.512  0.00  0.00    +0.001 A 
ATOM     16  C   UNL     1       2.398  -8.046  -3.850  0.00  0.00    +0.002 A 
ATOM     17  C   UNL     1       1.369  -7.129  -3.731  0.00  0.00    +0.026 A 
ATOM     18  C   UNL     1       1.567  -5.877  -4.310  0.00  0.00    +0.047 A 
ATOM     19  N   UNL     1       0.779  -4.764  -4.379  0.00  0.00    -0.356 N 
ATOM     20  H   UNL     1      -0.109  -4.685  -3.997  0.00  0.00    +0.166 HD
ATOM     21  C   UNL     1      -0.143  -2.488  -6.472  0.00  0.00    +0.048 C 
ENDROOT
BRANCH   1  25
ATOM     22  C   UNL     1       5.418  -5.816  -9.284  0.00  0.00    +0.162 A 
ATOM     23  C   UNL     1       4.049  -5.604  -9.272  0.00  0.00    +0.050 A 
ATOM     24  C   UNL     1       3.479  -4.826  -8.282  0.00  0.00    +0.008 A 
ATOM     25  C   UNL     1       4.273  -4.248  -7.309  0.00  0.00    -0.035 A 
ATOM     26  C   UNL     1       5.640  -4.456  -7.315  0.00  0.00    +0.053 A 
ATOM     27  C   UNL     1       6.217  -5.239  -8.302  0.00  0.00    +0.162 A 
BRANCH  22  28
ATOM     28  O   UNL     1       5.980  -6.586 -10.254  0.00  0.00    -0.488 OA
BRANCH  28  29
ATOM     29  C   UNL     1       5.099  -7.146 -11.230  0.00  0.00    +0.229 C 
BRANCH  29  31
ATOM     30  C   UNL     1       4.963  -8.574 -13.275  0.00  0.00    +0.007 C 
ATOM     31  C   UNL     1       5.907  -7.975 -12.231  0.00  0.00    +0.038 C 
ENDBRANCH  29  31
ENDBRANCH  28  29
ENDBRANCH  22  28
BRANCH  27  32
ATOM     32  O   UNL     1       7.562  -5.444  -8.309  0.00  0.00    -0.489 OA
BRANCH  32  33
ATOM     33  C   UNL     1       8.319  -4.820  -7.270  0.00  0.00    +0.226 C 
ATOM     34  C   UNL     1       9.800  -5.162  -7.443  0.00  0.00    +0.048 C 
ENDBRANCH  32  33
ENDBRANCH  27  32
ENDBRANCH   1  25
BRANCH   7  35
ATOM     35  C   UNL     1      -0.089  -0.097  -2.493  0.00  0.00    +0.108 C 
BRANCH  35  36
ATOM     36  C   UNL     1       0.718  -0.497  -1.257  0.00  0.00    +0.022 C 
BRANCH  36  37
ATOM     37  C   UNL     1       0.002  -0.004   0.002  0.00  0.00    -0.016 C 
ATOM     38  C   UNL     1      -0.019   1.526   0.010  0.00  0.00    +0.007 C 
ATOM     39  C   UNL     1       0.742  -0.511   1.242  0.00  0.00    +0.007 C 
ENDBRANCH  36  37
ENDBRANCH  35  36
ENDBRANCH   7  35
TORSDOF 9
