REMARK  Name = ZINC40120868
REMARK  7 active torsions:
REMARK  status: ('A' for Active; 'I' for Inactive)
REMARK    1  A    between atoms: C_1  and  N_2
REMARK    2  A    between atoms: N_2  and  C_3
REMARK    3  A    between atoms: C_7  and  N_10
REMARK    4  A    between atoms: N_13  and  C_14
REMARK    5  A    between atoms: C_14  and  C_15
REMARK    6  A    between atoms: C_15  and  C_17
REMARK    7  A    between atoms: C_15  and  N_23
REMARK                            x       y       z     vdW  Elec       q    Type
REMARK                         _______ _______ _______ _____ _____    ______ ____
ROOT
ATOM      1  C   UNL     1      -0.008  -1.712  -8.495  0.00  0.00    +0.129 C 
ENDROOT
BRANCH   1   5
ATOM      2  N   UNL     1      -2.849   0.281  -7.280  0.00  0.00    -0.268 N 
ATOM      3  C   UNL     1      -1.657  -0.346  -7.332  0.00  0.00    +0.304 C 
ATOM      4  O   UNL     1      -0.900  -0.294  -6.382  0.00  0.00    -0.253 OA
ATOM      5  N   UNL     1      -1.304  -1.031  -8.438  0.00  0.00    -0.297 N 
ATOM      6  H   UNL     1      -3.483   0.179  -8.007  0.00  0.00    +0.156 HD
ATOM      7  H   UNL     1      -1.908  -1.073  -9.196  0.00  0.00    +0.150 HD
BRANCH   2  14
ATOM      8  C   UNL     1      -5.662   3.423  -2.519  0.00  0.00    +0.130 C 
ATOM      9  N   UNL     1      -4.259   3.386  -2.941  0.00  0.00    -0.323 N 
ATOM     10  C   UNL     1      -3.255   4.166  -2.214  0.00  0.00    +0.130 C 
ATOM     11  C   UNL     1      -3.881   2.609  -4.033  0.00  0.00    +0.098 A 
ATOM     12  C   UNL     1      -2.547   2.575  -4.423  0.00  0.00    +0.043 A 
ATOM     13  C   UNL     1      -2.182   1.800  -5.509  0.00  0.00    +0.028 A 
ATOM     14  C   UNL     1      -3.173   1.079  -6.173  0.00  0.00    +0.051 A 
ATOM     15  C   UNL     1      -4.483   1.162  -5.727  0.00  0.00    +0.107 A 
ATOM     16  N   UNL     1      -4.795   1.907  -4.684  0.00  0.00    -0.348 N 
ATOM     17  H   UNL     1      -5.718   1.945  -4.389  0.00  0.00    +0.167 HD
ENDBRANCH   2  14
ENDBRANCH   1   5
BRANCH   1  18
ATOM     18  C   UNL     1       0.199  -2.297  -9.893  0.00  0.00    +0.104 C 
BRANCH  18  19
ATOM     19  N   UNL     1       1.457  -3.055  -9.926  0.00  0.00    -0.289 NA
ATOM     20  C   UNL     1       1.707  -3.605 -11.266  0.00  0.00    +0.090 C 
ATOM     21  C   UNL     1       3.185  -4.019 -11.364  0.00  0.00    +0.058 C 
ATOM     22  C   UNL     1       3.524  -4.791 -10.131  0.00  0.00    -0.005 A 
ATOM     23  C   UNL     1       2.787  -4.863  -8.988  0.00  0.00    -0.023 A 
ATOM     24  C   UNL     1       3.303  -5.652  -7.963  0.00  0.00    +0.013 A 
ATOM     25  C   UNL     1       4.482  -6.295  -8.132  0.00  0.00    +0.046 A 
ATOM     26  S   UNL     1       4.933  -5.807  -9.791  0.00  0.00    -0.101 S 
ATOM     27  C   UNL     1       1.471  -4.096  -8.890  0.00  0.00    +0.121 C 
ENDBRANCH  18  19
BRANCH  18  28
ATOM     28  C   UNL     1       0.260  -1.179 -10.902  0.00  0.00    -0.029 A 
ATOM     29  C   UNL     1       1.431  -0.464 -11.071  0.00  0.00    +0.005 A 
ATOM     30  C   UNL     1       1.488   0.562 -11.995  0.00  0.00    +0.000 A 
ATOM     31  C   UNL     1       0.373   0.872 -12.752  0.00  0.00    +0.000 A 
ATOM     32  C   UNL     1      -0.798   0.157 -12.584  0.00  0.00    +0.000 A 
ATOM     33  C   UNL     1      -0.853  -0.872 -11.662  0.00  0.00    +0.005 A 
ENDBRANCH  18  28
ENDBRANCH   1  18
TORSDOF 5
