REMARK  Name = ZINC33375174
REMARK  11 active torsions:
REMARK  status: ('A' for Active; 'I' for Inactive)
REMARK    1  A    between atoms: C_1  and  C_2
REMARK    2  A    between atoms: C_2  and  O_3
REMARK    3  A    between atoms: O_3  and  C_4
REMARK    4  A    between atoms: C_8  and  C_10
REMARK    5  A    between atoms: C_12  and  C_13
REMARK    6  A    between atoms: C_13  and  C_14
REMARK    7  A    between atoms: C_28  and  C_37
REMARK    8  A    between atoms: C_29  and  C_31
REMARK    9  A    between atoms: C_31  and  O_33
REMARK   10  A    between atoms: O_33  and  C_34
REMARK   11  A    between atoms: C_34  and  C_35
REMARK                            x       y       z     vdW  Elec       q    Type
REMARK                         _______ _______ _______ _____ _____    ______ ____
ROOT
ATOM      1  C   UNL     1       3.680   1.170  -0.184  0.00  0.00    +0.152 C 
ATOM      2  C   UNL     1       2.275   0.617  -0.235  0.00  0.00    +0.077 C 
ATOM      3  C   UNL     1       2.408  -0.767  -0.452  0.00  0.00    +0.250 C 
ATOM      4  O   UNL     1       1.495  -1.566  -0.550  0.00  0.00    -0.282 OA
ATOM      5  C   UNL     1       3.859  -1.084  -0.539  0.00  0.00    +0.293 C 
ATOM      6  O   UNL     1       4.319  -2.192  -0.724  0.00  0.00    -0.266 OA
ATOM      7  N   UNL     1       4.586   0.035  -0.387  0.00  0.00    -0.232 N 
ATOM      8  C   UNL     1       5.966   0.105  -0.412  0.00  0.00    +0.169 A 
ATOM      9  N   UNL     1       6.842  -0.874  -0.584  0.00  0.00    -0.229 NA
ATOM     10  C   UNL     1       8.129  -0.648  -0.586  0.00  0.00    +0.062 A 
ATOM     11  C   UNL     1       8.557   0.659  -0.390  0.00  0.00    +0.120 A 
ATOM     12  S   UNL     1       6.987   1.496  -0.218  0.00  0.00    -0.045 S 
ATOM     13  C   UNL     1       9.116  -1.769  -0.788  0.00  0.00    +0.067 C 
ENDROOT
BRANCH   1  18
ATOM     14  C   UNL     1       4.182   4.462  -1.971  0.00  0.00    +0.121 A 
ATOM     15  C   UNL     1       4.232   4.050  -3.295  0.00  0.00    +0.045 A 
ATOM     16  C   UNL     1       4.102   2.711  -3.606  0.00  0.00    +0.004 A 
ATOM     17  C   UNL     1       3.929   1.779  -2.599  0.00  0.00    +0.006 A 
ATOM     18  C   UNL     1       3.874   2.187  -1.279  0.00  0.00    -0.019 A 
ATOM     19  C   UNL     1       4.003   3.526  -0.963  0.00  0.00    +0.051 A 
BRANCH  14  20
ATOM     20  O   UNL     1       4.309   5.779  -1.662  0.00  0.00    -0.492 OA
BRANCH  20  22
ATOM     21  C   UNL     1       4.614   8.112  -2.212  0.00  0.00    +0.048 C 
ATOM     22  C   UNL     1       4.491   6.686  -2.751  0.00  0.00    +0.225 C 
ENDBRANCH  20  22
ENDBRANCH  14  20
ENDBRANCH   1  18
BRANCH   2  23
ATOM     23  C   UNL     1       1.102   1.324  -0.097  0.00  0.00    +0.195 C 
ATOM     24  O   UNL     1      -0.083   0.716  -0.316  0.00  0.00    -0.287 OA
BRANCH  23  25
ATOM     25  C   UNL     1       1.139   2.748   0.290  0.00  0.00    +0.025 A 
ATOM     26  C   UNL     1       1.877   3.173   1.403  0.00  0.00    +0.031 A 
ATOM     27  C   UNL     1       1.888   4.516   1.725  0.00  0.00    +0.111 A 
ATOM     28  N   UNL     1       1.209   5.390   1.008  0.00  0.00    -0.263 NA
ATOM     29  C   UNL     1       0.498   5.033  -0.043  0.00  0.00    +0.111 A 
ATOM     30  C   UNL     1       0.434   3.713  -0.442  0.00  0.00    +0.031 A 
ENDBRANCH  23  25
ENDBRANCH   2  23
BRANCH  11  31
ATOM     31  C   UNL     1       9.914   1.200  -0.340  0.00  0.00    +0.348 C 
ATOM     32  O   UNL     1      10.869   0.460  -0.481  0.00  0.00    -0.244 OA
BRANCH  31  33
ATOM     33  O   UNL     1      10.107   2.519  -0.136  0.00  0.00    -0.457 OA
BRANCH  33  34
ATOM     34  C   UNL     1      11.460   2.979  -0.098  0.00  0.00    +0.259 C 
BRANCH  34  35
ATOM     35  C   UNL     1      11.478   4.467   0.137  0.00  0.00    +0.006 C 
ATOM     36  C   UNL     1      12.309   4.982   1.009  0.00  0.00    +0.007 C 
ENDBRANCH  34  35
ENDBRANCH  33  34
ENDBRANCH  31  33
ENDBRANCH  11  31
TORSDOF 9
