REMARK  Name = ZINC06023156
REMARK  12 active torsions:
REMARK  status: ('A' for Active; 'I' for Inactive)
REMARK    1  A    between atoms: C_1  and  C_2
REMARK    2  A    between atoms: C_2  and  C_4
REMARK    3  A    between atoms: C_2  and  C_10
REMARK    4  A    between atoms: C_4  and  C_5
REMARK    5  A    between atoms: C_5  and  C_6
REMARK    6  A    between atoms: C_6  and  C_7
REMARK    7  A    between atoms: C_7  and  C_8
REMARK    8  A    between atoms: C_7  and  C_9
REMARK    9  A    between atoms: C_16  and  C_37
REMARK   10  A    between atoms: C_27  and  C_36
REMARK   11  A    between atoms: N_30  and  O_31
REMARK   12  A    between atoms: N_33  and  O_34
REMARK                            x       y       z     vdW  Elec       q    Type
REMARK                         _______ _______ _______ _____ _____    ______ ____
ROOT
ATOM      1  C   UNL     1       0.719  -0.004   1.336  0.00  0.00    -0.002 C 
ATOM      2  C   UNL     1       0.791  -1.523   1.637  0.00  0.00    +0.004 C 
ATOM      3  C   UNL     1       2.288  -1.840   1.927  0.00  0.00    +0.004 C 
ATOM      4  C   UNL     1       2.849  -0.446   2.260  0.00  0.00    -0.001 C 
ATOM      5  C   UNL     1       2.198   0.407   1.150  0.00  0.00    -0.026 C 
ATOM      6  C   UNL     1       2.485   1.867   1.371  0.00  0.00    +0.007 C 
ATOM      7  C   UNL     1       3.961   2.115   1.704  0.00  0.00    +0.005 C 
ATOM      8  C   UNL     1       4.831   0.888   1.501  0.00  0.00    -0.001 C 
ATOM      9  C   UNL     1       4.337  -0.303   2.319  0.00  0.00    -0.004 C 
ATOM     10  C   UNL     1       5.079  -1.554   1.847  0.00  0.00    +0.004 C 
ATOM     11  C   UNL     1       6.580  -1.335   2.049  0.00  0.00    +0.005 C 
ATOM     12  C   UNL     1       6.849   0.020   2.704  0.00  0.00    +0.002 C 
ATOM     13  C   UNL     1       6.296   1.168   1.866  0.00  0.00    -0.020 C 
ATOM     14  C   UNL     1       6.376   2.461   2.681  0.00  0.00    +0.068 C 
ATOM     15  C   UNL     1       7.802   2.704   3.112  0.00  0.00    +0.105 C 
ATOM     16  N   UNL     1       8.223   3.928   3.296  0.00  0.00    -0.090 NA
ATOM     17  C   UNL     1       8.724   1.573   3.326  0.00  0.00    +0.104 C 
ATOM     18  N   UNL     1       9.896   1.794   3.869  0.00  0.00    -0.090 NA
ATOM     19  C   UNL     1       8.356   0.175   2.908  0.00  0.00    +0.064 C 
ATOM     20  C   UNL     1       7.098   1.328   0.572  0.00  0.00    +0.012 C 
ATOM     21  C   UNL     1       2.597  -0.034  -0.258  0.00  0.00    +0.012 C 
ENDROOT
BRANCH   1  23
ATOM     22  C   UNL     1      -0.099   1.753  -0.236  0.00  0.00    +0.008 C 
ATOM     23  C   UNL     1      -0.053   0.250   0.044  0.00  0.00    -0.010 C 
BRANCH  23  24
ATOM     24  C   UNL     1      -1.479  -0.286   0.188  0.00  0.00    +0.003 C 
BRANCH  24  25
ATOM     25  C   UNL     1      -2.213  -0.145  -1.146  0.00  0.00    +0.001 C 
BRANCH  25  26
ATOM     26  C   UNL     1      -3.639  -0.681  -1.002  0.00  0.00    +0.003 C 
BRANCH  26  27
ATOM     27  C   UNL     1      -4.374  -0.541  -2.337  0.00  0.00    -0.017 C 
ATOM     28  C   UNL     1      -3.709  -1.437  -3.383  0.00  0.00    +0.007 C 
ATOM     29  C   UNL     1      -5.835  -0.960  -2.161  0.00  0.00    +0.007 C 
ENDBRANCH  26  27
ENDBRANCH  25  26
ENDBRANCH  24  25
ENDBRANCH  23  24
ENDBRANCH   1  23
BRANCH  16  30
ATOM     30  O   UNL     1       9.604   4.226   3.188  0.00  0.00    -0.409 OA
ATOM     31  H   UNL     1       9.819   5.156   3.340  0.00  0.00    +0.328 HD
ENDBRANCH  16  30
BRANCH  18  32
ATOM     32  O   UNL     1      10.091   2.928   4.696  0.00  0.00    -0.409 OA
ATOM     33  H   UNL     1      10.987   3.006   5.050  0.00  0.00    +0.328 HD
ENDBRANCH  18  32
TORSDOF 7
