REMARK  Name = ZINC09604426
REMARK  4 active torsions:
REMARK  status: ('A' for Active; 'I' for Inactive)
REMARK    1  A    between atoms: C_3  and  N_21
REMARK    2  A    between atoms: C_6  and  C_7
REMARK    3  A    between atoms: N_21  and  S_22
REMARK    4  A    between atoms: S_22  and  C_25
REMARK                            x       y       z     vdW  Elec       q    Type
REMARK                         _______ _______ _______ _____ _____    ______ ____
ROOT
ATOM      1  C   UNL     1       6.087   1.428  -3.578  0.00  0.00    +0.015 A 
ATOM      2  C   UNL     1       5.907   0.439  -2.638  0.00  0.00    +0.025 A 
ATOM      3  C   UNL     1       4.624  -0.002  -2.326  0.00  0.00    +0.048 A 
ATOM      4  C   UNL     1       3.519   0.553  -2.967  0.00  0.00    +0.025 A 
ATOM      5  C   UNL     1       3.692   1.547  -3.903  0.00  0.00    +0.015 A 
ATOM      6  C   UNL     1       4.980   1.991  -4.219  0.00  0.00    +0.037 A 
ENDROOT
BRANCH   6   7
ATOM      7  C   UNL     1       5.169   3.051  -5.227  0.00  0.00    +0.247 C 
ATOM      8  O   UNL     1       6.027   2.933  -6.080  0.00  0.00    -0.270 OA
ATOM      9  N   UNL     1       4.391   4.151  -5.202  0.00  0.00    -0.294 N 
ATOM     10  C   UNL     1       3.366   4.325  -4.163  0.00  0.00    +0.108 C 
ATOM     11  C   UNL     1       3.584   5.673  -3.469  0.00  0.00    +0.019 C 
ATOM     12  C   UNL     1       3.614   6.787  -4.519  0.00  0.00    +0.007 C 
ATOM     13  C   UNL     1       4.768   6.538  -5.491  0.00  0.00    +0.010 C 
ATOM     14  C   UNL     1       4.552   5.211  -6.211  0.00  0.00    +0.079 C 
ATOM     15  C   UNL     1       3.263   5.283  -7.045  0.00  0.00    +0.023 C 
ATOM     16  C   UNL     1       3.373   6.419  -8.063  0.00  0.00    +0.002 C 
ATOM     17  C   UNL     1       3.569   7.745  -7.323  0.00  0.00    +0.000 C 
ATOM     18  C   UNL     1       4.858   7.679  -6.502  0.00  0.00    +0.005 C 
ENDBRANCH   6   7
BRANCH   3  19
ATOM     19  N   UNL     1       4.445  -1.002  -1.377  0.00  0.00    -0.216 N 
ATOM     20  H   UNL     1       4.164  -1.888  -1.652  0.00  0.00    +0.174 HD
BRANCH  19  21
ATOM     21  S   UNL     1       4.713  -0.679   0.226  0.00  0.00    +0.072 S 
ATOM     22  O   UNL     1       6.017  -0.122   0.316  0.00  0.00    -0.150 OA
ATOM     23  O   UNL     1       4.331  -1.844   0.944  0.00  0.00    -0.150 OA
BRANCH  21  24
ATOM     24  C   UNL     1       3.588   0.593   0.696  0.00  0.00    +0.112 A 
ATOM     25  C   UNL     1       2.300   0.269   1.078  0.00  0.00    +0.032 A 
ATOM     26  C   UNL     1       1.414   1.264   1.446  0.00  0.00    +0.051 A 
ATOM     27  C   UNL     1       1.816   2.591   1.433  0.00  0.00    +0.162 A 
ATOM     28  C   UNL     1       3.112   2.917   1.051  0.00  0.00    +0.164 A 
ATOM     29  C   UNL     1       3.996   1.914   0.682  0.00  0.00    +0.078 A 
ATOM     30  O   UNL     1       3.530   4.213   1.039  0.00  0.00    -0.485 OA
ATOM     31  C   UNL     1       2.510   5.218   1.055  0.00  0.00    +0.270 C 
ATOM     32  C   UNL     1       1.480   4.840   2.127  0.00  0.00    +0.270 C 
ATOM     33  O   UNL     1       0.931   3.561   1.790  0.00  0.00    -0.485 OA
ENDBRANCH  21  24
ENDBRANCH  19  21
ENDBRANCH   3  19
TORSDOF 4
