REMARK  Name = ZINC10436310
REMARK  14 active torsions:
REMARK  status: ('A' for Active; 'I' for Inactive)
REMARK    1  A    between atoms: C_1  and  C_2
REMARK    2  A    between atoms: C_2  and  C_3
REMARK    3  A    between atoms: C_3  and  C_4
REMARK    4  A    between atoms: C_4  and  C_6
REMARK    5  A    between atoms: C_4  and  N_66
REMARK    6  A    between atoms: C_12  and  C_13
REMARK    7  A    between atoms: C_12  and  N_66
REMARK    8  A    between atoms: C_16  and  O_19
REMARK    9  A    between atoms: O_19  and  C_20
REMARK   10  A    between atoms: C_20  and  C_21
REMARK   11  A    between atoms: C_21  and  C_23
REMARK   12  A    between atoms: C_21  and  O_35
REMARK   13  A    between atoms: N_29  and  C_34
REMARK   14  A    between atoms: N_32  and  C_33
REMARK                            x       y       z     vdW  Elec       q    Type
REMARK                         _______ _______ _______ _____ _____    ______ ____
ROOT
ATOM      1  C   UNL     1      -3.338  -0.555   1.438  0.00  0.00    -0.064 A 
ATOM      2  C   UNL     1      -4.248   0.470   1.257  0.00  0.00    +0.005 A 
ATOM      3  C   UNL     1      -5.602   0.198   1.234  0.00  0.00    +0.046 A 
ATOM      4  C   UNL     1      -6.049  -1.105   1.404  0.00  0.00    +0.121 A 
ATOM      5  C   UNL     1      -5.135  -2.131   1.591  0.00  0.00    +0.046 A 
ATOM      6  C   UNL     1      -3.781  -1.854   1.607  0.00  0.00    +0.005 A 
ENDROOT
BRANCH   1   7
ATOM      7  C   UNL     1      -1.861  -0.256   1.456  0.00  0.00    -0.046 C 
BRANCH   7   8
ATOM      8  N   UNL     1      -1.330  -0.360   0.084  0.00  0.00    +0.386 N 
ATOM      9  H   UNL     1      -1.441  -1.325  -0.250  0.00  0.00    -0.085 HD
ATOM     10  H   UNL     1      -1.851   0.277  -0.530  0.00  0.00    -0.085 HD
BRANCH   8  11
ATOM     11  C   UNL     1       0.100   0.001   0.060  0.00  0.00    -0.040 C 
BRANCH  11  12
ATOM     12  C   UNL     1       0.927  -1.188   0.476  0.00  0.00    -0.061 A 
ATOM     13  C   UNL     1       0.578  -2.456   0.049  0.00  0.00    +0.002 A 
ATOM     14  C   UNL     1       1.339  -3.546   0.426  0.00  0.00    +0.000 A 
ATOM     15  C   UNL     1       2.443  -3.370   1.239  0.00  0.00    +0.000 A 
ATOM     16  C   UNL     1       2.789  -2.103   1.671  0.00  0.00    +0.000 A 
ATOM     17  C   UNL     1       2.031  -1.012   1.289  0.00  0.00    +0.002 A 
ENDBRANCH  11  12
BRANCH  11  18
ATOM     18  C   UNL     1       0.488   0.421  -1.359  0.00  0.00    -0.011 C 
BRANCH  18  20
ATOM     19  C   UNL     1       0.119   2.115  -3.158  0.00  0.00    +0.004 C 
ATOM     20  C   UNL     1      -0.256   1.705  -1.733  0.00  0.00    -0.005 C 
ENDBRANCH  18  20
ENDBRANCH  11  18
ENDBRANCH   8  11
ENDBRANCH   7   8
ENDBRANCH   1   7
BRANCH   4  21
ATOM     21  O   UNL     1      -7.381  -1.374   1.387  0.00  0.00    -0.489 OA
BRANCH  21  22
ATOM     22  C   UNL     1      -8.265  -0.269   1.190  0.00  0.00    +0.265 C 
BRANCH  22  23
ATOM     23  C   UNL     1      -9.712  -0.764   1.200  0.00  0.00    +0.182 C 
BRANCH  23  24
ATOM     24  C   UNL     1     -10.637   0.379   0.871  0.00  0.00    -0.014 A 
ATOM     25  C   UNL     1     -10.983   1.291   1.853  0.00  0.00    +0.008 A 
ATOM     26  C   UNL     1     -11.826   2.345   1.559  0.00  0.00    +0.028 A 
ATOM     27  C   UNL     1     -12.337   2.483   0.278  0.00  0.00    +0.070 A 
ATOM     28  C   UNL     1     -11.992   1.560  -0.712  0.00  0.00    +0.070 A 
ATOM     29  C   UNL     1     -11.141   0.509  -0.409  0.00  0.00    +0.034 A 
ATOM     30  N   UNL     1     -12.648   1.954  -1.876  0.00  0.00    -0.295 N 
ATOM     31  C   UNL     1     -13.359   3.066  -1.607  0.00  0.00    +0.330 A 
ATOM     32  O   UNL     1     -14.048   3.668  -2.408  0.00  0.00    -0.246 OA
ATOM     33  N   UNL     1     -13.191   3.410  -0.316  0.00  0.00    -0.295 N 
ATOM     34  C   UNL     1     -13.804   4.561   0.351  0.00  0.00    +0.154 C 
ATOM     35  C   UNL     1     -12.576   1.275  -3.172  0.00  0.00    +0.154 C 
ENDBRANCH  23  24
BRANCH  23  36
ATOM     36  O   UNL     1     -10.031  -1.276   2.496  0.00  0.00    -0.384 OA
ATOM     37  H   UNL     1      -9.946  -0.627   3.207  0.00  0.00    +0.210 HD
ENDBRANCH  23  36
ENDBRANCH  22  23
ENDBRANCH  21  22
ENDBRANCH   4  21
TORSDOF 11
