REMARK  Name = ZINC05865498
REMARK  3 active torsions:
REMARK  status: ('A' for Active; 'I' for Inactive)
REMARK    1  A    between atoms: C_9  and  C_12
REMARK    2  A    between atoms: N_14  and  N_15
REMARK    3  A    between atoms: C_21  and  C_23
REMARK                            x       y       z     vdW  Elec       q    Type
REMARK                         _______ _______ _______ _____ _____    ______ ____
ROOT
ATOM      1  C   UNL     1       1.986   2.852   3.130  0.00  0.00    +0.276 C 
ATOM      2  O   UNL     1       1.393   3.239   4.116  0.00  0.00    -0.270 OA
ATOM      3  N   UNL     1       1.304   2.305   2.105  0.00  0.00    -0.204 N 
ATOM      4  H   UNL     1       1.778   1.996   1.317  0.00  0.00    +0.177 HD
ENDROOT
BRANCH   1  13
ATOM      5  C   UNL     1       7.885   4.862   4.337  0.00  0.00    +0.004 A 
ATOM      6  C   UNL     1       7.242   4.553   5.521  0.00  0.00    +0.004 A 
ATOM      7  C   UNL     1       5.940   4.091   5.504  0.00  0.00    +0.049 A 
ATOM      8  C   UNL     1       5.274   3.935   4.298  0.00  0.00    +0.163 A 
ATOM      9  C   UNL     1       5.920   4.244   3.107  0.00  0.00    +0.162 A 
ATOM     10  C   UNL     1       7.227   4.708   3.131  0.00  0.00    +0.049 A 
ATOM     11  O   UNL     1       5.288   4.091   1.911  0.00  0.00    -0.484 OA
ATOM     12  C   UNL     1       3.861   3.981   1.948  0.00  0.00    +0.283 C 
ATOM     13  C   UNL     1       3.485   2.984   3.053  0.00  0.00    +0.297 C 
ATOM     14  O   UNL     1       3.991   3.482   4.297  0.00  0.00    -0.472 OA
ENDBRANCH   1  13
BRANCH   3  15
ATOM     15  N   UNL     1      -0.090   2.183   2.177  0.00  0.00    -0.189 NA
ATOM     16  C   UNL     1      -0.749   1.760   1.164  0.00  0.00    +0.040 C 
ATOM     17  C   UNL     1      -0.064   1.528  -0.165  0.00  0.00    +0.053 C 
ATOM     18  C   UNL     1      -0.851   2.259  -1.258  0.00  0.00    +0.006 C 
ATOM     19  C   UNL     1      -2.312   1.808  -1.219  0.00  0.00    +0.001 C 
ATOM     20  C   UNL     1      -2.945   2.213   0.113  0.00  0.00    +0.010 C 
ATOM     21  C   UNL     1      -2.236   1.481   1.257  0.00  0.00    +0.038 C 
BRANCH  21  22
ATOM     22  C   UNL     1      -2.769   1.987   2.599  0.00  0.00    -0.002 C 
ATOM     23  C   UNL     1      -2.059   1.254   3.739  0.00  0.00    +0.004 C 
ATOM     24  C   UNL     1      -2.592   1.760   5.081  0.00  0.00    +0.000 C 
ATOM     25  C   UNL     1      -4.097   1.497   5.164  0.00  0.00    +0.000 C 
ATOM     26  C   UNL     1      -4.807   2.231   4.024  0.00  0.00    +0.000 C 
ATOM     27  C   UNL     1      -4.274   1.724   2.683  0.00  0.00    +0.004 C 
ENDBRANCH  21  22
ENDBRANCH   3  15
TORSDOF 3
