REMARK  Name = ZINC03365200
REMARK  8 active torsions:
REMARK  status: ('A' for Active; 'I' for Inactive)
REMARK    1  A    between atoms: C_1  and  C_2
REMARK    2  A    between atoms: C_2  and  C_4
REMARK    3  A    between atoms: C_2  and  S_19
REMARK    4  A    between atoms: N_6  and  C_7
REMARK    5  A    between atoms: C_12  and  C_13
REMARK    6  A    between atoms: S_19  and  C_20
REMARK    7  A    between atoms: N_33  and  C_34
REMARK    8  A    between atoms: C_34  and  C_35
REMARK                            x       y       z     vdW  Elec       q    Type
REMARK                         _______ _______ _______ _____ _____    ______ ____
ROOT
ATOM      1  C   UNL     1      -0.912  -2.602   1.677  0.00  0.00    +0.029 C 
ATOM      2  C   UNL     1      -1.121  -2.197   0.216  0.00  0.00    +0.137 C 
ENDROOT
BRANCH   2   3
ATOM      3  C   UNL     1      -1.150  -0.694   0.111  0.00  0.00    +0.230 C 
ATOM      4  O   UNL     1      -2.211  -0.106   0.124  0.00  0.00    -0.274 OA
ATOM      5  N   UNL     1       0.002  -0.004   0.002  0.00  0.00    -0.284 N 
ATOM      6  H   UNL     1       0.845  -0.477  -0.074  0.00  0.00    +0.155 HD
BRANCH   5   7
ATOM      7  C   UNL     1      -0.018   1.393  -0.001  0.00  0.00    +0.041 A 
ATOM      8  C   UNL     1      -1.073   2.074  -0.592  0.00  0.00    +0.024 A 
ATOM      9  C   UNL     1      -1.093   3.455  -0.590  0.00  0.00    +0.002 A 
ATOM     10  C   UNL     1      -0.059   4.168  -0.008  0.00  0.00    +0.001 A 
ATOM     11  C   UNL     1       1.000   3.504   0.579  0.00  0.00    +0.010 A 
ATOM     12  C   UNL     1       1.029   2.112   0.588  0.00  0.00    +0.003 A 
BRANCH  12  13
ATOM     13  C   UNL     1       2.163   1.394   1.218  0.00  0.00    -0.016 A 
ATOM     14  C   UNL     1       1.923   0.377   2.140  0.00  0.00    +0.008 A 
ATOM     15  C   UNL     1       2.982  -0.290   2.719  0.00  0.00    +0.001 A 
ATOM     16  C   UNL     1       4.282   0.055   2.395  0.00  0.00    +0.000 A 
ATOM     17  C   UNL     1       4.527   1.067   1.484  0.00  0.00    +0.001 A 
ATOM     18  C   UNL     1       3.475   1.738   0.894  0.00  0.00    +0.008 A 
ENDBRANCH  12  13
ENDBRANCH   5   7
ENDBRANCH   2   3
BRANCH   2  19
ATOM     19  S   UNL     1      -2.695  -2.876  -0.379  0.00  0.00    -0.073 S 
BRANCH  19  20
ATOM     20  C   UNL     1      -2.452  -4.620  -0.333  0.00  0.00    +0.198 A 
ATOM     21  N   UNL     1      -1.359  -5.236   0.047  0.00  0.00    -0.120 NA
ATOM     22  N   UNL     1      -1.578  -6.614  -0.062  0.00  0.00    -0.109 NA
ATOM     23  C   UNL     1      -2.798  -6.800  -0.515  0.00  0.00    +0.240 A 
ATOM     24  N   UNL     1      -3.369  -5.570  -0.694  0.00  0.00    -0.256 N 
ATOM     25  C   UNL     1      -4.673  -5.458  -1.171  0.00  0.00    +0.064 A 
ATOM     26  C   UNL     1      -5.262  -4.216  -1.356  0.00  0.00    +0.027 A 
ATOM     27  C   UNL     1      -6.557  -4.133  -1.828  0.00  0.00    +0.002 A 
ATOM     28  C   UNL     1      -7.276  -5.281  -2.120  0.00  0.00    +0.001 A 
ATOM     29  C   UNL     1      -6.707  -6.524  -1.942  0.00  0.00    +0.015 A 
ATOM     30  C   UNL     1      -5.400  -6.621  -1.466  0.00  0.00    +0.064 A 
ATOM     31  C   UNL     1      -4.756  -7.931  -1.261  0.00  0.00    +0.263 A 
ATOM     32  O   UNL     1      -5.355  -8.961  -1.506  0.00  0.00    -0.267 OA
ATOM     33  N   UNL     1      -3.490  -7.968  -0.798  0.00  0.00    -0.273 N 
BRANCH  33  34
ATOM     34  C   UNL     1      -2.836  -9.262  -0.589  0.00  0.00    +0.155 C 
BRANCH  34  35
ATOM     35  C   UNL     1      -3.101  -9.739   0.815  0.00  0.00    -0.013 C 
ATOM     36  C   UNL     1      -3.635 -10.918   1.017  0.00  0.00    +0.005 C 
ENDBRANCH  34  35
ENDBRANCH  33  34
ENDBRANCH  19  20
ENDBRANCH   2  19
TORSDOF 7
