REMARK  Name = ZINC12315889
REMARK  6 active torsions:
REMARK  status: ('A' for Active; 'I' for Inactive)
REMARK    1  A    between atoms: C_1  and  C_2
REMARK    2  A    between atoms: C_11  and  C_12
REMARK    3  A    between atoms: C_12  and  N_57
REMARK    4  A    between atoms: C_16  and  C_19
REMARK    5  A    between atoms: C_19  and  N_20
REMARK    6  A    between atoms: C_21  and  C_23
REMARK                            x       y       z     vdW  Elec       q    Type
REMARK                         _______ _______ _______ _____ _____    ______ ____
ROOT
ATOM      1  C   UNL     1      -0.881  -2.503  -1.167  0.00  0.00    -0.078 C 
ATOM      2  C   UNL     1       0.564  -2.030  -1.342  0.00  0.00    -0.018 C 
ATOM      3  C   UNL     1       0.602  -0.500  -1.317  0.00  0.00    +0.001 C 
ATOM      4  C   UNL     1       0.002  -0.004   0.002  0.00  0.00    -0.011 C 
ATOM      5  C   UNL     1      -1.427  -0.535   0.139  0.00  0.00    -0.073 C 
ATOM      6  N   UNL     1      -1.392  -2.013   0.132  0.00  0.00    +0.384 N 
ATOM      7  H   UNL     1      -0.765  -2.335   0.879  0.00  0.00    -0.081 HD
ENDROOT
BRANCH   6   8
ATOM      8  C   UNL     1      -2.746  -2.551   0.376  0.00  0.00    -0.024 C 
BRANCH   8  19
ATOM      9  C   UNL     1      -1.853  -3.951   2.999  0.00  0.00    +0.046 C 
ATOM     10  C   UNL     1      -2.259  -4.637   1.720  0.00  0.00    -0.024 A 
ATOM     11  C   UNL     1      -2.307  -6.082   1.484  0.00  0.00    +0.003 A 
ATOM     12  C   UNL     1      -2.025  -7.204   2.267  0.00  0.00    +0.010 A 
ATOM     13  C   UNL     1      -2.173  -8.454   1.738  0.00  0.00    +0.001 A 
ATOM     14  C   UNL     1      -2.602  -8.620   0.428  0.00  0.00    +0.002 A 
ATOM     15  C   UNL     1      -2.884  -7.528  -0.362  0.00  0.00    +0.026 A 
ATOM     16  C   UNL     1      -2.740  -6.245   0.155  0.00  0.00    +0.047 A 
ATOM     17  N   UNL     1      -2.944  -4.985  -0.362  0.00  0.00    -0.359 N 
ATOM     18  H   UNL     1      -3.249  -4.796  -1.263  0.00  0.00    +0.166 HD
ATOM     19  C   UNL     1      -2.647  -4.040   0.582  0.00  0.00    +0.003 A 
ENDBRANCH   8  19
ENDBRANCH   6   8
BRANCH   4  20
ATOM     20  C   UNL     1      -0.019   1.526   0.010  0.00  0.00    +0.106 C 
BRANCH  20  21
ATOM     21  N   UNL     1       1.356   2.033   0.000  0.00  0.00    -0.311 N 
ATOM     22  C   UNL     1       1.584   3.361   0.005  0.00  0.00    +0.244 C 
ATOM     23  O   UNL     1       0.649   4.139   0.018  0.00  0.00    -0.270 OA
ATOM     24  H   UNL     1       2.102   1.413  -0.010  0.00  0.00    +0.149 HD
BRANCH  22  25
ATOM     25  C   UNL     1       2.969   3.872  -0.005  0.00  0.00    +0.040 A 
ATOM     26  C   UNL     1       4.044   2.980  -0.021  0.00  0.00    +0.017 A 
ATOM     27  C   UNL     1       5.336   3.459  -0.031  0.00  0.00    +0.050 A 
ATOM     28  C   UNL     1       5.574   4.827  -0.025  0.00  0.00    +0.166 A 
ATOM     29  C   UNL     1       4.505   5.723  -0.010  0.00  0.00    +0.167 A 
ATOM     30  C   UNL     1       3.207   5.249  -0.006  0.00  0.00    +0.062 A 
ATOM     31  O   UNL     1       5.002   6.995  -0.007  0.00  0.00    -0.453 OA
ATOM     32  C   UNL     1       6.372   6.872  -0.434  0.00  0.00    +0.466 C 
ATOM     33  O   UNL     1       6.737   5.539  -0.032  0.00  0.00    -0.453 OA
ENDBRANCH  22  25
ENDBRANCH  20  21
ENDBRANCH   4  20
TORSDOF 5
