REMARK  Name = ZINC14548266
REMARK  6 active torsions:
REMARK  status: ('A' for Active; 'I' for Inactive)
REMARK    1  A    between atoms: C_1  and  C_2
REMARK    2  A    between atoms: C_2  and  C_3
REMARK    3  A    between atoms: C_3  and  C_4
REMARK    4  A    between atoms: N_6  and  C_7
REMARK    5  A    between atoms: C_20  and  C_23
REMARK    6  A    between atoms: C_32  and  O_33
REMARK                            x       y       z     vdW  Elec       q    Type
REMARK                         _______ _______ _______ _____ _____    ______ ____
ROOT
ATOM      1  C   UNL     1      -3.031  -5.324  -0.340  0.00  0.00    +0.039 A 
ATOM      2  C   UNL     1      -3.311  -6.318   0.588  0.00  0.00    +0.025 A 
ATOM      3  C   UNL     1      -2.516  -6.445   1.711  0.00  0.00    +0.023 A 
ATOM      4  C   UNL     1      -1.449  -5.595   1.908  0.00  0.00    +0.062 A 
ATOM      5  C   UNL     1      -1.149  -4.592   0.982  0.00  0.00    +0.052 A 
ATOM      6  C   UNL     1      -1.965  -4.462  -0.143  0.00  0.00    +0.003 A 
ATOM      7  C   UNL     1      -1.656  -3.376  -1.098  0.00  0.00    +0.050 C 
ATOM      8  C   UNL     1      -1.970  -3.466  -2.545  0.00  0.00    -0.023 C 
ATOM      9  C   UNL     1      -1.054  -2.780  -3.220  0.00  0.00    -0.030 C 
ATOM     10  C   UNL     1      -0.019  -2.200  -2.251  0.00  0.00    +0.033 C 
ATOM     11  C   UNL     1      -0.107  -3.188  -1.084  0.00  0.00    +0.029 C 
ATOM     12  C   UNL     1       0.202  -2.675   0.307  0.00  0.00    +0.109 C 
ATOM     13  N   UNL     1      -0.044  -3.783   1.244  0.00  0.00    -0.335 N 
ATOM     14 CL   UNL     1      -0.463  -5.773   3.326  0.00  0.00    -0.082 Cl
ATOM     15  H   UNL     1       0.788  -4.338   1.374  0.00  0.00    +0.147 HD
ENDROOT
BRANCH  12  16
ATOM     16  C   UNL     1       1.644  -2.245   0.388  0.00  0.00    +0.022 A 
ATOM     17  C   UNL     1       1.969  -0.886   0.528  0.00  0.00    -0.009 A 
ATOM     18  C   UNL     1       0.968   0.100   0.599  0.00  0.00    +0.009 A 
ATOM     19  C   UNL     1       1.320   1.407   0.736  0.00  0.00    +0.001 A 
ATOM     20  C   UNL     1       2.659   1.787   0.808  0.00  0.00    +0.001 A 
ATOM     21  C   UNL     1       3.654   0.861   0.743  0.00  0.00    +0.008 A 
ATOM     22  C   UNL     1       3.331  -0.500   0.602  0.00  0.00    -0.017 A 
ATOM     23  C   UNL     1       4.332  -1.484   0.532  0.00  0.00    +0.012 A 
ATOM     24  C   UNL     1       3.985  -2.791   0.396  0.00  0.00    +0.046 A 
ATOM     25  C   UNL     1       2.642  -3.174   0.323  0.00  0.00    +0.122 A 
BRANCH  25  26
ATOM     26  O   UNL     1       2.326  -4.489   0.186  0.00  0.00    -0.506 OA
ATOM     27  H   UNL     1       2.312  -4.979   1.020  0.00  0.00    +0.292 HD
ENDBRANCH  25  26
ENDBRANCH  12  16
BRANCH   1  30
ATOM     28  C   UNL     1      -4.433  -6.274  -2.011  0.00  0.00    +0.217 C 
ATOM     29  O   UNL     1      -4.205  -7.377  -1.560  0.00  0.00    -0.275 OA
ATOM     30  N   UNL     1      -3.832  -5.191  -1.480  0.00  0.00    -0.285 N 
ATOM     31  H   UNL     1      -3.954  -4.320  -1.888  0.00  0.00    +0.155 HD
BRANCH  28  32
ATOM     32  C   UNL     1      -5.390  -6.115  -3.164  0.00  0.00    +0.096 C 
BRANCH  32  34
ATOM     33  C   UNL     1      -6.900  -7.327  -4.744  0.00  0.00    +0.004 C 
ATOM     34  C   UNL     1      -5.928  -7.488  -3.573  0.00  0.00    +0.006 C 
ENDBRANCH  32  34
ENDBRANCH  28  32
ENDBRANCH   1  30
TORSDOF 5
