REMARK  Name = ZINC24474017
REMARK  8 active torsions:
REMARK  status: ('A' for Active; 'I' for Inactive)
REMARK    1  A    between atoms: C_1  and  C_2
REMARK    2  A    between atoms: C_7  and  C_9
REMARK    3  A    between atoms: C_7  and  C_10
REMARK    4  A    between atoms: N_13  and  C_17
REMARK    5  A    between atoms: C_17  and  C_18
REMARK    6  A    between atoms: C_18  and  O_20
REMARK    7  A    between atoms: O_20  and  C_21
REMARK    8  A    between atoms: C_21  and  C_22
REMARK                            x       y       z     vdW  Elec       q    Type
REMARK                         _______ _______ _______ _____ _____    ______ ____
ROOT
ATOM      1  C   UNL     1      -0.019   1.528   0.010  0.00  0.00    +0.007 C 
ATOM      2  C   UNL     1       0.002  -0.004   0.002  0.00  0.00    -0.011 C 
ATOM      3  C   UNL     1       0.727  -0.492  -1.254  0.00  0.00    +0.038 C 
ATOM      4  C   UNL     1       0.711  -2.014  -1.298  0.00  0.00    +0.113 C 
ATOM      5  C   UNL     1       1.263  -2.646  -0.036  0.00  0.00    +0.041 C 
ATOM      6  C   UNL     1       0.787  -2.030   1.268  0.00  0.00    -0.032 C 
ATOM      7  C   UNL     1       0.763  -0.507   1.227  0.00  0.00    +0.009 C 
ATOM      8  C   UNL     1       1.769  -2.455   2.382  0.00  0.00    +0.011 C 
ATOM      9  C   UNL     1      -0.596  -2.567   1.648  0.00  0.00    +0.011 C 
ATOM     10  C   UNL     1      -0.666  -2.529  -1.638  0.00  0.00    +0.247 C 
ATOM     11  O   UNL     1      -1.717  -2.280  -1.086  0.00  0.00    -0.273 OA
ATOM     12  N   UNL     1      -0.505  -3.321  -2.720  0.00  0.00    -0.213 N 
ATOM     13  C   UNL     1       0.748  -3.270  -3.183  0.00  0.00    +0.310 C 
ATOM     14  O   UNL     1       1.136  -3.886  -4.157  0.00  0.00    -0.252 OA
ATOM     15  N   UNL     1       1.531  -2.463  -2.446  0.00  0.00    -0.285 N 
ATOM     16  H   UNL     1       2.451  -2.215  -2.619  0.00  0.00    +0.151 HD
ENDROOT
BRANCH  12  17
ATOM     17  C   UNL     1      -1.572  -4.133  -3.310  0.00  0.00    +0.238 C 
BRANCH  17  18
ATOM     18  C   UNL     1      -2.295  -3.328  -4.359  0.00  0.00    +0.326 C 
ATOM     19  O   UNL     1      -1.954  -2.192  -4.590  0.00  0.00    -0.249 OA
BRANCH  18  20
ATOM     20  O   UNL     1      -3.317  -3.873  -5.037  0.00  0.00    -0.459 OA
BRANCH  20  21
ATOM     21  C   UNL     1      -3.956  -3.053  -6.017  0.00  0.00    +0.268 C 
BRANCH  21  22
ATOM     22  C   UNL     1      -5.072  -3.828  -6.671  0.00  0.00    +0.007 A 
ATOM     23  C   UNL     1      -5.331  -5.128  -6.278  0.00  0.00    +0.057 A 
ATOM     24  C   UNL     1      -6.357  -5.842  -6.877  0.00  0.00    +0.163 A 
ATOM     25  C   UNL     1      -7.126  -5.248  -7.871  0.00  0.00    +0.163 A 
ATOM     26  C   UNL     1      -6.860  -3.945  -8.262  0.00  0.00    +0.065 A 
ATOM     27  C   UNL     1      -5.838  -3.235  -7.658  0.00  0.00    +0.028 A 
ATOM     28 BR   UNL     1      -5.483  -1.455  -8.187  0.00  0.00    -0.050 Br
ATOM     29  O   UNL     1      -8.143  -5.929  -8.466  0.00  0.00    -0.485 OA
ATOM     30  C   UNL     1      -8.140  -7.353  -8.313  0.00  0.00    +0.270 C 
ATOM     31  C   UNL     1      -7.870  -7.677  -6.837  0.00  0.00    +0.270 C 
ATOM     32  O   UNL     1      -6.598  -7.123  -6.482  0.00  0.00    -0.485 OA
ENDBRANCH  21  22
ENDBRANCH  20  21
ENDBRANCH  18  20
ENDBRANCH  17  18
ENDBRANCH  12  17
TORSDOF 5
