REMARK  Name = ZINC30961413
REMARK  9 active torsions:
REMARK  status: ('A' for Active; 'I' for Inactive)
REMARK    1  A    between atoms: C_1  and  C_2
REMARK    2  A    between atoms: C_2  and  C_3
REMARK    3  A    between atoms: C_2  and  C_4
REMARK    4  A    between atoms: C_4  and  C_6
REMARK    5  A    between atoms: C_4  and  N_22
REMARK    6  A    between atoms: N_8  and  N_9
REMARK    7  A    between atoms: C_10  and  C_11
REMARK    8  A    between atoms: C_14  and  N_17
REMARK    9  A    between atoms: C_23  and  C_25
REMARK                            x       y       z     vdW  Elec       q    Type
REMARK                         _______ _______ _______ _____ _____    ______ ____
ROOT
ATOM      1  C   UNL     1      -3.597  -2.433  -0.372  0.00  0.00    +0.253 C 
ATOM      2  O   UNL     1      -2.634  -2.530  -1.103  0.00  0.00    -0.272 OA
ATOM      3  N   UNL     1      -4.608  -3.320  -0.467  0.00  0.00    -0.205 N 
ATOM      4  H   UNL     1      -5.438  -3.287   0.254  0.00  0.00    +0.177 HD
ENDROOT
BRANCH   3   5
ATOM      5  N   UNL     1      -4.600  -4.284  -1.484  0.00  0.00    -0.188 NA
ATOM      6  C   UNL     1      -5.627  -5.060  -1.649  0.00  0.00    +0.138 C 
BRANCH   6   7
ATOM      7  C   UNL     1      -6.954  -4.642  -1.161  0.00  0.00    -0.005 A 
ATOM      8  C   UNL     1      -8.015  -5.552  -1.149  0.00  0.00    +0.011 A 
ATOM      9  C   UNL     1      -9.251  -5.159  -0.687  0.00  0.00    +0.024 A 
ATOM     10  C   UNL     1      -9.448  -3.855  -0.243  0.00  0.00    +0.030 A 
ATOM     11  C   UNL     1      -8.396  -2.945  -0.260  0.00  0.00    +0.024 A 
ATOM     12  C   UNL     1      -7.155  -3.333  -0.715  0.00  0.00    +0.011 A 
BRANCH  10  13
ATOM     13  N   UNL     1     -10.703  -3.459   0.219  0.00  0.00    -0.330 N 
ATOM     14  C   UNL     1     -11.735  -3.622  -0.837  0.00  0.00    +0.105 C 
ATOM     15  C   UNL     1     -13.060  -3.659  -0.035  0.00  0.00    +0.020 C 
ATOM     16  C   UNL     1     -12.673  -4.449   1.237  0.00  0.00    +0.020 C 
ATOM     17  C   UNL     1     -11.143  -4.307   1.348  0.00  0.00    +0.105 C 
ENDBRANCH  10  13
ENDBRANCH   6   7
ENDBRANCH   3   5
BRANCH   1  18
ATOM     18  C   UNL     1      -3.664  -1.321   0.643  0.00  0.00    +0.163 C 
BRANCH  18  19
ATOM     19  N   UNL     1      -2.881  -0.178   0.167  0.00  0.00    -0.300 N 
ATOM     20  C   UNL     1      -3.170   1.065   0.601  0.00  0.00    +0.246 C 
ATOM     21  O   UNL     1      -4.081   1.237   1.387  0.00  0.00    -0.270 OA
ATOM     22  H   UNL     1      -2.057  -0.334  -0.545  0.00  0.00    +0.150 HD
BRANCH  20  23
ATOM     23  C   UNL     1      -2.381   2.217   0.121  0.00  0.00    +0.055 A 
ATOM     24  C   UNL     1      -1.334   2.022  -0.782  0.00  0.00    +0.016 A 
ATOM     25  C   UNL     1      -0.604   3.102  -1.231  0.00  0.00    +0.021 A 
ATOM     26  C   UNL     1      -0.903   4.379  -0.783  0.00  0.00    +0.042 A 
ATOM     27  C   UNL     1      -1.936   4.580   0.116  0.00  0.00    +0.040 A 
ATOM     28  C   UNL     1      -2.675   3.506   0.573  0.00  0.00    +0.054 A 
ATOM     29 CL   UNL     1      -3.970   3.758   1.701  0.00  0.00    -0.083 Cl
ATOM     30 CL   UNL     1       0.022   5.733  -1.353  0.00  0.00    -0.083 Cl
ENDBRANCH  20  23
ENDBRANCH  18  19
BRANCH  18  32
ATOM     31  C   UNL     1      -3.094  -0.662   2.985  0.00  0.00    +0.009 C 
ATOM     32  C   UNL     1      -3.092  -1.812   1.975  0.00  0.00    +0.012 C 
ATOM     33  C   UNL     1      -3.953  -2.959   2.507  0.00  0.00    +0.009 C 
ENDBRANCH  18  32
ENDBRANCH   1  18
TORSDOF 7
