REMARK  Name = ZINC15643105
REMARK  8 active torsions:
REMARK  status: ('A' for Active; 'I' for Inactive)
REMARK    1  A    between atoms: C_1  and  C_2
REMARK    2  A    between atoms: C_2  and  C_4
REMARK    3  A    between atoms: C_2  and  O_17
REMARK    4  A    between atoms: N_6  and  C_7
REMARK    5  A    between atoms: C_12  and  C_13
REMARK    6  A    between atoms: O_17  and  C_18
REMARK    7  A    between atoms: C_18  and  C_20
REMARK    8  A    between atoms: C_25  and  N_26
REMARK                            x       y       z     vdW  Elec       q    Type
REMARK                         _______ _______ _______ _____ _____    ______ ____
ROOT
ATOM      1  C   UNL     1       6.200   2.208  -0.076  0.00  0.00    +0.342 C 
ATOM      2  O   UNL     1       6.190   3.420  -0.168  0.00  0.00    -0.245 OA
ENDROOT
BRANCH   1   3
ATOM      3  C   UNL     1       4.929   1.458  -0.071  0.00  0.00    +0.080 A 
ATOM      4  C   UNL     1       4.942   0.064  -0.070  0.00  0.00    +0.017 A 
ATOM      5  C   UNL     1       3.756  -0.647  -0.065  0.00  0.00    +0.013 A 
ATOM      6  C   UNL     1       2.535   0.021  -0.061  0.00  0.00    +0.035 A 
ATOM      7  C   UNL     1       2.502   1.427  -0.063  0.00  0.00    +0.054 A 
ATOM      8  C   UNL     1       3.704   2.150  -0.068  0.00  0.00    +0.050 A 
ATOM      9  C   UNL     1       1.212   2.137  -0.059  0.00  0.00    +0.196 C 
ATOM     10  O   UNL     1       1.187   3.353  -0.061  0.00  0.00    -0.287 OA
ATOM     11  C   UNL     1      -0.052   1.372  -0.053  0.00  0.00    +0.033 A 
ATOM     12  C   UNL     1      -1.275   2.036  -0.043  0.00  0.00    +0.012 A 
ATOM     13  C   UNL     1      -2.454   1.311  -0.042  0.00  0.00    +0.001 A 
ATOM     14  C   UNL     1      -2.426  -0.072  -0.041  0.00  0.00    +0.001 A 
ATOM     15  C   UNL     1      -1.220  -0.748  -0.045  0.00  0.00    +0.012 A 
ATOM     16  C   UNL     1      -0.024  -0.034  -0.051  0.00  0.00    +0.033 A 
ATOM     17  C   UNL     1       1.270  -0.747  -0.056  0.00  0.00    +0.195 C 
ATOM     18  O   UNL     1       1.295  -1.962  -0.055  0.00  0.00    -0.287 OA
BRANCH   8  19
ATOM     19  N   UNL     1       3.685   3.529  -0.070  0.00  0.00    -0.357 N 
ATOM     20  H   UNL     1       4.364   4.023  -0.554  0.00  0.00    +0.142 HD
ATOM     21  H   UNL     1       2.991   4.005   0.413  0.00  0.00    +0.142 HD
ENDBRANCH   8  19
ENDBRANCH   1   3
BRANCH   1  22
ATOM     22  O   UNL     1       7.371   1.549   0.022  0.00  0.00    -0.449 OA
BRANCH  22  24
ATOM     23  C   UNL     1       9.066   2.524  -1.430  0.00  0.00    +0.062 C 
ATOM     24  C   UNL     1       8.581   2.352   0.011  0.00  0.00    +0.259 C 
BRANCH  24  25
ATOM     25  C   UNL     1       9.649   1.661   0.821  0.00  0.00    +0.258 C 
ATOM     26  O   UNL     1       9.444   0.557   1.279  0.00  0.00    -0.271 OA
ATOM     27  N   UNL     1      10.831   2.271   1.036  0.00  0.00    -0.282 N 
ATOM     28  H   UNL     1      10.967   3.185   0.740  0.00  0.00    +0.155 HD
BRANCH  27  29
ATOM     29  C   UNL     1      11.863   1.586   1.687  0.00  0.00    +0.045 A 
ATOM     30  C   UNL     1      11.904   0.198   1.658  0.00  0.00    +0.024 A 
ATOM     31  C   UNL     1      12.927  -0.474   2.297  0.00  0.00    +0.002 A 
ATOM     32  C   UNL     1      13.904   0.233   2.975  0.00  0.00    +0.001 A 
ATOM     33  C   UNL     1      13.863   1.614   3.010  0.00  0.00    +0.014 A 
ATOM     34  C   UNL     1      12.845   2.293   2.368  0.00  0.00    +0.076 A 
BRANCH  34  35
ATOM     35  C   UNL     1      12.801   3.799   2.408  0.00  0.00    +0.419 C 
ATOM     36  F   UNL     1      13.888   4.278   3.148  0.00  0.00    -0.166 F 
ATOM     37  F   UNL     1      12.867   4.302   1.104  0.00  0.00    -0.166 F 
ATOM     38  F   UNL     1      11.608   4.215   3.009  0.00  0.00    -0.166 F 
ENDBRANCH  34  35
ENDBRANCH  27  29
ENDBRANCH  24  25
ENDBRANCH  22  24
ENDBRANCH   1  22
TORSDOF 7
