REMARK  Name = ZINC22224411
REMARK  8 active torsions:
REMARK  status: ('A' for Active; 'I' for Inactive)
REMARK    1  A    between atoms: C_1  and  C_2
REMARK    2  A    between atoms: C_7  and  C_8
REMARK    3  A    between atoms: C_8  and  C_9
REMARK    4  A    between atoms: C_8  and  C_10
REMARK    5  A    between atoms: C_11  and  C_16
REMARK    6  A    between atoms: C_16  and  N_17
REMARK    7  A    between atoms: C_20  and  C_24
REMARK    8  A    between atoms: C_20  and  C_25
REMARK                            x       y       z     vdW  Elec       q    Type
REMARK                         _______ _______ _______ _____ _____    ______ ____
ROOT
ATOM      1  N   UNL     1      -0.808   7.127   2.773  0.00  0.00    -0.220 N 
ATOM      2  C   UNL     1      -0.101   7.587   3.824  0.00  0.00    +0.251 C 
ATOM      3  O   UNL     1       0.763   6.999   4.439  0.00  0.00    -0.272 OA
ATOM      4  C   UNL     1      -0.611   8.992   4.078  0.00  0.00    +0.138 C 
ATOM      5  N   UNL     1      -1.643   9.178   3.044  0.00  0.00    -0.281 N 
ATOM      6  C   UNL     1      -1.681   8.038   2.329  0.00  0.00    +0.310 C 
ATOM      7  O   UNL     1      -2.428   7.856   1.388  0.00  0.00    -0.252 OA
ATOM      8  C   UNL     1       0.515  10.013   3.905  0.00  0.00    +0.047 C 
ATOM      9  H   UNL     1      -2.199  10.125   2.986  0.00  0.00    +0.152 HD
ENDROOT
BRANCH   4  10
ATOM     10  C   UNL     1      -1.212   9.096   5.456  0.00  0.00    +0.022 A 
ATOM     11  C   UNL     1      -2.538   9.454   5.606  0.00  0.00    +0.047 A 
ATOM     12  C   UNL     1      -3.090   9.550   6.872  0.00  0.00    +0.124 A 
ATOM     13  C   UNL     1      -2.314   9.287   7.988  0.00  0.00    +0.041 A 
ATOM     14  C   UNL     1      -0.988   8.928   7.838  0.00  0.00    +0.041 A 
ATOM     15  C   UNL     1      -0.437   8.828   6.572  0.00  0.00    +0.129 A 
ATOM     16  F   UNL     1       0.858   8.473   6.425  0.00  0.00    -0.205 F 
ATOM     17  F   UNL     1      -4.387   9.901   7.019  0.00  0.00    -0.205 F 
ENDBRANCH   4  10
BRANCH   1  18
ATOM     18  C   UNL     1      -0.637   5.796   2.185  0.00  0.00    +0.154 C 
BRANCH  18  26
ATOM     19  C   UNL     1      -1.240  -0.815   1.797  0.00  0.00    +0.044 C 
ATOM     20  C   UNL     1      -1.306   0.661   2.098  0.00  0.00    -0.044 A 
ATOM     21  C   UNL     1      -2.161   1.120   3.078  0.00  0.00    +0.050 A 
ATOM     22  C   UNL     1      -2.225   2.479   3.358  0.00  0.00    +0.140 A 
ATOM     23  C   UNL     1      -1.413   3.370   2.634  0.00  0.00    +0.023 A 
ATOM     24  C   UNL     1      -0.550   2.884   1.647  0.00  0.00    +0.016 A 
ATOM     25  C   UNL     1      -0.507   1.543   1.385  0.00  0.00    -0.041 A 
ATOM     26  C   UNL     1      -1.487   4.803   2.935  0.00  0.00    -0.012 A 
ATOM     27  C   UNL     1      -2.342   5.210   3.907  0.00  0.00    +0.098 A 
ATOM     28  C   UNL     1      -3.127   4.260   4.594  0.00  0.00    +0.338 A 
ATOM     29  O   UNL     1      -3.890   4.638   5.464  0.00  0.00    -0.245 OA
ATOM     30  O   UNL     1      -3.054   2.950   4.313  0.00  0.00    -0.422 OA
BRANCH  25  31
ATOM     31  C   UNL     1       0.419   1.019   0.318  0.00  0.00    +0.013 C 
ATOM     32  C   UNL     1       1.844   1.501   0.598  0.00  0.00    +0.012 C 
ATOM     33  C   UNL     1      -0.035   1.534  -1.049  0.00  0.00    +0.012 C 
ENDBRANCH  25  31
ENDBRANCH  18  26
ENDBRANCH   1  18
TORSDOF 4
