REMARK  Name = ZINC09492393
REMARK  9 active torsions:
REMARK  status: ('A' for Active; 'I' for Inactive)
REMARK    1  A    between atoms: C_1  and  C_2
REMARK    2  A    between atoms: C_2  and  C_28
REMARK    3  A    between atoms: N_5  and  N_9
REMARK    4  A    between atoms: C_10  and  C_12
REMARK    5  A    between atoms: C_12  and  S_13
REMARK    6  A    between atoms: S_13  and  C_14
REMARK    7  A    between atoms: C_17  and  C_22
REMARK    8  A    between atoms: N_18  and  C_19
REMARK    9  A    between atoms: C_19  and  C_20
REMARK                            x       y       z     vdW  Elec       q    Type
REMARK                         _______ _______ _______ _____ _____    ______ ____
ROOT
ATOM      1  N   UNL     1      -1.191   1.867   0.018  0.00  0.00    -0.223 N 
ATOM      2  C   UNL     1      -0.014   1.209   0.009  0.00  0.00    +0.240 C 
ATOM      3  O   UNL     1       0.002  -0.004   0.002  0.00  0.00    -0.273 OA
ATOM      4  H   UNL     1      -1.206   2.966   0.024  0.00  0.00    +0.174 HD
ENDROOT
BRANCH   1   9
ATOM      5  C   UNL     1      -5.670   0.943   0.783  0.00  0.00    +0.047 C 
ATOM      6  C   UNL     1      -4.361   0.165   0.636  0.00  0.00    +0.137 C 
ATOM      7  C   UNL     1      -3.187   1.004   1.100  0.00  0.00    +0.267 C 
ATOM      8  O   UNL     1      -3.000   1.451   2.211  0.00  0.00    -0.271 OA
ATOM      9  N   UNL     1      -2.394   1.150   0.020  0.00  0.00    -0.137 N 
ATOM     10  C   UNL     1      -2.901   0.530  -1.052  0.00  0.00    +0.327 C 
ATOM     11  O   UNL     1      -2.368   0.523  -2.144  0.00  0.00    -0.251 OA
ATOM     12  N   UNL     1      -4.066  -0.089  -0.785  0.00  0.00    -0.280 N 
ATOM     13  H   UNL     1      -4.759  -0.690  -1.392  0.00  0.00    +0.152 HD
BRANCH   6  14
ATOM     14  C   UNL     1      -4.424  -1.130   1.404  0.00  0.00    -0.015 A 
ATOM     15  C   UNL     1      -3.954  -1.186   2.703  0.00  0.00    +0.006 A 
ATOM     16  C   UNL     1      -4.015  -2.373   3.409  0.00  0.00    +0.000 A 
ATOM     17  C   UNL     1      -4.538  -3.506   2.813  0.00  0.00    +0.000 A 
ATOM     18  C   UNL     1      -5.003  -3.451   1.513  0.00  0.00    +0.000 A 
ATOM     19  C   UNL     1      -4.945  -2.263   0.808  0.00  0.00    +0.006 A 
ENDBRANCH   6  14
ENDBRANCH   1   9
BRANCH   2  20
ATOM     20  C   UNL     1       1.280   1.980   0.001  0.00  0.00    +0.174 C 
BRANCH  20  21
ATOM     21  S   UNL     1       2.672   0.823  -0.019  0.00  0.00    -0.077 S 
BRANCH  21  22
ATOM     22  C   UNL     1       4.017   1.961  -0.026  0.00  0.00    +0.192 A 
ATOM     23  N   UNL     1       3.930   3.271  -0.024  0.00  0.00    -0.122 NA
ATOM     24  N   UNL     1       5.108   3.786  -0.028  0.00  0.00    -0.133 NA
ATOM     25  C   UNL     1       6.008   2.844  -0.041  0.00  0.00    +0.137 A 
ATOM     26  N   UNL     1       5.346   1.648  -0.040  0.00  0.00    -0.302 N 
BRANCH  25  27
ATOM     27  C   UNL     1       7.503   3.037  -0.054  0.00  0.00    +0.057 C 
ATOM     28  C   UNL     1       7.928   3.812   1.194  0.00  0.00    +0.011 C 
ATOM     29  C   UNL     1       9.445   4.008   1.181  0.00  0.00    +0.001 C 
ATOM     30  C   UNL     1       9.847   4.795  -0.069  0.00  0.00    +0.000 C 
ATOM     31  C   UNL     1       9.421   4.020  -1.318  0.00  0.00    +0.001 C 
ATOM     32  C   UNL     1       7.904   3.824  -1.304  0.00  0.00    +0.011 C 
ENDBRANCH  25  27
BRANCH  26  33
ATOM     33  C   UNL     1       5.938   0.308  -0.052  0.00  0.00    +0.152 C 
BRANCH  33  34
ATOM     34  C   UNL     1       6.128  -0.144  -1.477  0.00  0.00    -0.013 C 
ATOM     35  C   UNL     1       7.311  -0.527  -1.891  0.00  0.00    +0.005 C 
ENDBRANCH  33  34
ENDBRANCH  26  33
ENDBRANCH  21  22
ENDBRANCH  20  21
ENDBRANCH   2  20
TORSDOF 8
