REMARK  Name = ZINC40018808
REMARK  19 active torsions:
REMARK  status: ('A' for Active; 'I' for Inactive)
REMARK    1  A    between atoms: C_1  and  C_2
REMARK    2  A    between atoms: C_2  and  C_3
REMARK    3  A    between atoms: C_3  and  C_4
REMARK    4  A    between atoms: C_4  and  N_5
REMARK    5  A    between atoms: N_5  and  C_6
REMARK    6  A    between atoms: N_5  and  C_10
REMARK    7  A    between atoms: C_6  and  C_7
REMARK    8  A    between atoms: C_7  and  C_8
REMARK    9  A    between atoms: C_8  and  C_9
REMARK   10  A    between atoms: C_10  and  C_11
REMARK   11  A    between atoms: C_11  and  C_12
REMARK   12  A    between atoms: C_12  and  N_13
REMARK   13  A    between atoms: C_14  and  C_28
REMARK   14  A    between atoms: C_16  and  C_21
REMARK   15  A    between atoms: C_21  and  C_23
REMARK   16  A    between atoms: C_33  and  O_34
REMARK   17  A    between atoms: O_34  and  C_35
REMARK   18  A    between atoms: C_35  and  C_36
REMARK   19  A    between atoms: C_36  and  C_37
REMARK                            x       y       z     vdW  Elec       q    Type
REMARK                         _______ _______ _______ _____ _____    ______ ____
ROOT
ATOM      1  N   UNL     1      -2.674  -4.979  -3.741  0.00  0.00    -0.283 N 
ATOM      2  C   UNL     1      -3.280  -5.312  -2.447  0.00  0.00    +0.148 C 
ATOM      3  C   UNL     1      -4.409  -6.271  -2.745  0.00  0.00    +0.077 C 
ATOM      4  C   UNL     1      -4.425  -6.450  -4.085  0.00  0.00    +0.249 C 
ATOM      5  C   UNL     1      -3.351  -5.643  -4.697  0.00  0.00    +0.288 C 
ATOM      6  O   UNL     1      -3.111  -5.588  -5.887  0.00  0.00    -0.266 OA
ATOM      7  O   UNL     1      -5.292  -7.242  -4.760  0.00  0.00    -0.282 OA
ENDROOT
BRANCH   2   8
ATOM      8  C   UNL     1      -3.816  -4.066  -1.789  0.00  0.00    +0.019 A 
ATOM      9  C   UNL     1      -5.154  -3.742  -1.909  0.00  0.00    +0.009 A 
ATOM     10  C   UNL     1      -5.646  -2.599  -1.307  0.00  0.00    +0.001 A 
ATOM     11  C   UNL     1      -4.801  -1.778  -0.583  0.00  0.00    +0.004 A 
ATOM     12  C   UNL     1      -3.463  -2.098  -0.460  0.00  0.00    +0.046 A 
ATOM     13  C   UNL     1      -2.968  -3.247  -1.059  0.00  0.00    +0.126 A 
BRANCH  13  14
ATOM     14  O   UNL     1      -1.653  -3.567  -0.935  0.00  0.00    -0.492 OA
BRANCH  14  15
ATOM     15  C   UNL     1      -0.859  -2.732  -0.090  0.00  0.00    +0.229 C 
BRANCH  15  16
ATOM     16  C   UNL     1       0.599  -3.192  -0.142  0.00  0.00    +0.038 C 
ATOM     17  C   UNL     1       1.469  -2.224   0.663  0.00  0.00    +0.007 C 
ENDBRANCH  15  16
ENDBRANCH  14  15
ENDBRANCH  13  14
ENDBRANCH   2   8
BRANCH   3  18
ATOM     18  C   UNL     1      -5.314  -6.889  -1.768  0.00  0.00    +0.202 C 
ATOM     19  O   UNL     1      -6.258  -7.558  -2.150  0.00  0.00    -0.286 OA
BRANCH  18  20
ATOM     20  C   UNL     1      -5.082  -6.700  -0.334  0.00  0.00    +0.059 A 
ATOM     21  C   UNL     1      -5.875  -7.088   0.740  0.00  0.00    +0.019 A 
ATOM     22  C   UNL     1      -5.390  -6.769   1.984  0.00  0.00    +0.008 A 
ATOM     23  C   UNL     1      -4.204  -6.117   2.083  0.00  0.00    +0.046 A 
ATOM     24  S   UNL     1      -3.706  -5.922   0.490  0.00  0.00    -0.093 S 
ENDBRANCH  18  20
ENDBRANCH   3  18
BRANCH   1  25
ATOM     25  C   UNL     1      -1.539  -4.079  -3.956  0.00  0.00    +0.107 C 
BRANCH  25  26
ATOM     26  C   UNL     1      -2.055  -2.685  -4.322  0.00  0.00    +0.000 C 
BRANCH  26  27
ATOM     27  C   UNL     1      -0.872  -1.776  -4.660  0.00  0.00    -0.077 C 
BRANCH  27  28
ATOM     28  N   UNL     1      -1.367  -0.438  -5.011  0.00  0.00    +0.380 N 
ATOM     29  H   UNL     1      -2.043  -0.515  -5.757  0.00  0.00    -0.082 HD
BRANCH  28  30
ATOM     30  C   UNL     1      -0.244   0.400  -5.451  0.00  0.00    -0.079 C 
BRANCH  30  31
ATOM     31  C   UNL     1       0.336  -0.165  -6.749  0.00  0.00    -0.019 C 
BRANCH  31  32
ATOM     32  C   UNL     1       1.413   0.782  -7.282  0.00  0.00    -0.005 C 
ATOM     33  C   UNL     1       1.994   0.217  -8.579  0.00  0.00    +0.004 C 
ENDBRANCH  31  32
ENDBRANCH  30  31
ENDBRANCH  28  30
BRANCH  28  34
ATOM     34  C   UNL     1      -2.003   0.172  -3.836  0.00  0.00    -0.079 C 
BRANCH  34  35
ATOM     35  C   UNL     1      -2.628   1.512  -4.232  0.00  0.00    -0.019 C 
BRANCH  35  37
ATOM     36  C   UNL     1      -4.032   3.421  -3.442  0.00  0.00    +0.004 C 
ATOM     37  C   UNL     1      -3.408   2.082  -3.046  0.00  0.00    -0.005 C 
ENDBRANCH  35  37
ENDBRANCH  34  35
ENDBRANCH  28  34
ENDBRANCH  27  28
ENDBRANCH  26  27
ENDBRANCH  25  26
ENDBRANCH   1  25
TORSDOF 16
