REMARK  Name = ZINC13858073
REMARK  7 active torsions:
REMARK  status: ('A' for Active; 'I' for Inactive)
REMARK    1  A    between atoms: C_5  and  C_7
REMARK    2  A    between atoms: C_7  and  N_8
REMARK    3  A    between atoms: C_15  and  C_18
REMARK    4  A    between atoms: C_15  and  O_30
REMARK    5  A    between atoms: C_18  and  C_19
REMARK    6  A    between atoms: C_19  and  C_21
REMARK    7  A    between atoms: C_25  and  N_27
REMARK                            x       y       z     vdW  Elec       q    Type
REMARK                         _______ _______ _______ _____ _____    ______ ____
ROOT
ATOM      1  N   UNL     1      -5.986   4.788   2.014  0.00  0.00    -0.264 N 
ATOM      2  C   UNL     1      -6.791   3.800   1.444  0.00  0.00    +0.043 A 
ATOM      3  C   UNL     1      -7.994   3.245   1.874  0.00  0.00    +0.025 A 
ATOM      4  C   UNL     1      -8.611   2.263   1.127  0.00  0.00    +0.017 A 
ATOM      5  C   UNL     1      -8.041   1.823  -0.055  0.00  0.00    +0.018 A 
ATOM      6  C   UNL     1      -6.846   2.370  -0.489  0.00  0.00    +0.024 A 
ATOM      7  C   UNL     1      -6.229   3.350   0.252  0.00  0.00    +0.016 A 
ATOM      8  C   UNL     1      -4.950   4.133   0.066  0.00  0.00    +0.175 C 
ATOM      9  C   UNL     1      -4.893   5.043   1.275  0.00  0.00    +0.257 C 
ATOM     10  O   UNL     1      -4.024   5.850   1.528  0.00  0.00    -0.272 OA
ATOM     11 BR   UNL     1      -8.894   0.477  -1.074  0.00  0.00    -0.050 Br
ENDROOT
BRANCH   8  12
ATOM     12  O   UNL     1      -5.004   4.902  -1.137  0.00  0.00    -0.374 OA
ATOM     13  H   UNL     1      -4.221   5.447  -1.291  0.00  0.00    +0.211 HD
ENDBRANCH   8  12
BRANCH   1  14
ATOM     14  C   UNL     1      -6.298   5.469   3.272  0.00  0.00    +0.150 C 
BRANCH  14  19
ATOM     15  C   UNL     1      -6.288   3.006   6.133  0.00  0.00    +0.000 A 
ATOM     16  C   UNL     1      -4.973   3.076   6.554  0.00  0.00    +0.001 A 
ATOM     17  C   UNL     1      -4.087   3.921   5.914  0.00  0.00    +0.020 A 
ATOM     18  C   UNL     1      -4.515   4.696   4.851  0.00  0.00    +0.046 A 
ATOM     19  C   UNL     1      -5.831   4.625   4.430  0.00  0.00    -0.011 A 
ATOM     20  C   UNL     1      -6.718   3.784   5.075  0.00  0.00    +0.006 A 
ATOM     21 CL   UNL     1      -3.402   5.758   4.046  0.00  0.00    -0.083 Cl
ENDBRANCH  14  19
ENDBRANCH   1  14
BRANCH   8  22
ATOM     22  C   UNL     1      -3.744   3.192   0.046  0.00  0.00    +0.129 C 
BRANCH  22  23
ATOM     23  C   UNL     1      -2.474   4.004   0.030  0.00  0.00    +0.167 C 
ATOM     24  O   UNL     1      -2.529   5.215   0.035  0.00  0.00    -0.292 OA
BRANCH  23  25
ATOM     25  C   UNL     1      -1.168   3.326   0.009  0.00  0.00    +0.020 A 
ATOM     26  C   UNL     1      -1.101   1.929  -0.003  0.00  0.00    +0.011 A 
ATOM     27  C   UNL     1       0.127   1.302  -0.017  0.00  0.00    +0.003 A 
ATOM     28  C   UNL     1       1.291   2.051  -0.031  0.00  0.00    +0.033 A 
ATOM     29  C   UNL     1       1.233   3.434  -0.025  0.00  0.00    +0.127 A 
ATOM     30  C   UNL     1       0.012   4.076  -0.005  0.00  0.00    +0.044 A 
BRANCH  29  31
ATOM     31  N   UNL     1       2.483   4.225  -0.041  0.00  0.00    +0.056 N 
ATOM     32  O   UNL     1       3.562   3.659  -0.059  0.00  0.00    -0.126 OA
ATOM     33  O   UNL     1       2.434   5.442  -0.036  0.00  0.00    -0.126 OA
ENDBRANCH  29  31
ENDBRANCH  23  25
ENDBRANCH  22  23
ENDBRANCH   8  22
TORSDOF 7
