REMARK  Name = ZINC03116655
REMARK  11 active torsions:
REMARK  status: ('A' for Active; 'I' for Inactive)
REMARK    1  A    between atoms: C_1  and  C_2
REMARK    2  A    between atoms: C_2  and  O_3
REMARK    3  A    between atoms: O_3  and  C_4
REMARK    4  A    between atoms: C_4  and  C_6
REMARK    5  A    between atoms: C_6  and  C_29
REMARK    6  A    between atoms: C_7  and  C_8
REMARK    7  A    between atoms: C_8  and  C_27
REMARK    8  A    between atoms: C_9  and  N_10
REMARK    9  A    between atoms: C_9  and  N_11
REMARK   10  A    between atoms: N_14  and  C_17
REMARK   11  A    between atoms: C_20  and  C_22
REMARK                            x       y       z     vdW  Elec       q    Type
REMARK                         _______ _______ _______ _____ _____    ______ ____
ROOT
ATOM      1  N   UNL     1       0.561  -4.681  -0.846  0.00  0.00    -0.315 N 
ATOM      2  C   UNL     1      -0.201  -4.085   0.262  0.00  0.00    +0.125 C 
ATOM      3  C   UNL     1      -0.209  -2.563   0.084  0.00  0.00    +0.125 C 
ATOM      4  N   UNL     1       1.172  -2.082  -0.050  0.00  0.00    -0.313 N 
ATOM      5  C   UNL     1       1.813  -2.630  -1.253  0.00  0.00    +0.125 C 
ATOM      6  C   UNL     1       1.904  -4.155  -1.129  0.00  0.00    +0.125 C 
ENDROOT
BRANCH   4   7
ATOM      7  C   UNL     1       1.218  -0.692  -0.051  0.00  0.00    +0.118 A 
ATOM      8  C   UNL     1       1.857  -0.022   0.989  0.00  0.00    +0.079 A 
ATOM      9  C   UNL     1       1.894   1.362   0.975  0.00  0.00    +0.037 A 
ATOM     10  C   UNL     1       1.290   2.030  -0.082  0.00  0.00    +0.072 A 
ATOM     11  C   UNL     1       0.675   1.302  -1.079  0.00  0.00    +0.096 A 
ATOM     12 CL   UNL     1       2.595  -0.909   2.286  0.00  0.00    -0.080 Cl
ATOM     13  N   UNL     1       0.618  -0.057  -1.099  0.00  0.00    -0.348 N 
ATOM     14  H   UNL     1       0.152  -0.573  -1.855  0.00  0.00    +0.167 HD
BRANCH  10  15
ATOM     15  C   UNL     1       1.307   3.536  -0.139  0.00  0.00    +0.419 C 
ATOM     16  F   UNL     1       0.639   3.966  -1.291  0.00  0.00    -0.166 F 
ATOM     17  F   UNL     1       0.666   4.053   0.992  0.00  0.00    -0.166 F 
ATOM     18  F   UNL     1       2.631   3.987  -0.172  0.00  0.00    -0.166 F 
ENDBRANCH  10  15
ENDBRANCH   4   7
BRANCH   1  20
ATOM     19  C   UNL     1       0.157  -7.024  -1.150  0.00  0.00    +0.088 C 
ATOM     20  C   UNL     1       0.036  -5.694  -1.589  0.00  0.00    +0.102 C 
BRANCH  20  21
ATOM     21  N   UNL     1      -0.606  -5.418  -2.757  0.00  0.00    -0.345 N 
ATOM     22  H   UNL     1      -0.753  -4.497  -3.024  0.00  0.00    +0.144 HD
ATOM     23  H   UNL     1      -0.916  -6.142  -3.323  0.00  0.00    +0.144 HD
ENDBRANCH  20  21
BRANCH  19  25
ATOM     24  C   UNL     1       0.954  -8.618   0.486  0.00  0.00    +0.137 C 
ATOM     25  C   UNL     1       0.724  -7.300   0.102  0.00  0.00    +0.048 C 
BRANCH  24  26
ATOM     26  C   UNL     1       1.546  -8.907   1.792  0.00  0.00    +0.350 C 
ATOM     27  O   UNL     1       1.838  -7.995   2.543  0.00  0.00    -0.244 OA
BRANCH  26  28
ATOM     28  O   UNL     1       1.769 -10.184   2.165  0.00  0.00    -0.461 OA
BRANCH  28  30
ATOM     29  C   UNL     1       2.525 -11.892   3.698  0.00  0.00    +0.048 C 
ATOM     30  C   UNL     1       2.349 -10.392   3.454  0.00  0.00    +0.229 C 
ENDBRANCH  28  30
ENDBRANCH  26  28
ENDBRANCH  24  26
BRANCH  24  31
ATOM     31  C   UNL     1       0.611  -9.692  -0.397  0.00  0.00    +0.106 C 
ATOM     32  N   UNL     1       0.338 -10.543  -1.098  0.00  0.00    -0.191 NA
ENDBRANCH  24  31
ENDBRANCH  19  25
BRANCH  19  33
ATOM     33  C   UNL     1      -0.300  -8.096  -1.982  0.00  0.00    +0.102 C 
ATOM     34  N   UNL     1      -0.662  -8.947  -2.642  0.00  0.00    -0.191 NA
ENDBRANCH  19  33
ENDBRANCH   1  20
TORSDOF 10
