REMARK  Name = ZINC08254221
REMARK  7 active torsions:
REMARK  status: ('A' for Active; 'I' for Inactive)
REMARK    1  A    between atoms: C_3  and  C_7
REMARK    2  A    between atoms: C_7  and  N_8
REMARK    3  A    between atoms: C_9  and  C_11
REMARK    4  A    between atoms: C_19  and  C_21
REMARK    5  A    between atoms: C_21  and  N_22
REMARK    6  A    between atoms: C_24  and  C_27
REMARK    7  A    between atoms: C_27  and  C_28
REMARK                            x       y       z     vdW  Elec       q    Type
REMARK                         _______ _______ _______ _____ _____    ______ ____
ROOT
ATOM      1  C   UNL     1       2.462   0.920  -0.017  0.00  0.00    +0.061 C 
ATOM      2  C   UNL     1       2.546   0.046  -1.272  0.00  0.00    -0.065 C 
ATOM      3  C   UNL     1       3.553   1.855  -2.530  0.00  0.00    -0.078 C 
ATOM      4  C   UNL     1       3.498   2.780  -1.310  0.00  0.00    -0.015 C 
ATOM      5  C   UNL     1       3.616   1.930  -0.039  0.00  0.00    -0.004 C 
ATOM      6  C   UNL     1       4.941   1.159  -0.087  0.00  0.00    -0.010 C 
ATOM      7  C   UNL     1       4.956   0.280  -1.340  0.00  0.00    -0.046 C 
ATOM      8  N   UNL     1       3.701   0.447  -2.103  0.00  0.00    +0.383 N 
ATOM      9  H   UNL     1       3.735  -0.152  -2.937  0.00  0.00    -0.081 HD
ENDROOT
BRANCH   1  11
ATOM     10  N   UNL     1      -0.011   0.966   0.007  0.00  0.00    -0.311 N 
ATOM     11  C   UNL     1       1.147   1.655   0.000  0.00  0.00    +0.215 C 
ATOM     12  O   UNL     1       1.130   2.868   0.007  0.00  0.00    -0.276 OA
ATOM     13  H   UNL     1       0.002  -0.004   0.002  0.00  0.00    +0.149 HD
BRANCH  10  14
ATOM     14  C   UNL     1      -1.290   1.681   0.017  0.00  0.00    +0.141 C 
BRANCH  14  17
ATOM     15  C   UNL     1      -3.995  -0.686  -1.130  0.00  0.00    +0.020 A 
ATOM     16  C   UNL     1      -2.958   0.234  -1.178  0.00  0.00    +0.008 A 
ATOM     17  C   UNL     1      -2.422   0.686   0.017  0.00  0.00    -0.012 A 
ATOM     18  C   UNL     1      -2.942   0.218   1.209  0.00  0.00    +0.115 A 
ATOM     19  N   UNL     1      -3.932  -0.652   1.217  0.00  0.00    -0.263 NA
ATOM     20  C   UNL     1      -4.464  -1.109   0.100  0.00  0.00    +0.111 A 
ENDBRANCH  14  17
ENDBRANCH  10  14
ENDBRANCH   1  11
BRANCH   7  21
ATOM     21  C   UNL     1       6.135   0.679  -2.230  0.00  0.00    +0.130 C 
BRANCH  21  22
ATOM     22  N   UNL     1       6.219  -0.237  -3.370  0.00  0.00    -0.253 N 
ATOM     23  C   UNL     1       6.220   0.120  -4.675  0.00  0.00    +0.133 A 
ATOM     24  C   UNL     1       6.313  -1.031  -5.381  0.00  0.00    +0.083 A 
ATOM     25  N   UNL     1       6.356  -2.023  -4.485  0.00  0.00    -0.135 NA
ATOM     26  N   UNL     1       6.298  -1.520  -3.303  0.00  0.00    -0.066 NA
BRANCH  24  27
ATOM     27  C   UNL     1       6.355  -1.168  -6.881  0.00  0.00    +0.062 C 
BRANCH  27  28
ATOM     28  C   UNL     1       7.599  -1.962  -7.286  0.00  0.00    -0.005 C 
ATOM     29  C   UNL     1       8.853  -1.168  -6.917  0.00  0.00    +0.004 C 
ATOM     30  C   UNL     1      10.097  -1.962  -7.322  0.00  0.00    +0.000 C 
ATOM     31  C   UNL     1      10.075  -2.208  -8.832  0.00  0.00    +0.000 C 
ATOM     32  C   UNL     1       8.820  -3.002  -9.201  0.00  0.00    +0.000 C 
ATOM     33  C   UNL     1       7.577  -2.209  -8.796  0.00  0.00    +0.004 C 
ENDBRANCH  27  28
ENDBRANCH  24  27
ENDBRANCH  21  22
ENDBRANCH   7  21
TORSDOF 7
