REMARK  Name = ZINC00713650
REMARK  6 active torsions:
REMARK  status: ('A' for Active; 'I' for Inactive)
REMARK    1  A    between atoms: C_1  and  C_2
REMARK    2  A    between atoms: C_2  and  S_3
REMARK    3  A    between atoms: S_3  and  C_4
REMARK    4  A    between atoms: C_17  and  C_20
REMARK    5  A    between atoms: C_23  and  C_25
REMARK    6  A    between atoms: C_28  and  N_31
REMARK                            x       y       z     vdW  Elec       q    Type
REMARK                         _______ _______ _______ _____ _____    ______ ____
ROOT
ATOM      1  C   UNL     1       5.996   3.417  -0.008  0.00  0.00    +0.212 A 
ATOM      2  N   UNL     1       5.828   2.437  -0.891  0.00  0.00    -0.184 NA
ATOM      3  C   UNL     1       4.679   1.784  -0.921  0.00  0.00    +0.248 A 
ATOM      4  C   UNL     1       3.667   2.147  -0.005  0.00  0.00    +0.156 A 
ATOM      5  N   UNL     1       3.897   3.135   0.847  0.00  0.00    -0.141 NA
ATOM      6  N   UNL     1       5.030   3.748   0.840  0.00  0.00    -0.122 NA
ATOM      7  C   UNL     1       2.380   1.422  -0.014  0.00  0.00    +0.028 A 
ATOM      8  C   UNL     1       1.165   2.095   0.002  0.00  0.00    +0.012 A 
ATOM      9  C   UNL     1      -0.017   1.380   0.010  0.00  0.00    +0.001 A 
ATOM     10  C   UNL     1       0.002  -0.004   0.002  0.00  0.00    +0.002 A 
ATOM     11  C   UNL     1       1.204  -0.688  -0.019  0.00  0.00    +0.024 A 
ATOM     12  C   UNL     1       2.395   0.014  -0.032  0.00  0.00    +0.040 A 
ATOM     13  N   UNL     1       3.628  -0.643  -0.086  0.00  0.00    -0.303 N 
ATOM     14  C   UNL     1       4.425  -0.545  -1.305  0.00  0.00    +0.329 C 
ATOM     15  O   UNL     1       4.458   0.785  -1.809  0.00  0.00    -0.445 OA
ATOM     16  H   UNL     1       3.948  -1.156   0.673  0.00  0.00    +0.150 HD
ENDROOT
BRANCH  14  17
ATOM     17  C   UNL     1       3.834  -1.453  -2.352  0.00  0.00    +0.165 A 
ATOM     18  C   UNL     1       4.526  -2.106  -3.307  0.00  0.00    +0.051 A 
ATOM     19  C   UNL     1       3.591  -2.837  -4.067  0.00  0.00    +0.050 A 
ATOM     20  C   UNL     1       2.368  -2.587  -3.529  0.00  0.00    +0.135 A 
ATOM     21  O   UNL     1       2.531  -1.750  -2.486  0.00  0.00    -0.454 OA
BRANCH  20  22
ATOM     22  C   UNL     1       1.083  -3.143  -4.001  0.00  0.00    +0.017 A 
ATOM     23  C   UNL     1       1.053  -4.005  -5.099  0.00  0.00    +0.014 A 
ATOM     24  C   UNL     1      -0.149  -4.524  -5.532  0.00  0.00    +0.033 A 
ATOM     25  C   UNL     1      -1.325  -4.184  -4.887  0.00  0.00    +0.126 A 
ATOM     26  C   UNL     1      -1.304  -3.326  -3.802  0.00  0.00    +0.033 A 
ATOM     27  C   UNL     1      -0.107  -2.804  -3.356  0.00  0.00    +0.014 A 
BRANCH  25  28
ATOM     28  N   UNL     1      -2.613  -4.741  -5.361  0.00  0.00    +0.056 N 
ATOM     29  O   UNL     1      -3.650  -4.443  -4.796  0.00  0.00    -0.126 OA
ATOM     30  O   UNL     1      -2.635  -5.496  -6.316  0.00  0.00    -0.126 OA
ENDBRANCH  25  28
ENDBRANCH  20  22
ENDBRANCH  14  17
BRANCH   1  31
ATOM     31  S   UNL     1       7.525   4.291   0.037  0.00  0.00    -0.085 S 
BRANCH  31  33
ATOM     32  C   UNL     1       8.405   6.348   1.606  0.00  0.00    +0.016 C 
ATOM     33  C   UNL     1       7.182   5.456   1.379  0.00  0.00    +0.074 C 
ENDBRANCH  31  33
ENDBRANCH   1  31
TORSDOF 5
