REMARK  Name = ZINC35756310
REMARK  8 active torsions:
REMARK  status: ('A' for Active; 'I' for Inactive)
REMARK    1  A    between atoms: C_4  and  C_7
REMARK    2  A    between atoms: C_7  and  N_8
REMARK    3  A    between atoms: C_9  and  C_32
REMARK    4  A    between atoms: C_11  and  C_16
REMARK    5  A    between atoms: C_19  and  N_22
REMARK    6  A    between atoms: C_23  and  C_25
REMARK    7  A    between atoms: N_34  and  C_35
REMARK    8  A    between atoms: C_35  and  C_36
REMARK                            x       y       z     vdW  Elec       q    Type
REMARK                         _______ _______ _______ _____ _____    ______ ____
ROOT
ATOM      1  N   UNL     1       4.075  -1.229   1.205  0.00  0.00    -0.248 N 
ATOM      2  C   UNL     1       4.899  -0.407   2.113  0.00  0.00    +0.210 C 
ATOM      3  C   UNL     1       4.497  -0.953   3.504  0.00  0.00    +0.238 C 
ATOM      4  O   UNL     1       4.037  -2.280   3.183  0.00  0.00    -0.440 OA
ATOM      5  C   UNL     1       3.600  -2.271   1.912  0.00  0.00    +0.405 C 
ATOM      6  O   UNL     1       2.859  -3.115   1.450  0.00  0.00    -0.226 OA
ENDROOT
BRANCH   3   7
ATOM      7  C   UNL     1       5.688  -1.003   4.426  0.00  0.00    -0.005 A 
ATOM      8  C   UNL     1       6.591  -2.046   4.330  0.00  0.00    +0.009 A 
ATOM      9  C   UNL     1       7.683  -2.095   5.175  0.00  0.00    +0.024 A 
ATOM     10  C   UNL     1       7.873  -1.096   6.121  0.00  0.00    +0.034 A 
ATOM     11  C   UNL     1       6.964  -0.051   6.215  0.00  0.00    +0.024 A 
ATOM     12  C   UNL     1       5.877  -0.004   5.364  0.00  0.00    +0.009 A 
BRANCH  10  13
ATOM     13  N   UNL     1       8.977  -1.144   6.978  0.00  0.00    -0.281 N 
ATOM     14  C   UNL     1      10.144  -1.661   6.545  0.00  0.00    +0.251 C 
ATOM     15  O   UNL     1      10.265  -2.001   5.384  0.00  0.00    -0.270 OA
ATOM     16  H   UNL     1       8.903  -0.804   7.883  0.00  0.00    +0.155 HD
BRANCH  14  17
ATOM     17  C   UNL     1      11.275  -1.816   7.482  0.00  0.00    +0.072 A 
ATOM     18  C   UNL     1      11.138  -1.432   8.818  0.00  0.00    +0.016 A 
ATOM     19  C   UNL     1      12.198  -1.579   9.687  0.00  0.00    +0.001 A 
ATOM     20  C   UNL     1      13.398  -2.106   9.240  0.00  0.00    +0.003 A 
ATOM     21  C   UNL     1      13.544  -2.488   7.920  0.00  0.00    +0.039 A 
ATOM     22  C   UNL     1      12.488  -2.352   7.037  0.00  0.00    +0.135 A 
ATOM     23  F   UNL     1      12.628  -2.732   5.748  0.00  0.00    -0.205 F 
ENDBRANCH  14  17
ENDBRANCH  10  13
ENDBRANCH   3   7
BRANCH   2  24
ATOM     24  C   UNL     1       4.547   1.053   1.982  0.00  0.00    +0.238 C 
ATOM     25  O   UNL     1       3.433   1.379   1.631  0.00  0.00    -0.274 OA
ATOM     26  N   UNL     1       5.471   1.996   2.257  0.00  0.00    -0.307 N 
ATOM     27  H   UNL     1       6.362   1.735   2.538  0.00  0.00    +0.149 HD
BRANCH  26  28
ATOM     28  C   UNL     1       5.129   3.415   2.130  0.00  0.00    +0.178 C 
BRANCH  28  29
ATOM     29  C   UNL     1       6.327   4.254   2.491  0.00  0.00    +0.122 A 
ATOM     30  C   UNL     1       7.274   4.682   1.637  0.00  0.00    +0.046 A 
ATOM     31  C   UNL     1       8.201   5.432   2.396  0.00  0.00    +0.041 A 
ATOM     32  C   UNL     1       7.766   5.417   3.669  0.00  0.00    +0.195 A 
ATOM     33  O   UNL     1       6.627   4.707   3.720  0.00  0.00    -0.466 OA
ENDBRANCH  28  29
ENDBRANCH  26  28
ENDBRANCH   2  24
BRANCH   1  34
ATOM     34  C   UNL     1       3.816  -0.956  -0.211  0.00  0.00    +0.147 C 
BRANCH  34  38
ATOM     35  C   UNL     1       6.646  -3.073  -2.612  0.00  0.00    +0.000 A 
ATOM     36  C   UNL     1       5.482  -3.697  -2.203  0.00  0.00    +0.000 A 
ATOM     37  C   UNL     1       4.567  -3.013  -1.425  0.00  0.00    +0.005 A 
ATOM     38  C   UNL     1       4.815  -1.703  -1.058  0.00  0.00    -0.030 A 
ATOM     39  C   UNL     1       5.979  -1.079  -1.466  0.00  0.00    +0.005 A 
ATOM     40  C   UNL     1       6.893  -1.764  -2.244  0.00  0.00    +0.000 A 
ENDBRANCH  34  38
ENDBRANCH   1  34
TORSDOF 8
