REMARK  Name = ZINC39532107
REMARK  10 active torsions:
REMARK  status: ('A' for Active; 'I' for Inactive)
REMARK    1  A    between atoms: C_1  and  C_2
REMARK    2  A    between atoms: C_2  and  C_3
REMARK    3  A    between atoms: C_6  and  C_9
REMARK    4  A    between atoms: C_9  and  C_11
REMARK    5  A    between atoms: C_9  and  N_15
REMARK    6  A    between atoms: C_11  and  N_12
REMARK    7  A    between atoms: N_12  and  S_13
REMARK    8  A    between atoms: S_13  and  C_14
REMARK    9  A    between atoms: C_19  and  C_22
REMARK   10  A    between atoms: C_27  and  O_28
REMARK                            x       y       z     vdW  Elec       q    Type
REMARK                         _______ _______ _______ _____ _____    ______ ____
ROOT
ATOM      1  N   UNL     1      -6.270  -1.433  -0.692  0.00  0.00    -0.297 NA
ATOM      2  C   UNL     1      -7.468  -0.925  -0.008  0.00  0.00    +0.066 C 
ATOM      3  C   UNL     1      -8.132   0.146  -0.876  0.00  0.00    -0.066 C 
ATOM      4  N   UNL     1      -8.497  -0.434  -2.176  0.00  0.00    +0.385 N 
ATOM      5  C   UNL     1      -7.288  -0.915  -2.857  0.00  0.00    -0.023 C 
ATOM      6  C   UNL     1      -6.617  -1.994  -2.005  0.00  0.00    +0.074 C 
ATOM      7  H   UNL     1      -9.131  -1.206  -2.033  0.00  0.00    -0.085 HD
ATOM      8  H   UNL     1      -8.946   0.269  -2.743  0.00  0.00    -0.085 HD
ENDROOT
BRANCH   5   9
ATOM      9  C   UNL     1      -7.662  -1.493  -4.197  0.00  0.00    -0.019 A 
ATOM     10  C   UNL     1      -8.937  -1.983  -4.407  0.00  0.00    +0.005 A 
ATOM     11  C   UNL     1      -9.281  -2.514  -5.636  0.00  0.00    +0.000 A 
ATOM     12  C   UNL     1      -8.351  -2.556  -6.659  0.00  0.00    +0.004 A 
ATOM     13  C   UNL     1      -7.075  -2.067  -6.454  0.00  0.00    +0.045 A 
ATOM     14  C   UNL     1      -6.729  -1.529  -5.223  0.00  0.00    +0.118 A 
BRANCH  14  15
ATOM     15  O   UNL     1      -5.476  -1.042  -5.021  0.00  0.00    -0.507 OA
ATOM     16  H   UNL     1      -4.829  -1.715  -4.769  0.00  0.00    +0.292 HD
ENDBRANCH  14  15
ENDBRANCH   5   9
BRANCH   1  17
ATOM     17  C   UNL     1      -5.572  -2.425   0.137  0.00  0.00    +0.101 C 
BRANCH  17  21
ATOM     18  C   UNL     1      -1.363  -2.131  -0.533  0.00  0.00    -0.048 A 
ATOM     19  C   UNL     1      -1.840  -2.514   0.706  0.00  0.00    +0.004 A 
ATOM     20  C   UNL     1      -3.202  -2.609   0.923  0.00  0.00    +0.005 A 
ATOM     21  C   UNL     1      -4.087  -2.320  -0.099  0.00  0.00    -0.029 A 
ATOM     22  C   UNL     1      -3.609  -1.936  -1.338  0.00  0.00    +0.005 A 
ATOM     23  C   UNL     1      -2.248  -1.837  -1.554  0.00  0.00    +0.004 A 
BRANCH  18  25
ATOM     24  C   UNL     1       0.596  -0.614  -0.427  0.00  0.00    +0.009 C 
ATOM     25  C   UNL     1       0.122  -2.028  -0.769  0.00  0.00    +0.032 C 
ENDBRANCH  18  25
ENDBRANCH  17  21
BRANCH  17  26
ATOM     26  C   UNL     1      -6.050  -3.829  -0.236  0.00  0.00    +0.117 C 
BRANCH  26  27
ATOM     27  N   UNL     1      -7.513  -3.893  -0.126  0.00  0.00    -0.262 NA
ATOM     28  H   UNL     1      -7.807  -3.819   0.837  0.00  0.00    +0.135 HD
BRANCH  27  29
ATOM     29  S   UNL     1      -8.139  -5.368  -0.866  0.00  0.00    -0.084 S 
ATOM     30  C   UNL     1      -9.941  -5.180  -0.764  0.00  0.00    +0.102 C 
ENDBRANCH  27  29
ENDBRANCH  26  27
ENDBRANCH  17  26
ENDBRANCH   1  17
TORSDOF 8
