REMARK  Name = ZINC56157787
REMARK  8 active torsions:
REMARK  status: ('A' for Active; 'I' for Inactive)
REMARK    1  A    between atoms: C_1  and  C_2
REMARK    2  A    between atoms: C_2  and  C_4
REMARK    3  A    between atoms: C_2  and  N_17
REMARK    4  A    between atoms: N_6  and  C_7
REMARK    5  A    between atoms: C_10  and  O_13
REMARK    6  A    between atoms: O_13  and  C_14
REMARK    7  A    between atoms: N_17  and  C_18
REMARK    8  A    between atoms: C_22  and  N_24
REMARK                            x       y       z     vdW  Elec       q    Type
REMARK                         _______ _______ _______ _____ _____    ______ ____
ROOT
ATOM      1  C   UNL     1       0.541   1.273  -0.259  0.00  0.00    +0.038 C 
ATOM      2  C   UNL     1       0.559  -0.256  -0.202  0.00  0.00    +0.154 C 
ENDROOT
BRANCH   2   3
ATOM      3  C   UNL     1       1.335  -0.793  -1.377  0.00  0.00    +0.237 C 
ATOM      4  O   UNL     1       2.323  -1.472  -1.193  0.00  0.00    -0.273 OA
ATOM      5  N   UNL     1       0.930  -0.520  -2.633  0.00  0.00    -0.284 N 
ATOM      6  H   UNL     1       0.104  -0.032  -2.781  0.00  0.00    +0.155 HD
BRANCH   5   7
ATOM      7  C   UNL     1       1.701  -0.940  -3.725  0.00  0.00    +0.034 A 
ATOM      8  C   UNL     1       1.784  -0.148  -4.862  0.00  0.00    +0.027 A 
ATOM      9  C   UNL     1       2.544  -0.562  -5.938  0.00  0.00    +0.047 A 
ATOM     10  C   UNL     1       3.225  -1.769  -5.882  0.00  0.00    +0.127 A 
ATOM     11  C   UNL     1       3.143  -2.561  -4.746  0.00  0.00    +0.047 A 
ATOM     12  C   UNL     1       2.387  -2.145  -3.668  0.00  0.00    +0.027 A 
BRANCH  10  13
ATOM     13  O   UNL     1       3.974  -2.177  -6.942  0.00  0.00    -0.434 OA
BRANCH  13  14
ATOM     14  C   UNL     1       4.648  -3.430  -6.816  0.00  0.00    +0.541 C 
ATOM     15  F   UNL     1       5.529  -3.379  -5.731  0.00  0.00    -0.166 F 
ATOM     16  F   UNL     1       3.709  -4.446  -6.606  0.00  0.00    -0.166 F 
ENDBRANCH  13  14
ENDBRANCH  10  13
ENDBRANCH   5   7
ENDBRANCH   2   3
BRANCH   2  17
ATOM     17  N   UNL     1       1.198  -0.690   1.044  0.00  0.00    -0.333 N 
ATOM     18  H   UNL     1       2.143  -0.909   1.054  0.00  0.00    +0.147 HD
BRANCH  17  19
ATOM     19  C   UNL     1       0.445  -0.789   2.216  0.00  0.00    +0.029 A 
ATOM     20  C   UNL     1      -0.910  -0.481   2.201  0.00  0.00    +0.023 A 
ATOM     21  C   UNL     1      -1.655  -0.579   3.361  0.00  0.00    +0.004 A 
ATOM     22  C   UNL     1      -1.055  -0.982   4.539  0.00  0.00    +0.024 A 
ATOM     23  C   UNL     1       0.299  -1.291   4.560  0.00  0.00    +0.040 A 
ATOM     24  C   UNL     1       1.049  -1.200   3.396  0.00  0.00    +0.046 A 
BRANCH  23  25
ATOM     25  N   UNL     1       0.905  -1.699   5.754  0.00  0.00    -0.254 N 
ATOM     26  C   UNL     1       0.205  -1.958   7.020  0.00  0.00    +0.134 C 
ATOM     27  C   UNL     1       1.331  -2.371   7.988  0.00  0.00    +0.125 C 
ATOM     28  N   UNL     1       2.547  -2.300   7.163  0.00  0.00    -0.297 N 
ATOM     29  C   UNL     1       2.216  -1.921   5.922  0.00  0.00    +0.307 C 
ATOM     30  O   UNL     1       3.031  -1.786   5.031  0.00  0.00    -0.252 OA
ATOM     31  H   UNL     1       3.445  -2.501   7.469  0.00  0.00    +0.150 HD
ENDBRANCH  23  25
ENDBRANCH  17  19
ENDBRANCH   2  17
TORSDOF 7
