REMARK  Name = ZINC12050919
REMARK  9 active torsions:
REMARK  status: ('A' for Active; 'I' for Inactive)
REMARK    1  A    between atoms: C_1  and  C_2
REMARK    2  A    between atoms: C_3  and  C_19
REMARK    3  A    between atoms: C_5  and  C_7
REMARK    4  A    between atoms: C_10  and  C_13
REMARK    5  A    between atoms: C_19  and  N_62
REMARK    6  A    between atoms: C_24  and  C_26
REMARK    7  A    between atoms: C_26  and  C_27
REMARK    8  A    between atoms: C_27  and  N_28
REMARK    9  A    between atoms: C_29  and  C_31
REMARK                            x       y       z     vdW  Elec       q    Type
REMARK                         _______ _______ _______ _____ _____    ______ ____
ROOT
ATOM      1  C   UNL     1      -4.133  -0.407  -1.183  0.00  0.00    +0.088 C 
ATOM      2  C   UNL     1      -4.362  -0.718   0.273  0.00  0.00    +0.124 A 
ATOM      3  C   UNL     1      -3.487  -0.525   1.278  0.00  0.00    +0.066 A 
ATOM      4  N   UNL     1      -4.070  -0.933   2.415  0.00  0.00    -0.216 NA
ATOM      5  C   UNL     1      -5.279  -1.362   2.136  0.00  0.00    +0.228 A 
ATOM      6  O   UNL     1      -5.481  -1.241   0.812  0.00  0.00    -0.440 OA
ENDROOT
BRANCH   5   7
ATOM      7  C   UNL     1      -6.252  -1.893   3.112  0.00  0.00    +0.037 A 
ATOM      8  C   UNL     1      -5.913  -1.971   4.465  0.00  0.00    +0.014 A 
ATOM      9  C   UNL     1      -6.823  -2.463   5.375  0.00  0.00    +0.009 A 
ATOM     10  C   UNL     1      -8.078  -2.893   4.944  0.00  0.00    -0.018 A 
ATOM     11  C   UNL     1      -8.415  -2.821   3.592  0.00  0.00    +0.009 A 
ATOM     12  C   UNL     1      -7.509  -2.325   2.682  0.00  0.00    +0.014 A 
BRANCH  10  13
ATOM     13  C   UNL     1      -9.054  -3.427   5.924  0.00  0.00    -0.018 A 
ATOM     14  C   UNL     1     -10.312  -3.852   5.498  0.00  0.00    +0.008 A 
ATOM     15  C   UNL     1     -11.215  -4.352   6.414  0.00  0.00    +0.001 A 
ATOM     16  C   UNL     1     -10.878  -4.423   7.753  0.00  0.00    +0.000 A 
ATOM     17  C   UNL     1      -9.634  -3.998   8.183  0.00  0.00    +0.001 A 
ATOM     18  C   UNL     1      -8.721  -3.500   7.275  0.00  0.00    +0.008 A 
ENDBRANCH  10  13
ENDBRANCH   5   7
BRANCH   3  19
ATOM     19  C   UNL     1      -2.097   0.043   1.147  0.00  0.00    -0.018 C 
BRANCH  19  25
ATOM     20  C   UNL     1      -2.872   1.881   2.518  0.00  0.00    -0.078 C 
ATOM     21  C   UNL     1      -3.032   3.402   2.567  0.00  0.00    -0.019 C 
ATOM     22  C   UNL     1      -1.648   4.058   2.548  0.00  0.00    -0.003 C 
ATOM     23  C   UNL     1      -0.898   3.609   1.290  0.00  0.00    -0.015 C 
ATOM     24  C   UNL     1      -0.800   2.082   1.278  0.00  0.00    -0.067 C 
ATOM     25  N   UNL     1      -2.164   1.513   1.274  0.00  0.00    +0.385 N 
ATOM     26  H   UNL     1      -2.681   1.894   0.472  0.00  0.00    -0.081 HD
BRANCH  24  27
ATOM     27  C   UNL     1      -0.068   1.628   0.013  0.00  0.00    +0.003 C 
BRANCH  27  28
ATOM     28  C   UNL     1       1.373   2.141   0.046  0.00  0.00    +0.102 C 
BRANCH  28  29
ATOM     29  N   UNL     1       2.108   1.605  -1.102  0.00  0.00    -0.316 N 
ATOM     30  C   UNL     1       3.406   1.924  -1.280  0.00  0.00    +0.210 C 
ATOM     31  O   UNL     1       3.964   2.655  -0.490  0.00  0.00    -0.276 OA
ATOM     32  C   UNL     1       4.162   1.372  -2.461  0.00  0.00    +0.109 C 
ATOM     33  H   UNL     1       1.662   1.020  -1.734  0.00  0.00    +0.149 HD
ENDBRANCH  28  29
ENDBRANCH  27  28
ENDBRANCH  24  27
ENDBRANCH  19  25
ENDBRANCH   3  19
TORSDOF 7
