REMARK  Name = ZINC22039483
REMARK  13 active torsions:
REMARK  status: ('A' for Active; 'I' for Inactive)
REMARK    1  A    between atoms: C_1  and  C_2
REMARK    2  A    between atoms: C_2  and  O_3
REMARK    3  A    between atoms: O_3  and  C_4
REMARK    4  A    between atoms: C_7  and  N_13
REMARK    5  A    between atoms: C_8  and  N_10
REMARK    6  A    between atoms: C_14  and  C_16
REMARK    7  A    between atoms: C_16  and  O_17
REMARK    8  A    between atoms: O_17  and  C_18
REMARK    9  A    between atoms: C_18  and  C_20
REMARK   10  A    between atoms: C_20  and  N_21
REMARK   11  A    between atoms: C_26  and  C_33
REMARK   12  A    between atoms: C_29  and  C_31
REMARK   13  A    between atoms: C_29  and  C_32
REMARK                            x       y       z     vdW  Elec       q    Type
REMARK                         _______ _______ _______ _____ _____    ______ ____
ROOT
ATOM      1  C   UNL     1       9.617   3.283  -0.046  0.00  0.00    +0.326 C 
ATOM      2  O   UNL     1       9.854   4.455   0.128  0.00  0.00    -0.249 OA
ENDROOT
BRANCH   1   3
ATOM      3  O   UNL     1       8.346   2.860  -0.123  0.00  0.00    -0.454 OA
BRANCH   3   4
ATOM      4  C   UNL     1       7.307   3.865   0.012  0.00  0.00    +0.328 C 
BRANCH   4   6
ATOM      5  N   UNL     1       4.835   3.952  -0.004  0.00  0.00    -0.281 N 
ATOM      6  C   UNL     1       5.955   3.208  -0.100  0.00  0.00    +0.255 C 
ATOM      7  O   UNL     1       5.875   2.011  -0.275  0.00  0.00    -0.272 OA
ATOM      8  H   UNL     1       4.906   5.047   0.068  0.00  0.00    +0.155 HD
BRANCH   5  12
ATOM      9  C   UNL     1       1.099   2.099   0.017  0.00  0.00    +0.123 A 
ATOM     10  C   UNL     1       2.182   1.483   0.627  0.00  0.00    +0.047 A 
ATOM     11  C   UNL     1       3.420   2.093   0.616  0.00  0.00    +0.029 A 
ATOM     12  C   UNL     1       3.579   3.329   0.003  0.00  0.00    +0.064 A 
ATOM     13  C   UNL     1       2.494   3.947  -0.603  0.00  0.00    +0.151 A 
ATOM     14  C   UNL     1       1.257   3.333  -0.596  0.00  0.00    +0.080 A 
BRANCH  13  15
ATOM     15  N   UNL     1       2.663   5.264  -1.257  0.00  0.00    +0.058 N 
ATOM     16  O   UNL     1       1.735   5.765  -1.867  0.00  0.00    -0.126 OA
ATOM     17  O   UNL     1       3.730   5.848  -1.186  0.00  0.00    -0.126 OA
ENDBRANCH  13  15
BRANCH   9  18
ATOM     18  O   UNL     1      -0.119   1.495   0.024  0.00  0.00    -0.492 OA
BRANCH  18  20
ATOM     19  C   UNL     1      -1.646  -0.294   0.580  0.00  0.00    +0.048 C 
ATOM     20  C   UNL     1      -0.210   0.225   0.673  0.00  0.00    +0.225 C 
ENDBRANCH  18  20
ENDBRANCH   9  18
ENDBRANCH   5  12
ENDBRANCH   4   6
ENDBRANCH   3   4
ENDBRANCH   1   3
BRANCH   1  21
ATOM     21  C   UNL     1      10.749   2.297  -0.177  0.00  0.00    +0.238 C 
BRANCH  21  22
ATOM     22  N   UNL     1      12.027   3.003  -0.059  0.00  0.00    -0.213 N 
ATOM     23  C   UNL     1      12.678   3.208   1.107  0.00  0.00    +0.247 C 
ATOM     24  O   UNL     1      12.377   2.740   2.184  0.00  0.00    -0.273 OA
ATOM     25  C   UNL     1      13.846   4.101   0.771  0.00  0.00    +0.113 C 
ATOM     26  C   UNL     1      15.152   3.485   1.252  0.00  0.00    +0.038 C 
ATOM     27  C   UNL     1      15.254   3.599   2.773  0.00  0.00    -0.011 C 
ATOM     28  C   UNL     1      15.266   5.078   3.153  0.00  0.00    +0.009 C 
ATOM     29  C   UNL     1      13.972   5.761   2.726  0.00  0.00    -0.032 C 
ATOM     30  C   UNL     1      13.640   5.519   1.264  0.00  0.00    +0.041 C 
ATOM     31  C   UNL     1      14.152   7.281   2.930  0.00  0.00    +0.011 C 
ATOM     32  C   UNL     1      12.819   5.310   3.626  0.00  0.00    +0.011 C 
ATOM     33  C   UNL     1      16.558   2.944   3.243  0.00  0.00    +0.007 C 
ATOM     34  N   UNL     1      13.845   4.113  -0.710  0.00  0.00    -0.285 N 
ATOM     35  C   UNL     1      12.711   3.503  -1.094  0.00  0.00    +0.310 C 
ATOM     36  O   UNL     1      12.347   3.414  -2.251  0.00  0.00    -0.252 OA
ATOM     37  H   UNL     1      14.682   4.572  -1.257  0.00  0.00    +0.151 HD
ENDBRANCH  21  22
ENDBRANCH   1  21
TORSDOF 9
