REMARK  Name = ZINC33936808
REMARK  11 active torsions:
REMARK  status: ('A' for Active; 'I' for Inactive)
REMARK    1  A    between atoms: C_1  and  C_2
REMARK    2  A    between atoms: C_2  and  C_3
REMARK    3  A    between atoms: C_10  and  C_15
REMARK    4  A    between atoms: C_15  and  C_17
REMARK    5  A    between atoms: C_15  and  N_29
REMARK    6  A    between atoms: N_21  and  C_22
REMARK    7  A    between atoms: C_22  and  C_23
REMARK    8  A    between atoms: N_29  and  C_30
REMARK    9  A    between atoms: N_29  and  C_37
REMARK   10  A    between atoms: C_30  and  C_31
REMARK   11  A    between atoms: C_37  and  C_38
REMARK                            x       y       z     vdW  Elec       q    Type
REMARK                         _______ _______ _______ _____ _____    ______ ____
ROOT
ATOM      1  C   UNL     1      -6.028  -1.983  -3.901  0.00  0.00    +0.163 C 
ENDROOT
BRANCH   1   9
ATOM      2  C   UNL     1      -2.662  -2.544   1.261  0.00  0.00    -0.047 A 
ATOM      3  C   UNL     1      -2.657  -1.196   1.591  0.00  0.00    +0.005 A 
ATOM      4  C   UNL     1      -3.304  -0.275   0.795  0.00  0.00    +0.026 A 
ATOM      5  C   UNL     1      -3.968  -0.698  -0.351  0.00  0.00    +0.049 A 
ATOM      6  C   UNL     1      -3.970  -2.066  -0.683  0.00  0.00    -0.001 A 
ATOM      7  C   UNL     1      -3.303  -2.982   0.137  0.00  0.00    +0.013 A 
ATOM      8  C   UNL     1      -4.672  -2.502  -1.892  0.00  0.00    +0.021 A 
ATOM      9  C   UNL     1      -5.297  -1.568  -2.650  0.00  0.00    +0.042 A 
ATOM     10  C   UNL     1      -5.264  -0.208  -2.273  0.00  0.00    +0.254 A 
ATOM     11  O   UNL     1      -5.833   0.615  -2.969  0.00  0.00    -0.268 OA
ATOM     12  N   UNL     1      -4.622   0.202  -1.165  0.00  0.00    -0.322 N 
ATOM     13  H   UNL     1      -4.620   1.144  -0.935  0.00  0.00    +0.169 HD
BRANCH   2  15
ATOM     14  C   UNL     1      -0.497  -3.678   1.682  0.00  0.00    +0.009 C 
ATOM     15  C   UNL     1      -1.948  -3.533   2.146  0.00  0.00    +0.032 C 
ENDBRANCH   2  15
ENDBRANCH   1   9
BRANCH   1  16
ATOM     16  C   UNL     1      -7.329  -1.228  -3.995  0.00  0.00    +0.173 A 
ATOM     17  N   UNL     1      -8.343  -1.310  -3.169  0.00  0.00    -0.111 NA
ATOM     18  N   UNL     1      -9.264  -0.513  -3.589  0.00  0.00    -0.023 NA
ATOM     19  N   UNL     1      -8.864   0.076  -4.662  0.00  0.00    -0.044 NA
ATOM     20  N   UNL     1      -7.673  -0.335  -4.942  0.00  0.00    -0.225 N 
BRANCH  20  21
ATOM     21  C   UNL     1      -6.851   0.088  -6.078  0.00  0.00    +0.179 C 
BRANCH  21  22
ATOM     22  C   UNL     1      -7.123  -0.827  -7.274  0.00  0.00    +0.140 C 
ATOM     23  C   UNL     1      -6.332  -0.341  -8.514  0.00  0.00    +0.035 C 
ATOM     24  C   UNL     1      -6.216  -1.660  -9.325  0.00  0.00    +0.031 C 
ATOM     25  C   UNL     1      -6.096  -2.721  -8.210  0.00  0.00    +0.160 C 
ATOM     26  O   UNL     1      -6.635  -2.151  -7.009  0.00  0.00    -0.375 OA
ENDBRANCH  21  22
ENDBRANCH  20  21
ENDBRANCH   1  16
BRANCH   1  27
ATOM     27  N   UNL     1      -6.301  -3.426  -3.852  0.00  0.00    -0.277 NA
BRANCH  27  28
ATOM     28  C   UNL     1      -6.497  -3.970  -5.202  0.00  0.00    +0.121 C 
BRANCH  28  29
ATOM     29  C   UNL     1      -6.428  -5.475  -5.152  0.00  0.00    -0.033 A 
ATOM     30  C   UNL     1      -5.202  -6.112  -5.192  0.00  0.00    +0.005 A 
ATOM     31  C   UNL     1      -5.139  -7.492  -5.145  0.00  0.00    +0.000 A 
ATOM     32  C   UNL     1      -6.301  -8.235  -5.059  0.00  0.00    +0.000 A 
ATOM     33  C   UNL     1      -7.527  -7.597  -5.018  0.00  0.00    +0.000 A 
ATOM     34  C   UNL     1      -7.590  -6.217  -5.060  0.00  0.00    +0.005 A 
ENDBRANCH  28  29
ENDBRANCH  27  28
BRANCH  27  35
ATOM     35  C   UNL     1      -7.460  -3.713  -2.996  0.00  0.00    +0.160 C 
BRANCH  35  36
ATOM     36  C   UNL     1      -7.085  -3.492  -1.553  0.00  0.00    +0.119 A 
ATOM     37  C   UNL     1      -7.317  -2.374  -0.843  0.00  0.00    +0.046 A 
ATOM     38  C   UNL     1      -6.805  -2.600   0.456  0.00  0.00    +0.041 A 
ATOM     39  C   UNL     1      -6.291  -3.843   0.461  0.00  0.00    +0.195 A 
ATOM     40  O   UNL     1      -6.469  -4.381  -0.756  0.00  0.00    -0.467 OA
ENDBRANCH  35  36
ENDBRANCH  27  35
ENDBRANCH   1  27
TORSDOF 10
