REMARK  Name = ZINC09783040
REMARK  12 active torsions:
REMARK  status: ('A' for Active; 'I' for Inactive)
REMARK    1  A    between atoms: C_1  and  C_2
REMARK    2  A    between atoms: C_2  and  C_3
REMARK    3  A    between atoms: C_3  and  C_5
REMARK    4  A    between atoms: C_3  and  O_6
REMARK    5  A    between atoms: O_6  and  C_7
REMARK    6  A    between atoms: C_7  and  C_9
REMARK    7  A    between atoms: C_9  and  C_10
REMARK    8  A    between atoms: C_18  and  C_20
REMARK    9  A    between atoms: C_25  and  O_26
REMARK   10  A    between atoms: O_26  and  C_27
REMARK   11  A    between atoms: C_27  and  C_28
REMARK   12  A    between atoms: C_28  and  C_29
REMARK                            x       y       z     vdW  Elec       q    Type
REMARK                         _______ _______ _______ _____ _____    ______ ____
ROOT
ATOM      1  C   UNL     1       0.250   8.442   0.228  0.00  0.00    +0.173 C 
ATOM      2  C   UNL     1       0.382   9.654  -0.647  0.00  0.00    +0.234 C 
ATOM      3  O   UNL     1      -0.607  10.322  -0.865  0.00  0.00    -0.274 OA
ATOM      4  N   UNL     1       1.537  10.028  -1.201  0.00  0.00    -0.312 N 
ATOM      5  C   UNL     1       2.782   9.279  -1.103  0.00  0.00    +0.123 C 
ATOM      6  C   UNL     1       2.758   8.344   0.108  0.00  0.00    +0.127 C 
ATOM      7  N   UNL     1       1.470   7.630   0.113  0.00  0.00    -0.284 N 
ATOM      8  C   UNL     1       1.412   6.287   0.010  0.00  0.00    +0.251 C 
ATOM      9  O   UNL     1       0.335   5.731  -0.091  0.00  0.00    -0.270 OA
ATOM     10  H   UNL     1       1.548  10.858  -1.703  0.00  0.00    +0.149 HD
ENDROOT
BRANCH   8  11
ATOM     11  C   UNL     1       2.655   5.492   0.020  0.00  0.00    +0.080 A 
ATOM     12  C   UNL     1       3.567   5.628   1.070  0.00  0.00    +0.032 A 
ATOM     13  C   UNL     1       4.729   4.885   1.070  0.00  0.00    +0.019 A 
ATOM     14  C   UNL     1       4.994   4.002   0.036  0.00  0.00    +0.019 A 
ATOM     15  C   UNL     1       4.099   3.855  -1.004  0.00  0.00    +0.047 A 
ATOM     16  C   UNL     1       2.925   4.593  -1.020  0.00  0.00    +0.133 A 
ATOM     17 BR   UNL     1       5.966   5.074   2.488  0.00  0.00    -0.050 Br
BRANCH  16  18
ATOM     18  O   UNL     1       2.044   4.450  -2.042  0.00  0.00    -0.491 OA
BRANCH  18  19
ATOM     19  C   UNL     1       2.389   3.519  -3.070  0.00  0.00    +0.233 C 
BRANCH  19  20
ATOM     20  C   UNL     1       1.283   3.494  -4.128  0.00  0.00    +0.076 C 
BRANCH  20  21
ATOM     21  C   UNL     1       1.647   2.513  -5.212  0.00  0.00    -0.044 A 
ATOM     22  C   UNL     1       2.366   2.936  -6.314  0.00  0.00    +0.004 A 
ATOM     23  C   UNL     1       2.704   2.035  -7.307  0.00  0.00    +0.000 A 
ATOM     24  C   UNL     1       2.315   0.713  -7.202  0.00  0.00    +0.000 A 
ATOM     25  C   UNL     1       1.592   0.291  -6.102  0.00  0.00    +0.000 A 
ATOM     26  C   UNL     1       1.258   1.191  -5.107  0.00  0.00    +0.004 A 
ENDBRANCH  20  21
ENDBRANCH  19  20
ENDBRANCH  18  19
ENDBRANCH  16  18
ENDBRANCH   8  11
BRANCH   1  27
ATOM     27  C   UNL     1       0.063   8.883   1.681  0.00  0.00    +0.152 C 
BRANCH  27  28
ATOM     28  C   UNL     1      -0.181   7.673   2.546  0.00  0.00    +0.310 C 
ATOM     29  O   UNL     1      -0.204   6.572   2.051  0.00  0.00    -0.251 OA
BRANCH  28  30
ATOM     30  O   UNL     1      -0.373   7.820   3.866  0.00  0.00    -0.462 OA
BRANCH  30  31
ATOM     31  C   UNL     1      -0.603   6.611   4.637  0.00  0.00    +0.173 C 
ATOM     32  C   UNL     1       0.736   6.058   5.129  0.00  0.00    +0.052 C 
BRANCH  31  34
ATOM     33  C   UNL     1      -2.876   7.369   5.346  0.00  0.00    +0.007 C 
ATOM     34  C   UNL     1      -1.494   6.934   5.838  0.00  0.00    +0.041 C 
ENDBRANCH  31  34
ENDBRANCH  30  31
ENDBRANCH  28  30
ENDBRANCH  27  28
ENDBRANCH   1  27
TORSDOF 10
