REMARK  Name = ZINC02142974
REMARK  8 active torsions:
REMARK  status: ('A' for Active; 'I' for Inactive)
REMARK    1  A    between atoms: C_4  and  N_7
REMARK    2  A    between atoms: C_8  and  C_33
REMARK    3  A    between atoms: C_9  and  C_12
REMARK    4  A    between atoms: N_14  and  N_15
REMARK    5  A    between atoms: N_15  and  S_16
REMARK    6  A    between atoms: S_16  and  C_19
REMARK    7  A    between atoms: C_21  and  C_29
REMARK    8  A    between atoms: C_23  and  C_25
REMARK                            x       y       z     vdW  Elec       q    Type
REMARK                         _______ _______ _______ _____ _____    ______ ____
ROOT
ATOM      1  C   UNL     1       5.912  -3.345   0.783  0.00  0.00    +0.262 C 
ATOM      2  O   UNL     1       5.338  -4.164   1.474  0.00  0.00    -0.269 OA
ATOM      3  N   UNL     1       7.204  -3.534   0.446  0.00  0.00    -0.228 N 
ATOM      4  H   UNL     1       7.661  -2.880  -0.105  0.00  0.00    +0.171 HD
ENDROOT
BRANCH   1   7
ATOM      5  N   UNL     1       3.623  -0.652  -0.037  0.00  0.00    -0.227 N 
ATOM      6  C   UNL     1       3.879  -1.822   0.576  0.00  0.00    +0.159 A 
ATOM      7  C   UNL     1       5.195  -2.146   0.312  0.00  0.00    +0.088 A 
ATOM      8  C   UNL     1       5.727  -1.113  -0.493  0.00  0.00    +0.148 A 
ATOM      9  N   UNL     1       4.784  -0.235  -0.699  0.00  0.00    -0.174 NA
BRANCH   5  13
ATOM     10  C   UNL     1      -0.017   1.379   0.010  0.00  0.00    +0.000 A 
ATOM     11  C   UNL     1       1.170   2.089   0.002  0.00  0.00    +0.002 A 
ATOM     12  C   UNL     1       2.377   1.419  -0.013  0.00  0.00    +0.028 A 
ATOM     13  C   UNL     1       2.400   0.031  -0.021  0.00  0.00    +0.066 A 
ATOM     14  C   UNL     1       1.207  -0.680  -0.013  0.00  0.00    +0.028 A 
ATOM     15  C   UNL     1       0.002  -0.004   0.002  0.00  0.00    +0.002 A 
ENDBRANCH   5  13
BRANCH   6  16
ATOM     16  C   UNL     1       2.909  -2.629   1.399  0.00  0.00    +0.435 C 
ATOM     17  F   UNL     1       2.231  -3.530   0.570  0.00  0.00    -0.164 F 
ATOM     18  F   UNL     1       3.608  -3.337   2.382  0.00  0.00    -0.164 F 
ATOM     19  F   UNL     1       1.987  -1.771   2.008  0.00  0.00    -0.164 F 
ENDBRANCH   6  16
ENDBRANCH   1   7
BRANCH   3  20
ATOM     20  N   UNL     1       7.885  -4.673   0.894  0.00  0.00    -0.108 NA
ATOM     21  H   UNL     1       7.920  -4.877   1.841  0.00  0.00    +0.172 HD
BRANCH  20  22
ATOM     22  S   UNL     1       8.631  -5.673  -0.196  0.00  0.00    +0.074 S 
ATOM     23  O   UNL     1       9.344  -6.640   0.563  0.00  0.00    -0.152 OA
ATOM     24  O   UNL     1       7.647  -6.032  -1.157  0.00  0.00    -0.152 OA
BRANCH  22  25
ATOM     25  C   UNL     1       9.837  -4.710  -1.046  0.00  0.00    +0.108 A 
ATOM     26  C   UNL     1       9.493  -4.035  -2.202  0.00  0.00    +0.041 A 
ATOM     27  C   UNL     1      10.439  -3.279  -2.869  0.00  0.00    +0.057 A 
ATOM     28  C   UNL     1      11.729  -3.198  -2.379  0.00  0.00    +0.024 A 
ATOM     29  C   UNL     1      12.073  -3.871  -1.222  0.00  0.00    +0.057 A 
ATOM     30  C   UNL     1      11.125  -4.624  -0.553  0.00  0.00    +0.041 A 
BRANCH  29  31
ATOM     31  C   UNL     1      13.479  -3.783  -0.688  0.00  0.00    +0.417 C 
ATOM     32  F   UNL     1      14.246  -2.968  -1.528  0.00  0.00    -0.166 F 
ATOM     33  F   UNL     1      13.456  -3.235   0.599  0.00  0.00    -0.166 F 
ATOM     34  F   UNL     1      14.041  -5.063  -0.639  0.00  0.00    -0.166 F 
ENDBRANCH  29  31
BRANCH  27  35
ATOM     35  C   UNL     1      10.064  -2.545  -4.130  0.00  0.00    +0.417 C 
ATOM     36  F   UNL     1       9.610  -1.262  -3.806  0.00  0.00    -0.166 F 
ATOM     37  F   UNL     1      11.185  -2.446  -4.963  0.00  0.00    -0.166 F 
ATOM     38  F   UNL     1       9.051  -3.245  -4.794  0.00  0.00    -0.166 F 
ENDBRANCH  27  35
ENDBRANCH  22  25
ENDBRANCH  20  22
ENDBRANCH   3  20
TORSDOF 8
