REMARK  Name = ZINC60248912
REMARK  8 active torsions:
REMARK  status: ('A' for Active; 'I' for Inactive)
REMARK    1  A    between atoms: C_1  and  C_2
REMARK    2  A    between atoms: C_5  and  C_7
REMARK    3  A    between atoms: N_9  and  C_10
REMARK    4  A    between atoms: C_16  and  C_18
REMARK    5  A    between atoms: C_25  and  C_28
REMARK    6  A    between atoms: C_28  and  C_29
REMARK    7  A    between atoms: C_28  and  C_30
REMARK    8  A    between atoms: C_28  and  C_31
REMARK                            x       y       z     vdW  Elec       q    Type
REMARK                         _______ _______ _______ _____ _____    ______ ____
ROOT
ATOM      1  C   UNL     1       4.344  -3.066   1.073  0.00  0.00    +0.076 C 
ATOM      2  C   UNL     1       4.479  -4.122   2.173  0.00  0.00    +0.041 C 
ATOM      3  C   UNL     1       5.089  -5.396   1.579  0.00  0.00    +0.110 C 
ATOM      4  N   UNL     1       6.354  -5.050   0.916  0.00  0.00    -0.297 N 
ATOM      5  C   UNL     1       6.353  -3.983  -0.093  0.00  0.00    +0.110 C 
ATOM      6  C   UNL     1       5.729  -2.725   0.518  0.00  0.00    +0.041 C 
ATOM      7  C   UNL     1       7.493  -5.699   1.229  0.00  0.00    +0.253 C 
ATOM      8  O   UNL     1       7.506  -6.496   2.149  0.00  0.00    -0.269 OA
ENDROOT
BRANCH   7   9
ATOM      9  C   UNL     1       8.715  -5.445   0.462  0.00  0.00    +0.075 A 
ATOM     10  C   UNL     1      10.032  -5.666   0.821  0.00  0.00    +0.024 A 
ATOM     11  C   UNL     1      11.001  -5.329  -0.113  0.00  0.00    -0.036 A 
ATOM     12  C   UNL     1      10.559  -4.813  -1.295  0.00  0.00    -0.006 A 
ATOM     13  S   UNL     1       8.893  -4.777  -1.182  0.00  0.00    -0.088 S 
ATOM     14  C   UNL     1      11.403  -4.377  -2.456  0.00  0.00    +0.043 C 
ATOM     15  C   UNL     1      12.817  -4.945  -2.268  0.00  0.00    +0.009 C 
ATOM     16  C   UNL     1      13.279  -4.653  -0.838  0.00  0.00    -0.001 C 
ATOM     17  C   UNL     1      12.493  -5.518   0.148  0.00  0.00    +0.040 C 
BRANCH  16  18
ATOM     18  C   UNL     1      14.771  -4.969  -0.711  0.00  0.00    -0.035 C 
ATOM     19  C   UNL     1      15.561  -4.099  -1.691  0.00  0.00    +0.011 C 
ATOM     20  C   UNL     1      15.234  -4.678   0.718  0.00  0.00    +0.011 C 
ATOM     21  C   UNL     1      15.009  -6.445  -1.034  0.00  0.00    +0.011 C 
ENDBRANCH  16  18
ENDBRANCH   7   9
BRANCH   1  24
ATOM     22  C   UNL     1       2.388  -1.760   1.711  0.00  0.00    +0.280 C 
ATOM     23  O   UNL     1       1.687  -2.675   1.323  0.00  0.00    -0.267 OA
ATOM     24  N   UNL     1       3.730  -1.858   1.630  0.00  0.00    -0.306 N 
ATOM     25  H   UNL     1       4.289  -1.128   1.940  0.00  0.00    +0.149 HD
BRANCH  22  30
ATOM     26  C   UNL     1       1.886   2.784   3.755  0.00  0.00    +0.086 C 
ATOM     27  C   UNL     1       1.547   1.439   3.164  0.00  0.00    +0.103 A 
ATOM     28  C   UNL     1       0.300   0.952   2.981  0.00  0.00    +0.045 A 
ATOM     29  C   UNL     1       0.435  -0.322   2.408  0.00  0.00    +0.055 A 
ATOM     30  C   UNL     1       1.774  -0.550   2.268  0.00  0.00    +0.189 A 
ATOM     31  O   UNL     1       2.432   0.533   2.729  0.00  0.00    -0.455 OA
ENDBRANCH  22  30
ENDBRANCH   1  24
TORSDOF 4
