REMARK  Name = ZINC18165986
REMARK  5 active torsions:
REMARK  status: ('A' for Active; 'I' for Inactive)
REMARK    1  A    between atoms: C_1  and  C_2
REMARK    2  A    between atoms: C_7  and  N_8
REMARK    3  A    between atoms: C_9  and  C_11
REMARK    4  A    between atoms: C_12  and  C_33
REMARK    5  A    between atoms: C_16  and  C_18
REMARK                            x       y       z     vdW  Elec       q    Type
REMARK                         _______ _______ _______ _____ _____    ______ ____
ROOT
ATOM      1  C   UNL     1       0.006   0.351   4.600  0.00  0.00    +0.043 C 
ATOM      2  C   UNL     1       0.070  -0.336   5.753  0.00  0.00    +0.014 C 
ATOM      3  N   UNL     1       0.044   0.320   6.953  0.00  0.00    -0.321 N 
ATOM      4  C   UNL     1       0.351   1.652   7.026  0.00  0.00    +0.015 C 
ATOM      5  C   UNL     1       0.297   2.429   5.923  0.00  0.00    +0.024 C 
ATOM      6  C   UNL     1      -0.097   1.848   4.590  0.00  0.00    +0.091 C 
ATOM      7  C   UNL     1       0.606   3.799   5.985  0.00  0.00    +0.162 C 
ATOM      8  O   UNL     1       0.562   4.466   4.971  0.00  0.00    -0.292 OA
ATOM      9  C   UNL     1       0.988   4.453   7.284  0.00  0.00    +0.080 C 
ATOM     10  C   UNL     1       0.327   3.694   8.439  0.00  0.00    +0.014 C 
ATOM     11  C   UNL     1       0.753   2.226   8.362  0.00  0.00    +0.051 C 
ATOM     12  C   UNL     1       0.170  -1.839   5.723  0.00  0.00    +0.061 C 
ATOM     13  H   UNL     1      -0.193  -0.163   7.760  0.00  0.00    +0.152 HD
ENDROOT
BRANCH   6  14
ATOM     14  C   UNL     1      -1.519   2.244   4.285  0.00  0.00    -0.018 A 
ATOM     15  C   UNL     1      -2.529   1.927   5.175  0.00  0.00    +0.055 A 
ATOM     16  C   UNL     1      -3.837   2.290   4.896  0.00  0.00    +0.167 A 
ATOM     17  C   UNL     1      -4.131   2.974   3.719  0.00  0.00    +0.167 A 
ATOM     18  C   UNL     1      -3.114   3.288   2.832  0.00  0.00    +0.065 A 
ATOM     19  C   UNL     1      -1.809   2.928   3.119  0.00  0.00    +0.026 A 
ATOM     20 BR   UNL     1      -0.422   3.365   1.910  0.00  0.00    -0.050 Br
ATOM     21  O   UNL     1      -5.474   3.213   3.677  0.00  0.00    -0.453 OA
ATOM     22  C   UNL     1      -6.055   2.314   4.640  0.00  0.00    +0.466 C 
ATOM     23  O   UNL     1      -4.996   2.101   5.592  0.00  0.00    -0.453 OA
ENDBRANCH   6  14
BRANCH   1  25
ATOM     24  N   UNL     1      -1.074  -0.938   2.897  0.00  0.00    -0.281 N 
ATOM     25  C   UNL     1       0.043  -0.351   3.370  0.00  0.00    +0.247 C 
ATOM     26  O   UNL     1       1.083  -0.423   2.741  0.00  0.00    -0.270 OA
ATOM     27  H   UNL     1      -1.917  -0.822   3.361  0.00  0.00    +0.155 HD
BRANCH  24  34
ATOM     28  C   UNL     1      -3.501  -1.461   1.507  0.00  0.00    +0.045 C 
ATOM     29  C   UNL     1      -2.176  -1.995   1.026  0.00  0.00    -0.029 A 
ATOM     30  C   UNL     1      -2.115  -2.758  -0.123  0.00  0.00    +0.005 A 
ATOM     31  C   UNL     1      -0.900  -3.249  -0.565  0.00  0.00    +0.000 A 
ATOM     32  C   UNL     1       0.257  -2.977   0.142  0.00  0.00    +0.002 A 
ATOM     33  C   UNL     1       0.203  -2.215   1.292  0.00  0.00    +0.023 A 
ATOM     34  C   UNL     1      -1.016  -1.716   1.735  0.00  0.00    +0.037 A 
ENDBRANCH  24  34
ENDBRANCH   1  25
TORSDOF 3
