REMARK  Name = ZINC24509049
REMARK  8 active torsions:
REMARK  status: ('A' for Active; 'I' for Inactive)
REMARK    1  A    between atoms: C_1  and  C_2
REMARK    2  A    between atoms: C_5  and  C_8
REMARK    3  A    between atoms: C_8  and  N_9
REMARK    4  A    between atoms: C_13  and  C_15
REMARK    5  A    between atoms: N_17  and  C_18
REMARK    6  A    between atoms: C_18  and  C_19
REMARK    7  A    between atoms: C_25  and  C_28
REMARK    8  A    between atoms: C_32  and  C_34
REMARK                            x       y       z     vdW  Elec       q    Type
REMARK                         _______ _______ _______ _____ _____    ______ ____
ROOT
ATOM      1  C   UNL     1      -1.173   2.259   0.020  0.00  0.00    +0.251 C 
ATOM      2  O   UNL     1      -2.301   1.801   0.023  0.00  0.00    -0.270 OA
ATOM      3  N   UNL     1      -0.988   3.594   0.026  0.00  0.00    -0.304 N 
ATOM      4  H   UNL     1       0.031   4.008   0.024  0.00  0.00    +0.149 HD
ENDROOT
BRANCH   1   9
ATOM      5  N   UNL     1       3.465  -0.668  -0.034  0.00  0.00    -0.252 N 
ATOM      6  C   UNL     1       2.378   0.127  -0.020  0.00  0.00    +0.107 A 
ATOM      7  C   UNL     1       1.231  -0.682  -0.013  0.00  0.00    +0.031 A 
ATOM      8  C   UNL     1       0.002  -0.004   0.002  0.00  0.00    +0.032 A 
ATOM      9  C   UNL     1      -0.016   1.359   0.009  0.00  0.00    +0.076 A 
ATOM     10  S   UNL     1       1.719   1.774  -0.005  0.00  0.00    -0.064 S 
ATOM     11  C   UNL     1       1.729  -2.026  -0.025  0.00  0.00    +0.068 A 
ATOM     12  N   UNL     1       3.027  -1.998  -0.036  0.00  0.00    -0.175 NA
ATOM     13  C   UNL     1       0.881  -3.272  -0.024  0.00  0.00    +0.068 C 
BRANCH   5  14
ATOM     14  C   UNL     1       4.859  -0.219  -0.045  0.00  0.00    +0.180 C 
BRANCH  14  19
ATOM     15  C   UNL     1       6.640   0.396  -5.508  0.00  0.00    +0.044 C 
ATOM     16  C   UNL     1       6.176   0.236  -4.083  0.00  0.00    -0.050 A 
ATOM     17  C   UNL     1       5.596   1.302  -3.421  0.00  0.00    +0.004 A 
ATOM     18  C   UNL     1       5.170   1.155  -2.115  0.00  0.00    +0.006 A 
ATOM     19  C   UNL     1       5.324  -0.059  -1.470  0.00  0.00    -0.026 A 
ATOM     20  C   UNL     1       5.908  -1.123  -2.131  0.00  0.00    +0.006 A 
ATOM     21  C   UNL     1       6.331  -0.977  -3.439  0.00  0.00    +0.004 A 
ENDBRANCH  14  19
ENDBRANCH   5  14
ENDBRANCH   1   9
BRANCH   3  22
ATOM     22  C   UNL     1      -2.144   4.494   0.037  0.00  0.00    +0.181 C 
BRANCH  22  23
ATOM     23  C   UNL     1      -1.668   5.923   0.043  0.00  0.00    +0.155 A 
ATOM     24  N   UNL     1      -1.424   6.653   1.100  0.00  0.00    -0.132 NA
ATOM     25  N   UNL     1      -1.031   7.828   0.751  0.00  0.00    -0.129 NA
ATOM     26  C   UNL     1      -1.011   7.912  -0.569  0.00  0.00    +0.161 A 
ATOM     27  N   UNL     1      -1.420   6.693  -1.052  0.00  0.00    -0.285 N 
ATOM     28  C   UNL     1      -1.502   6.473  -2.395  0.00  0.00    +0.107 A 
ATOM     29  C   UNL     1      -1.183   7.450  -3.270  0.00  0.00    +0.071 A 
ATOM     30  C   UNL     1      -0.762   8.709  -2.807  0.00  0.00    +0.017 A 
ATOM     31  C   UNL     1      -0.675   8.941  -1.470  0.00  0.00    +0.049 A 
BRANCH  29  32
ATOM     32  C   UNL     1      -1.279   7.191  -4.751  0.00  0.00    +0.419 C 
ATOM     33  F   UNL     1      -0.902   8.341  -5.452  0.00  0.00    -0.166 F 
ATOM     34  F   UNL     1      -0.429   6.135  -5.096  0.00  0.00    -0.166 F 
ATOM     35  F   UNL     1      -2.597   6.855  -5.081  0.00  0.00    -0.166 F 
ENDBRANCH  29  32
ENDBRANCH  22  23
ENDBRANCH   3  22
TORSDOF 6
