REMARK  Name = ZINC42870632
REMARK  5 active torsions:
REMARK  status: ('A' for Active; 'I' for Inactive)
REMARK    1  A    between atoms: C_1  and  C_2
REMARK    2  A    between atoms: C_8  and  C_10
REMARK    3  A    between atoms: C_10  and  N_11
REMARK    4  A    between atoms: C_18  and  C_20
REMARK    5  A    between atoms: C_20  and  C_21
REMARK                            x       y       z     vdW  Elec       q    Type
REMARK                         _______ _______ _______ _____ _____    ______ ____
ROOT
ATOM      1  N   UNL     1       0.748  -0.864   3.709  0.00  0.00    -0.299 N 
ATOM      2  C   UNL     1       0.254  -0.488   4.905  0.00  0.00    +0.302 C 
ATOM      3  O   UNL     1      -0.702   0.261   4.960  0.00  0.00    -0.253 OA
ATOM      4  N   UNL     1       0.819  -0.944   6.041  0.00  0.00    -0.282 N 
ATOM      5  C   UNL     1       1.913  -1.928   6.122  0.00  0.00    +0.110 C 
ATOM      6  C   UNL     1       2.595  -1.652   7.485  0.00  0.00    +0.021 C 
ATOM      7  C   UNL     1       1.377  -1.295   8.377  0.00  0.00    +0.024 C 
ATOM      8  C   UNL     1       0.450  -0.535   7.405  0.00  0.00    +0.088 C 
ATOM      9  H   UNL     1       1.511  -1.462   3.666  0.00  0.00    +0.150 HD
ENDROOT
BRANCH   1  10
ATOM     10  C   UNL     1       0.134  -0.370   2.475  0.00  0.00    +0.109 C 
BRANCH  10  17
ATOM     11  C   UNL     1       0.136   0.998  -0.116  0.00  0.00    +0.008 C 
ATOM     12  C   UNL     1       0.165  -0.528  -0.019  0.00  0.00    -0.010 C 
ATOM     13  C   UNL     1       0.912  -1.102  -1.225  0.00  0.00    +0.003 C 
ATOM     14  C   UNL     1       2.344  -0.564  -1.241  0.00  0.00    +0.000 C 
ATOM     15  C   UNL     1       3.060  -0.979   0.046  0.00  0.00    +0.000 C 
ATOM     16  C   UNL     1       2.313  -0.405   1.252  0.00  0.00    +0.005 C 
ATOM     17  C   UNL     1       0.881  -0.943   1.268  0.00  0.00    +0.009 C 
ENDBRANCH  10  17
ENDBRANCH   1  10
BRANCH   8  18
ATOM     18  C   UNL     1      -1.008  -0.906   7.683  0.00  0.00    +0.147 C 
BRANCH  18  19
ATOM     19  C   UNL     1      -1.417  -0.360   9.027  0.00  0.00    +0.358 C 
ATOM     20  O   UNL     1      -0.652   0.351   9.655  0.00  0.00    -0.246 OA
ATOM     21  O   UNL     1      -2.514  -0.630   9.486  0.00  0.00    -0.246 OA
ENDBRANCH  18  19
ENDBRANCH   8  18
TORSDOF 4
