REMARK  Name = ZINC00958621
REMARK  12 active torsions:
REMARK  status: ('A' for Active; 'I' for Inactive)
REMARK    1  A    between atoms: C_1  and  C_2
REMARK    2  A    between atoms: C_5  and  O_12
REMARK    3  A    between atoms: C_6  and  C_8
REMARK    4  A    between atoms: C_8  and  C_9
REMARK    5  A    between atoms: C_8  and  C_10
REMARK    6  A    between atoms: C_8  and  C_11
REMARK    7  A    between atoms: O_12  and  C_13
REMARK    8  A    between atoms: C_13  and  C_14
REMARK    9  A    between atoms: N_16  and  C_17
REMARK   10  A    between atoms: C_20  and  S_23
REMARK   11  A    between atoms: S_23  and  N_26
REMARK   12  A    between atoms: C_29  and  C_32
REMARK                            x       y       z     vdW  Elec       q    Type
REMARK                         _______ _______ _______ _____ _____    ______ ____
ROOT
ATOM      1  C   UNL     1      -0.717   1.573   1.248  0.00  0.00    +0.255 C 
ATOM      2  O   UNL     1      -1.709   2.264   1.150  0.00  0.00    -0.272 OA
ATOM      3  N   UNL     1      -0.242   1.246   2.466  0.00  0.00    -0.283 N 
ATOM      4  H   UNL     1       0.511   0.639   2.546  0.00  0.00    +0.155 HD
ENDROOT
BRANCH   3   5
ATOM      5  C   UNL     1      -0.833   1.782   3.615  0.00  0.00    +0.034 A 
ATOM      6  C   UNL     1      -0.052   2.086   4.722  0.00  0.00    +0.025 A 
ATOM      7  C   UNL     1      -0.639   2.620   5.853  0.00  0.00    +0.030 A 
ATOM      8  C   UNL     1      -2.003   2.842   5.887  0.00  0.00    +0.109 A 
ATOM      9  C   UNL     1      -2.784   2.535   4.788  0.00  0.00    +0.030 A 
ATOM     10  C   UNL     1      -2.203   2.006   3.652  0.00  0.00    +0.025 A 
BRANCH   8  11
ATOM     11  S   UNL     1      -2.748   3.518   7.334  0.00  0.00    +0.074 S 
ATOM     12  O   UNL     1      -1.728   4.226   8.023  0.00  0.00    -0.150 OA
ATOM     13  O   UNL     1      -3.957   4.137   6.917  0.00  0.00    -0.150 OA
BRANCH  11  14
ATOM     14  N   UNL     1      -3.178   2.245   8.303  0.00  0.00    -0.197 N 
ATOM     15  C   UNL     1      -2.197   1.425   8.849  0.00  0.00    +0.181 A 
ATOM     16  C   UNL     1      -2.399   0.300   9.694  0.00  0.00    +0.092 A 
ATOM     17  C   UNL     1      -1.148  -0.146   9.947  0.00  0.00    +0.136 A 
ATOM     18  O   UNL     1      -0.309   0.669   9.290  0.00  0.00    -0.358 OA
ATOM     19  N   UNL     1      -0.904   1.530   8.684  0.00  0.00    -0.062 NA
ATOM     20  C   UNL     1      -0.769  -1.330  10.799  0.00  0.00    +0.089 C 
ATOM     21  H   UNL     1      -4.114   2.072   8.489  0.00  0.00    +0.175 HD
ENDBRANCH  11  14
ENDBRANCH   8  11
ENDBRANCH   3   5
BRANCH   1  22
ATOM     22  C   UNL     1      -0.016   1.080   0.008  0.00  0.00    +0.324 C 
BRANCH  22  23
ATOM     23  O   UNL     1      -0.705   1.556  -1.150  0.00  0.00    -0.482 OA
BRANCH  23  28
ATOM     24  C   UNL     1       1.391   0.075  -6.163  0.00  0.00    +0.044 C 
ATOM     25  C   UNL     1       0.831   0.471  -4.822  0.00  0.00    -0.050 A 
ATOM     26  C   UNL     1       1.450   0.044  -3.661  0.00  0.00    +0.007 A 
ATOM     27  C   UNL     1       0.937   0.406  -2.430  0.00  0.00    +0.046 A 
ATOM     28  C   UNL     1      -0.199   1.199  -2.359  0.00  0.00    +0.125 A 
ATOM     29  C   UNL     1      -0.821   1.622  -3.525  0.00  0.00    -0.000 A 
ATOM     30  C   UNL     1      -0.302   1.261  -4.753  0.00  0.00    +0.011 A 
BRANCH  29  31
ATOM     31  C   UNL     1      -2.059   2.478  -3.451  0.00  0.00    -0.009 C 
ATOM     32  C   UNL     1      -2.540   2.802  -4.867  0.00  0.00    +0.015 C 
ATOM     33  C   UNL     1      -3.157   1.723  -2.700  0.00  0.00    +0.015 C 
ATOM     34  C   UNL     1      -1.737   3.778  -2.712  0.00  0.00    +0.015 C 
ENDBRANCH  29  31
ENDBRANCH  23  28
ENDBRANCH  22  23
ENDBRANCH   1  22
TORSDOF 7
