REMARK  Name = ZINC20572791
REMARK  10 active torsions:
REMARK  status: ('A' for Active; 'I' for Inactive)
REMARK    1  A    between atoms: C_1  and  C_2
REMARK    2  A    between atoms: C_2  and  C_3
REMARK    3  A    between atoms: C_3  and  C_5
REMARK    4  A    between atoms: C_6  and  C_31
REMARK    5  A    between atoms: C_7  and  C_26
REMARK    6  A    between atoms: C_8  and  N_10
REMARK    7  A    between atoms: C_11  and  C_13
REMARK    8  A    between atoms: C_26  and  O_28
REMARK    9  A    between atoms: O_28  and  C_29
REMARK   10  A    between atoms: C_29  and  C_30
REMARK                            x       y       z     vdW  Elec       q    Type
REMARK                         _______ _______ _______ _____ _____    ______ ____
ROOT
ATOM      1  N   UNL     1      -1.221  -2.353   2.492  0.00  0.00    -0.274 N 
ATOM      2  C   UNL     1      -1.239  -3.215   3.528  0.00  0.00    +0.271 C 
ATOM      3  O   UNL     1      -1.289  -4.412   3.321  0.00  0.00    -0.268 OA
ATOM      4  H   UNL     1      -1.176  -1.270   2.679  0.00  0.00    +0.156 HD
ENDROOT
BRANCH   2   5
ATOM      5  C   UNL     1      -1.198  -2.704   4.919  0.00  0.00    +0.172 A 
ATOM      6  C   UNL     1      -1.216  -3.462   6.097  0.00  0.00    +0.032 A 
ATOM      7  C   UNL     1      -1.148  -2.526   7.104  0.00  0.00    +0.171 A 
ATOM      8  O   UNL     1      -1.123  -1.338   6.513  0.00  0.00    -0.354 OA
ATOM      9  N   UNL     1      -1.144  -1.444   5.301  0.00  0.00    -0.073 NA
ATOM     10  C   UNL     1      -1.143  -2.957   8.513  0.00  0.00    +0.023 A 
ATOM     11  C   UNL     1      -1.379  -2.070   9.556  0.00  0.00    +0.012 A 
ATOM     12  C   UNL     1      -1.390  -2.533  10.857  0.00  0.00    +0.001 A 
ATOM     13  C   UNL     1      -1.169  -3.875  11.113  0.00  0.00    +0.000 A 
ATOM     14  C   UNL     1      -0.923  -4.758  10.078  0.00  0.00    +0.004 A 
ATOM     15  C   UNL     1      -0.892  -4.310   8.772  0.00  0.00    -0.036 A 
ATOM     16  C   UNL     1      -0.549  -5.262   7.659  0.00  0.00    +0.040 C 
ATOM     17  C   UNL     1      -1.288  -4.934   6.361  0.00  0.00    +0.046 C 
ENDBRANCH   2   5
BRANCH   1  21
ATOM     18  C   UNL     1      -1.339  -4.187  -1.103  0.00  0.00    +0.060 A 
ATOM     19  C   UNL     1      -1.287  -2.806  -1.186  0.00  0.00    -0.017 A 
ATOM     20  C   UNL     1      -1.248  -2.099   0.003  0.00  0.00    +0.091 A 
ATOM     21  C   UNL     1      -1.258  -2.828   1.199  0.00  0.00    +0.087 A 
ATOM     22  S   UNL     1      -1.332  -4.473   0.657  0.00  0.00    -0.069 S 
ATOM     23  C   UNL     1      -1.273  -2.101  -2.518  0.00  0.00    +0.046 C 
BRANCH  18  24
ATOM     24  C   UNL     1      -1.385  -5.131  -2.149  0.00  0.00    +0.170 C 
ATOM     25  O   UNL     1      -1.382  -4.758  -3.305  0.00  0.00    -0.292 OA
BRANCH  24  27
ATOM     26  C   UNL     1      -1.482  -7.404  -3.136  0.00  0.00    +0.012 C 
ATOM     27  C   UNL     1      -1.439  -6.604  -1.833  0.00  0.00    +0.077 C 
ENDBRANCH  24  27
ENDBRANCH  18  24
BRANCH  20  28
ATOM     28  C   UNL     1      -1.191  -0.632   0.010  0.00  0.00    +0.342 C 
ATOM     29  O   UNL     1      -2.219   0.016   0.023  0.00  0.00    -0.245 OA
BRANCH  28  30
ATOM     30  O   UNL     1       0.002  -0.004   0.002  0.00  0.00    -0.461 OA
BRANCH  30  31
ATOM     31  C   UNL     1      -0.018   1.448   0.010  0.00  0.00    +0.229 C 
ATOM     32  C   UNL     1       1.418   1.977  -0.001  0.00  0.00    +0.048 C 
ENDBRANCH  30  31
ENDBRANCH  28  30
ENDBRANCH  20  28
ENDBRANCH   1  21
TORSDOF 7
