REMARK  Name = ZINC20833562
REMARK  9 active torsions:
REMARK  status: ('A' for Active; 'I' for Inactive)
REMARK    1  A    between atoms: C_1  and  C_2
REMARK    2  A    between atoms: C_2  and  C_3
REMARK    3  A    between atoms: C_2  and  S_4
REMARK    4  A    between atoms: S_4  and  C_5
REMARK    5  A    between atoms: C_11  and  C_13
REMARK    6  A    between atoms: C_13  and  S_14
REMARK    7  A    between atoms: S_14  and  C_15
REMARK    8  A    between atoms: N_20  and  N_21
REMARK    9  A    between atoms: C_22  and  C_23
REMARK                            x       y       z     vdW  Elec       q    Type
REMARK                         _______ _______ _______ _____ _____    ______ ____
ROOT
ATOM      1  C   UNL     1      -0.641  -6.966  -0.028  0.00  0.00    +0.211 A 
ATOM      2  N   UNL     1      -1.515  -8.016  -0.025  0.00  0.00    -0.186 NA
ATOM      3  C   UNL     1      -0.786  -9.172  -0.039  0.00  0.00    +0.232 A 
ATOM      4  N   UNL     1       0.485  -8.850  -0.049  0.00  0.00    -0.245 N 
ATOM      5  N   UNL     1       0.577  -7.452  -0.048  0.00  0.00    -0.144 NA
ATOM      6  N   UNL     1      -1.300 -10.461  -0.041  0.00  0.00    -0.205 N 
ATOM      7  H   UNL     1      -2.389 -10.618  -0.032  0.00  0.00    +0.177 HD
ATOM      8  H   UNL     1       1.252  -9.638  -0.057  0.00  0.00    +0.192 HD
ENDROOT
BRANCH   6   9
ATOM      9  N   UNL     1      -0.433 -11.561  -0.055  0.00  0.00    -0.188 NA
ATOM     10  C   UNL     1      -0.915 -12.767  -0.058  0.00  0.00    +0.138 C 
BRANCH  10  11
ATOM     11  C   UNL     1      -0.003 -13.925  -0.073  0.00  0.00    -0.005 A 
ATOM     12  C   UNL     1       1.380 -13.729  -0.090  0.00  0.00    +0.011 A 
ATOM     13  C   UNL     1       2.228 -14.816  -0.099  0.00  0.00    +0.020 A 
ATOM     14  C   UNL     1       1.711 -16.101  -0.101  0.00  0.00    +0.041 A 
ATOM     15  C   UNL     1       0.341 -16.303  -0.089  0.00  0.00    +0.020 A 
ATOM     16  C   UNL     1      -0.518 -15.224  -0.076  0.00  0.00    +0.011 A 
ATOM     17 CL   UNL     1       2.785 -17.465  -0.119  0.00  0.00    -0.084 Cl
ENDBRANCH  10  11
ENDBRANCH   6   9
BRANCH   1  18
ATOM     18  S   UNL     1      -1.074  -5.258  -0.015  0.00  0.00    -0.075 S 
BRANCH  18  19
ATOM     19  C   UNL     1       0.524  -4.400  -0.026  0.00  0.00    +0.173 C 
BRANCH  19  26
ATOM     20  C   UNL     1       1.100   1.973   0.002  0.00  0.00    +0.160 A 
ATOM     21  N   UNL     1      -0.015   1.257   0.009  0.00  0.00    -0.133 NA
ATOM     22  N   UNL     1       0.002  -0.004   0.002  0.00  0.00    -0.125 NA
ATOM     23  C   UNL     1       1.133  -0.690  -0.013  0.00  0.00    +0.189 A 
ATOM     24  S   UNL     1       2.314   0.656  -0.017  0.00  0.00    -0.024 S 
ATOM     25  N   UNL     1       1.345  -2.067  -0.021  0.00  0.00    -0.263 N 
ATOM     26  C   UNL     1       0.294  -2.910  -0.016  0.00  0.00    +0.229 C 
ATOM     27  O   UNL     1      -0.836  -2.471  -0.003  0.00  0.00    -0.275 OA
ATOM     28  H   UNL     1       2.370  -2.465  -0.033  0.00  0.00    +0.157 HD
BRANCH  20  29
ATOM     29  S   UNL     1       1.324   3.720   0.009  0.00  0.00    -0.094 S 
BRANCH  29  31
ATOM     30  C   UNL     1      -0.317   5.903   0.161  0.00  0.00    +0.019 C 
ATOM     31  C   UNL     1      -0.365   4.380   0.028  0.00  0.00    +0.047 C 
ATOM     32  C   UNL     1      -1.075   4.004  -1.274  0.00  0.00    +0.019 C 
ENDBRANCH  29  31
ENDBRANCH  20  29
ENDBRANCH  19  26
ENDBRANCH  18  19
ENDBRANCH   1  18
TORSDOF 7
