REMARK  Name = ZINC12905273
REMARK  6 active torsions:
REMARK  status: ('A' for Active; 'I' for Inactive)
REMARK    1  A    between atoms: C_1  and  C_2
REMARK    2  A    between atoms: C_2  and  C_4
REMARK    3  A    between atoms: C_2  and  O_18
REMARK    4  A    between atoms: N_6  and  C_7
REMARK    5  A    between atoms: O_18  and  C_19
REMARK    6  A    between atoms: C_22  and  C_25
REMARK                            x       y       z     vdW  Elec       q    Type
REMARK                         _______ _______ _______ _____ _____    ______ ____
ROOT
ATOM      1  C   UNL     1       1.268   1.918  -0.112  0.00  0.00    +0.258 C 
ATOM      2  O   UNL     1       1.410   2.944  -0.743  0.00  0.00    -0.271 OA
ATOM      3  N   UNL     1       2.256   1.479   0.692  0.00  0.00    -0.282 N 
ATOM      4  H   UNL     1       2.178   0.618   1.131  0.00  0.00    +0.155 HD
ENDROOT
BRANCH   3   5
ATOM      5  C   UNL     1       3.397   2.267   0.894  0.00  0.00    +0.037 A 
ATOM      6  C   UNL     1       3.292   3.651   0.908  0.00  0.00    +0.027 A 
ATOM      7  C   UNL     1       4.416   4.429   1.107  0.00  0.00    +0.051 A 
ATOM      8  C   UNL     1       5.652   3.831   1.293  0.00  0.00    +0.173 A 
ATOM      9  C   UNL     1       5.761   2.442   1.280  0.00  0.00    +0.174 A 
ATOM     10  C   UNL     1       4.632   1.663   1.086  0.00  0.00    +0.073 A 
ATOM     11  O   UNL     1       7.068   2.105   1.484  0.00  0.00    -0.395 OA
ATOM     12  C   UNL     1       7.689   3.284   2.028  0.00  0.00    +0.589 C 
ATOM     13  O   UNL     1       6.891   4.363   1.505  0.00  0.00    -0.395 OA
ATOM     14  F   UNL     1       7.636   3.267   3.426  0.00  0.00    -0.125 F 
ATOM     15  F   UNL     1       9.013   3.390   1.589  0.00  0.00    -0.125 F 
ENDBRANCH   3   5
BRANCH   1  17
ATOM     16  C   UNL     1      -0.737   1.136   1.119  0.00  0.00    +0.062 C 
ATOM     17  C   UNL     1      -0.013   1.133  -0.229  0.00  0.00    +0.256 C 
BRANCH  17  18
ATOM     18  O   UNL     1      -0.850   1.732  -1.220  0.00  0.00    -0.480 OA
BRANCH  18  19
ATOM     19  C   UNL     1      -1.764   0.929  -1.822  0.00  0.00    +0.122 A 
ATOM     20  C   UNL     1      -1.928  -0.381  -1.389  0.00  0.00    +0.047 A 
ATOM     21  C   UNL     1      -2.858  -1.197  -1.993  0.00  0.00    +0.022 A 
ATOM     22  C   UNL     1      -3.630  -0.710  -3.051  0.00  0.00    +0.052 A 
ATOM     23  C   UNL     1      -3.459   0.607  -3.487  0.00  0.00    +0.022 A 
ATOM     24  C   UNL     1      -2.530   1.418  -2.874  0.00  0.00    +0.047 A 
BRANCH  22  25
ATOM     25  C   UNL     1      -4.594  -1.557  -3.686  0.00  0.00    +0.099 C 
ATOM     26  N   UNL     1      -5.359  -2.229  -4.190  0.00  0.00    -0.191 NA
ENDBRANCH  22  25
ENDBRANCH  18  19
ENDBRANCH  17  18
ENDBRANCH   1  17
TORSDOF 5
