REMARK  Name = ZINC08633194
REMARK  11 active torsions:
REMARK  status: ('A' for Active; 'I' for Inactive)
REMARK    1  A    between atoms: C_1  and  C_2
REMARK    2  A    between atoms: N_13  and  C_31
REMARK    3  A    between atoms: C_14  and  S_16
REMARK    4  A    between atoms: S_16  and  C_17
REMARK    5  A    between atoms: C_17  and  C_18
REMARK    6  A    between atoms: N_20  and  C_21
REMARK    7  A    between atoms: C_23  and  O_29
REMARK    8  A    between atoms: C_26  and  O_27
REMARK    9  A    between atoms: O_27  and  C_28
REMARK   10  A    between atoms: O_29  and  C_30
REMARK   11  A    between atoms: C_31  and  C_32
REMARK                            x       y       z     vdW  Elec       q    Type
REMARK                         _______ _______ _______ _____ _____    ______ ____
ROOT
ATOM      1  C   UNL     1       3.961  -1.618   8.765  0.00  0.00    +0.008 C 
ATOM      2  C   UNL     1       3.744  -1.798   7.261  0.00  0.00    -0.009 C 
ATOM      3  C   UNL     1       3.046  -0.562   6.688  0.00  0.00    +0.008 C 
ATOM      4  C   UNL     1       3.049  -0.625   5.160  0.00  0.00    +0.037 C 
ATOM      5  C   UNL     1       2.472  -1.968   4.722  0.00  0.00    -0.023 A 
ATOM      6  C   UNL     1       2.408  -3.004   5.583  0.00  0.00    -0.004 A 
ATOM      7  S   UNL     1       1.682  -4.329   4.655  0.00  0.00    -0.073 S 
ATOM      8  C   UNL     1       1.466  -3.485   3.109  0.00  0.00    +0.117 A 
ATOM      9  C   UNL     1       1.968  -2.198   3.367  0.00  0.00    +0.076 A 
ATOM     10  C   UNL     1       1.925  -1.280   2.270  0.00  0.00    +0.263 A 
ATOM     11  O   UNL     1       2.343  -0.142   2.399  0.00  0.00    -0.267 OA
ATOM     12  N   UNL     1       1.412  -1.689   1.095  0.00  0.00    -0.283 N 
ATOM     13  C   UNL     1       0.945  -2.961   0.930  0.00  0.00    +0.173 A 
ATOM     14  N   UNL     1       0.978  -3.827   1.923  0.00  0.00    -0.216 NA
ATOM     15  C   UNL     1       2.854  -3.025   7.013  0.00  0.00    +0.046 C 
ENDROOT
BRANCH  13  16
ATOM     16  S   UNL     1       0.289  -3.450  -0.630  0.00  0.00    -0.078 S 
BRANCH  16  17
ATOM     17  C   UNL     1      -0.153  -5.166  -0.261  0.00  0.00    +0.173 C 
BRANCH  17  18
ATOM     18  C   UNL     1      -0.751  -5.806  -1.487  0.00  0.00    +0.228 C 
ATOM     19  O   UNL     1      -0.868  -5.165  -2.510  0.00  0.00    -0.275 OA
ATOM     20  N   UNL     1      -1.157  -7.091  -1.446  0.00  0.00    -0.282 N 
ATOM     21  H   UNL     1      -1.005  -7.623  -0.650  0.00  0.00    +0.155 HD
BRANCH  20  22
ATOM     22  C   UNL     1      -1.799  -7.658  -2.555  0.00  0.00    +0.079 A 
ATOM     23  C   UNL     1      -1.430  -7.282  -3.839  0.00  0.00    +0.072 A 
ATOM     24  C   UNL     1      -2.067  -7.844  -4.934  0.00  0.00    +0.122 A 
ATOM     25  C   UNL     1      -3.071  -8.783  -4.748  0.00  0.00    +0.049 A 
ATOM     26  C   UNL     1      -3.440  -9.159  -3.470  0.00  0.00    +0.051 A 
ATOM     27  C   UNL     1      -2.803  -8.605  -2.372  0.00  0.00    +0.141 A 
BRANCH  27  28
ATOM     28  O   UNL     1      -3.163  -8.980  -1.115  0.00  0.00    -0.493 OA
ATOM     29  C   UNL     1      -4.201  -9.956  -1.001  0.00  0.00    +0.277 C 
ENDBRANCH  27  28
BRANCH  24  30
ATOM     30  O   UNL     1      -1.706  -7.476  -6.192  0.00  0.00    -0.495 OA
ATOM     31  C   UNL     1      -2.404  -8.096  -7.275  0.00  0.00    +0.277 C 
ENDBRANCH  24  30
ENDBRANCH  20  22
ENDBRANCH  17  18
ENDBRANCH  16  17
ENDBRANCH  13  16
BRANCH  12  32
ATOM     32  C   UNL     1       1.359  -0.753  -0.031  0.00  0.00    +0.154 C 
BRANCH  32  33
ATOM     33  C   UNL     1       0.048  -0.010  -0.006  0.00  0.00    -0.013 C 
ATOM     34  C   UNL     1       0.037   1.300   0.002  0.00  0.00    +0.005 C 
ENDBRANCH  32  33
ENDBRANCH  12  32
TORSDOF 8
