REMARK  Name = ZINC00139618
REMARK  8 active torsions:
REMARK  status: ('A' for Active; 'I' for Inactive)
REMARK    1  A    between atoms: C_1  and  C_2
REMARK    2  A    between atoms: C_2  and  C_3
REMARK    3  A    between atoms: C_2  and  C_4
REMARK    4  A    between atoms: C_2  and  C_5
REMARK    5  A    between atoms: C_6  and  C_23
REMARK    6  A    between atoms: C_7  and  C_15
REMARK    7  A    between atoms: C_9  and  C_13
REMARK    8  A    between atoms: C_10  and  N_12
REMARK                            x       y       z     vdW  Elec       q    Type
REMARK                         _______ _______ _______ _____ _____    ______ ____
ROOT
ATOM      1  C   UNL     1      -2.087   3.718  -0.145  0.00  0.00    +0.127 C 
ATOM      2  C   UNL     1      -3.191   2.975  -0.018  0.00  0.00    +0.080 C 
ATOM      3  C   UNL     1      -3.134   1.588   0.562  0.00  0.00    +0.111 C 
ATOM      4  C   UNL     1      -1.715   1.089   0.564  0.00  0.00    +0.099 C 
ATOM      5  C   UNL     1      -0.678   1.947   0.402  0.00  0.00    +0.198 C 
ATOM      6  O   UNL     1      -0.878   3.268   0.239  0.00  0.00    -0.444 OA
ENDROOT
BRANCH   3   7
ATOM      7  C   UNL     1      -3.655   1.618   1.976  0.00  0.00    +0.003 A 
ATOM      8  C   UNL     1      -3.023   2.394   2.931  0.00  0.00    +0.046 A 
ATOM      9  C   UNL     1      -3.505   2.425   4.227  0.00  0.00    +0.020 A 
ATOM     10  C   UNL     1      -4.612   1.672   4.572  0.00  0.00    +0.003 A 
ATOM     11  C   UNL     1      -5.241   0.892   3.620  0.00  0.00    +0.020 A 
ATOM     12  C   UNL     1      -4.763   0.864   2.321  0.00  0.00    +0.046 A 
ATOM     13 CL   UNL     1      -5.553  -0.116   1.126  0.00  0.00    -0.083 Cl
ATOM     14 CL   UNL     1      -1.629   3.335   2.500  0.00  0.00    -0.083 Cl
ENDBRANCH   3   7
BRANCH   1  16
ATOM     15  C   UNL     1      -3.148   5.942   0.125  0.00  0.00    +0.019 C 
ATOM     16  C   UNL     1      -2.200   5.101  -0.732  0.00  0.00    +0.021 C 
ATOM     17  C   UNL     1      -0.819   5.759  -0.759  0.00  0.00    +0.019 C 
ATOM     18  C   UNL     1      -2.748   5.008  -2.157  0.00  0.00    +0.019 C 
ENDBRANCH   1  16
BRANCH   5  19
ATOM     19  N   UNL     1       0.605   1.459   0.409  0.00  0.00    -0.328 N 
ATOM     20  H   UNL     1       0.762   0.509   0.529  0.00  0.00    +0.145 HD
ATOM     21  H   UNL     1       1.355   2.062   0.290  0.00  0.00    +0.145 HD
ENDBRANCH   5  19
BRANCH   4  22
ATOM     22  C   UNL     1      -1.456  -0.308   0.739  0.00  0.00    +0.101 C 
ATOM     23  N   UNL     1      -1.251  -1.417   0.878  0.00  0.00    -0.191 NA
ENDBRANCH   4  22
BRANCH   2  24
ATOM     24  C   UNL     1      -4.451   3.509  -0.440  0.00  0.00    +0.099 C 
ATOM     25  N   UNL     1      -5.450   3.933  -0.775  0.00  0.00    -0.191 NA
ENDBRANCH   2  24
TORSDOF 5
