REMARK  Name = ZINC02108457
REMARK  9 active torsions:
REMARK  status: ('A' for Active; 'I' for Inactive)
REMARK    1  A    between atoms: C_1  and  C_2
REMARK    2  A    between atoms: C_2  and  C_4
REMARK    3  A    between atoms: C_2  and  N_12
REMARK    4  A    between atoms: C_4  and  C_5
REMARK    5  A    between atoms: C_5  and  C_6
REMARK    6  A    between atoms: C_13  and  C_15
REMARK    7  A    between atoms: C_15  and  C_17
REMARK    8  A    between atoms: C_15  and  N_18
REMARK    9  A    between atoms: C_21  and  C_37
REMARK                            x       y       z     vdW  Elec       q    Type
REMARK                         _______ _______ _______ _____ _____    ______ ____
ROOT
ATOM      1  N   UNL     1      -0.150  -1.201   4.706  0.00  0.00    -0.212 N 
ATOM      2  C   UNL     1       0.001  -0.508   5.857  0.00  0.00    +0.253 C 
ATOM      3  O   UNL     1       0.862   0.305   6.116  0.00  0.00    -0.272 OA
ATOM      4  C   UNL     1      -1.128  -0.960   6.751  0.00  0.00    +0.153 C 
ATOM      5  C   UNL     1      -1.988   0.201   7.189  0.00  0.00    +0.053 A 
ATOM      6  C   UNL     1      -3.325   0.243   6.987  0.00  0.00    -0.015 A 
ATOM      7  C   UNL     1      -3.790   1.496   7.556  0.00  0.00    +0.003 A 
ATOM      8  C   UNL     1      -5.059   2.074   7.654  0.00  0.00    +0.010 A 
ATOM      9  C   UNL     1      -5.136   3.301   8.266  0.00  0.00    +0.001 A 
ATOM     10  C   UNL     1      -4.016   3.944   8.768  0.00  0.00    +0.002 A 
ATOM     11  C   UNL     1      -2.749   3.394   8.686  0.00  0.00    +0.026 A 
ATOM     12  C   UNL     1      -2.641   2.149   8.070  0.00  0.00    +0.047 A 
ATOM     13  N   UNL     1      -1.571   1.337   7.827  0.00  0.00    -0.356 N 
ATOM     14  H   UNL     1      -0.653   1.535   8.071  0.00  0.00    +0.166 HD
ATOM     15  C   UNL     1      -4.157  -0.801   6.287  0.00  0.00    +0.056 C 
ATOM     16  C   UNL     1      -3.362  -2.108   6.145  0.00  0.00    +0.115 C 
ATOM     17  N   UNL     1      -1.977  -1.754   5.831  0.00  0.00    -0.266 N 
ATOM     18  C   UNL     1      -1.261  -1.955   4.725  0.00  0.00    +0.313 C 
ATOM     19  O   UNL     1      -1.574  -2.729   3.842  0.00  0.00    -0.252 OA
ATOM     20  C   UNL     1      -0.625  -1.790   7.934  0.00  0.00    +0.048 C 
ENDROOT
BRANCH   1  21
ATOM     21  C   UNL     1       0.780  -1.133   3.576  0.00  0.00    +0.168 C 
ATOM     22  C   UNL     1       1.347  -2.526   3.298  0.00  0.00    +0.038 C 
BRANCH  21  24
ATOM     23  N   UNL     1       0.711  -0.489   1.189  0.00  0.00    -0.311 N 
ATOM     24  C   UNL     1       0.051  -0.633   2.355  0.00  0.00    +0.234 C 
ATOM     25  O   UNL     1      -1.129  -0.361   2.423  0.00  0.00    -0.274 OA
ATOM     26  H   UNL     1       1.654  -0.707   1.135  0.00  0.00    +0.149 HD
BRANCH  23  28
ATOM     27  C   UNL     1      -0.019   1.526   0.010  0.00  0.00    +0.028 C 
ATOM     28  C   UNL     1       0.002  -0.004   0.002  0.00  0.00    +0.070 C 
BRANCH  28  29
ATOM     29  C   UNL     1       0.718  -0.497  -1.257  0.00  0.00    +0.026 C 
BRANCH  29  30
ATOM     30  C   UNL     1       0.630  -2.023  -1.329  0.00  0.00    +0.037 C 
BRANCH  30  31
ATOM     31  C   UNL     1       1.336  -2.509  -2.568  0.00  0.00    -0.047 A 
ATOM     32  C   UNL     1       0.638  -2.639  -3.755  0.00  0.00    +0.003 A 
ATOM     33  C   UNL     1       1.285  -3.085  -4.892  0.00  0.00    +0.000 A 
ATOM     34  C   UNL     1       2.630  -3.400  -4.843  0.00  0.00    +0.000 A 
ATOM     35  C   UNL     1       3.328  -3.270  -3.657  0.00  0.00    +0.000 A 
ATOM     36  C   UNL     1       2.682  -2.820  -2.521  0.00  0.00    +0.003 A 
ENDBRANCH  30  31
ENDBRANCH  29  30
ENDBRANCH  28  29
ENDBRANCH  23  28
ENDBRANCH  21  24
ENDBRANCH   1  21
TORSDOF 6
