REMARK  Name = ZINC50157202
REMARK  8 active torsions:
REMARK  status: ('A' for Active; 'I' for Inactive)
REMARK    1  A    between atoms: C_1  and  C_2
REMARK    2  A    between atoms: C_2  and  C_4
REMARK    3  A    between atoms: C_2  and  N_10
REMARK    4  A    between atoms: C_4  and  C_5
REMARK    5  A    between atoms: N_13  and  C_14
REMARK    6  A    between atoms: N_13  and  C_15
REMARK    7  A    between atoms: C_15  and  C_16
REMARK    8  A    between atoms: C_20  and  C_22
REMARK                            x       y       z     vdW  Elec       q    Type
REMARK                         _______ _______ _______ _____ _____    ______ ____
ROOT
ATOM      1  N   UNL     1       0.711  -0.489   1.189  0.00  0.00    -0.296 N 
ATOM      2  C   UNL     1       2.054  -0.600   1.174  0.00  0.00    +0.302 C 
ATOM      3  O   UNL     1       2.677  -0.297   0.175  0.00  0.00    -0.253 OA
ATOM      4  N   UNL     1       2.706  -1.046   2.266  0.00  0.00    -0.284 N 
ATOM      5  C   UNL     1       1.954  -1.411   3.469  0.00  0.00    +0.134 C 
ATOM      6  H   UNL     1       0.213  -0.731   1.986  0.00  0.00    +0.151 HD
ENDROOT
BRANCH   1   8
ATOM      7  C   UNL     1      -0.019   1.526   0.010  0.00  0.00    +0.028 C 
ATOM      8  C   UNL     1       0.002  -0.004   0.002  0.00  0.00    +0.076 C 
BRANCH   8   9
ATOM      9  C   UNL     1      -1.433  -0.534   0.013  0.00  0.00    +0.057 C 
BRANCH   9  10
ATOM     10  C   UNL     1      -1.416  -2.035  -0.119  0.00  0.00    -0.039 A 
ATOM     11  C   UNL     1      -1.450  -2.630  -1.366  0.00  0.00    +0.011 A 
ATOM     12  C   UNL     1      -1.433  -3.982  -1.450  0.00  0.00    +0.045 A 
ATOM     13  S   UNL     1      -1.367  -4.458   0.269  0.00  0.00    -0.105 S 
ATOM     14  C   UNL     1      -1.361  -2.822   0.983  0.00  0.00    +0.049 A 
ENDBRANCH   9  10
ENDBRANCH   8   9
ENDBRANCH   1   8
BRANCH   4  15
ATOM     15  C   UNL     1       4.166  -1.166   2.249  0.00  0.00    +0.144 C 
BRANCH  15  16
ATOM     16  C   UNL     1       4.781   0.126   2.720  0.00  0.00    -0.029 A 
ATOM     17  C   UNL     1       5.078   1.122   1.807  0.00  0.00    +0.005 A 
ATOM     18  C   UNL     1       5.643   2.312   2.231  0.00  0.00    +0.001 A 
ATOM     19  C   UNL     1       5.914   2.512   3.569  0.00  0.00    +0.013 A 
ATOM     20  C   UNL     1       5.617   1.511   4.495  0.00  0.00    +0.037 A 
ATOM     21  C   UNL     1       5.042   0.316   4.061  0.00  0.00    +0.018 A 
BRANCH  20  22
ATOM     22  C   UNL     1       5.906   1.719   5.930  0.00  0.00    +0.242 C 
ATOM     23  O   UNL     1       5.646   0.845   6.735  0.00  0.00    -0.270 OA
ATOM     24  N   UNL     1       6.457   2.876   6.346  0.00  0.00    -0.325 N 
ATOM     25  H   UNL     1       6.664   3.573   5.704  0.00  0.00    +0.145 HD
ATOM     26  H   UNL     1       6.646   3.012   7.288  0.00  0.00    +0.145 HD
ENDBRANCH  20  22
ENDBRANCH  15  16
ENDBRANCH   4  15
TORSDOF 6
