REMARK  Name = ZINC58213398
REMARK  6 active torsions:
REMARK  status: ('A' for Active; 'I' for Inactive)
REMARK    1  A    between atoms: C_1  and  C_2
REMARK    2  A    between atoms: C_5  and  N_9
REMARK    3  A    between atoms: C_6  and  C_8
REMARK    4  A    between atoms: C_13  and  S_14
REMARK    5  A    between atoms: S_14  and  C_15
REMARK    6  A    between atoms: C_15  and  C_16
REMARK                            x       y       z     vdW  Elec       q    Type
REMARK                         _______ _______ _______ _____ _____    ______ ____
ROOT
ATOM      1  S   UNL     1      -2.447  -4.490   1.163  0.00  0.00    -0.081 S 
ENDROOT
BRANCH   1   6
ATOM      2  N   UNL     1       0.058  -4.172  -0.021  0.00  0.00    -0.294 N 
ATOM      3  C   UNL     1       1.073  -4.977  -0.493  0.00  0.00    +0.113 A 
ATOM      4  C   UNL     1       0.681  -6.250  -0.310  0.00  0.00    +0.131 A 
ATOM      5  N   UNL     1      -0.537  -6.241   0.257  0.00  0.00    -0.230 NA
ATOM      6  C   UNL     1      -0.922  -5.000   0.443  0.00  0.00    +0.174 A 
BRANCH   2  11
ATOM      7  C   UNL     1      -0.018   1.503   0.010  0.00  0.00    +0.044 C 
ATOM      8  C   UNL     1       0.002  -0.004   0.002  0.00  0.00    -0.050 A 
ATOM      9  C   UNL     1       0.006  -0.688  -1.200  0.00  0.00    +0.005 A 
ATOM     10  C   UNL     1       0.024  -2.068  -1.211  0.00  0.00    +0.027 A 
ATOM     11  C   UNL     1       0.040  -2.771  -0.013  0.00  0.00    +0.051 A 
ATOM     12  C   UNL     1       0.036  -2.082   1.192  0.00  0.00    -0.026 A 
ATOM     13  C   UNL     1       0.023  -0.700   1.196  0.00  0.00    +0.008 A 
ATOM     14  C   UNL     1       0.052  -2.840   2.494  0.00  0.00    +0.046 C 
ENDBRANCH   2  11
ENDBRANCH   1   6
BRANCH   1  15
ATOM     15  C   UNL     1      -3.287  -6.048   1.561  0.00  0.00    +0.133 C 
BRANCH  15  16
ATOM     16  C   UNL     1      -4.623  -5.751   2.192  0.00  0.00    +0.061 A 
ATOM     17  C   UNL     1      -5.449  -6.800   2.590  0.00  0.00    +0.096 A 
ATOM     18  C   UNL     1      -6.660  -6.516   3.162  0.00  0.00    +0.276 A 
ATOM     19  O   UNL     1      -7.484  -7.512   3.558  0.00  0.00    -0.266 OA
ATOM     20  N   UNL     1      -7.021  -5.213   3.325  0.00  0.00    -0.158 N 
ATOM     21  C   UNL     1      -6.183  -4.211   2.923  0.00  0.00    +0.258 A 
ATOM     22  N   UNL     1      -5.000  -4.502   2.370  0.00  0.00    -0.214 NA
ATOM     23  N   UNL     1      -6.783  -3.058   3.200  0.00  0.00    -0.176 NA
ATOM     24  C   UNL     1      -7.967  -3.292   3.761  0.00  0.00    +0.234 A 
ATOM     25  N   UNL     1      -8.157  -4.591   3.859  0.00  0.00    -0.125 NA
ATOM     26  N   UNL     1      -8.865  -2.314   4.181  0.00  0.00    -0.326 N 
ATOM     27  H   UNL     1      -8.646  -1.375   4.072  0.00  0.00    +0.145 HD
ATOM     28  H   UNL     1      -9.710  -2.571   4.583  0.00  0.00    +0.145 HD
ENDBRANCH  15  16
ENDBRANCH   1  15
TORSDOF 4
