REMARK  Name = ZINC46791567
REMARK  8 active torsions:
REMARK  status: ('A' for Active; 'I' for Inactive)
REMARK    1  A    between atoms: C_1  and  C_2
REMARK    2  A    between atoms: C_7  and  C_10
REMARK    3  A    between atoms: C_14  and  C_17
REMARK    4  A    between atoms: C_17  and  N_18
REMARK    5  A    between atoms: C_19  and  C_21
REMARK    6  A    between atoms: C_21  and  N_22
REMARK    7  A    between atoms: C_23  and  C_25
REMARK    8  A    between atoms: C_28  and  C_31
REMARK                            x       y       z     vdW  Elec       q    Type
REMARK                         _______ _______ _______ _____ _____    ______ ____
ROOT
ATOM      1  N   UNL     1       4.638   3.978  -5.162  0.00  0.00    -0.310 N 
ATOM      2  C   UNL     1       5.221   4.826  -6.033  0.00  0.00    +0.230 C 
ATOM      3  O   UNL     1       5.915   4.392  -6.929  0.00  0.00    -0.274 OA
ATOM      4  H   UNL     1       4.083   4.325  -4.446  0.00  0.00    +0.149 HD
ENDROOT
BRANCH   1   5
ATOM      5  C   UNL     1       4.841   2.534  -5.298  0.00  0.00    +0.141 C 
BRANCH   5  17
ATOM      6  C   UNL     1       0.016   1.546   0.045  0.00  0.00    +0.039 C 
ATOM      7  C   UNL     1       0.015   0.016   0.022  0.00  0.00    +0.133 C 
ATOM      8  C   UNL     1       0.716  -0.478  -1.248  0.00  0.00    +0.137 C 
ATOM      9  N   UNL     1       2.143  -0.135  -1.154  0.00  0.00    -0.312 N 
ATOM     10  C   UNL     1       2.865  -0.509   0.072  0.00  0.00    +0.137 C 
ATOM     11  C   UNL     1       2.060  -0.013   1.279  0.00  0.00    +0.133 C 
ATOM     12  O   UNL     1       0.711  -0.479   1.169  0.00  0.00    -0.371 OA
ATOM     13  C   UNL     1       2.684  -0.553   2.567  0.00  0.00    +0.039 C 
ATOM     14  C   UNL     1       2.791   0.524  -2.193  0.00  0.00    +0.099 A 
ATOM     15  C   UNL     1       2.117   0.757  -3.387  0.00  0.00    +0.042 A 
ATOM     16  C   UNL     1       2.773   1.413  -4.413  0.00  0.00    +0.010 A 
ATOM     17  C   UNL     1       4.087   1.816  -4.208  0.00  0.00    -0.014 A 
ATOM     18  C   UNL     1       4.694   1.552  -2.997  0.00  0.00    +0.089 A 
ATOM     19  N   UNL     1       4.042   0.928  -2.034  0.00  0.00    -0.349 N 
ATOM     20  H   UNL     1       4.491   0.759  -1.192  0.00  0.00    +0.167 HD
ENDBRANCH   5  17
ENDBRANCH   1   5
BRANCH   2  21
ATOM     21  C   UNL     1       5.012   6.311  -5.894  0.00  0.00    +0.200 C 
BRANCH  21  22
ATOM     22  N   UNL     1       5.745   7.009  -6.953  0.00  0.00    -0.303 N 
ATOM     23  C   UNL     1       5.704   8.354  -7.027  0.00  0.00    +0.244 C 
ATOM     24  O   UNL     1       5.059   8.989  -6.215  0.00  0.00    -0.270 OA
ATOM     25  H   UNL     1       6.261   6.503  -7.600  0.00  0.00    +0.150 HD
BRANCH  23  26
ATOM     26  C   UNL     1       6.444   9.059  -8.096  0.00  0.00    +0.037 A 
ATOM     27  C   UNL     1       7.182   8.333  -9.033  0.00  0.00    +0.013 A 
ATOM     28  C   UNL     1       7.870   8.996 -10.028  0.00  0.00    +0.013 A 
ATOM     29  C   UNL     1       7.830  10.378 -10.098  0.00  0.00    +0.055 A 
ATOM     30  C   UNL     1       7.101  11.103  -9.172  0.00  0.00    +0.013 A 
ATOM     31  C   UNL     1       6.404  10.451  -8.175  0.00  0.00    +0.013 A 
BRANCH  29  32
ATOM     32  C   UNL     1       8.585  11.095 -11.187  0.00  0.00    +0.417 C 
ATOM     33  F   UNL     1       7.757  11.248 -12.305  0.00  0.00    -0.166 F 
ATOM     34  F   UNL     1       8.982  12.355 -10.727  0.00  0.00    -0.166 F 
ATOM     35  F   UNL     1       9.714  10.350 -11.541  0.00  0.00    -0.166 F 
ENDBRANCH  29  32
ENDBRANCH  23  26
ENDBRANCH  21  22
ENDBRANCH   2  21
TORSDOF 6
