REMARK  Name = ZINC13426745
REMARK  3 active torsions:
REMARK  status: ('A' for Active; 'I' for Inactive)
REMARK    1  A    between atoms: C_3  and  C_14
REMARK    2  A    between atoms: C_5  and  C_6
REMARK    3  A    between atoms: C_17  and  N_21
REMARK                            x       y       z     vdW  Elec       q    Type
REMARK                         _______ _______ _______ _____ _____    ______ ____
ROOT
ATOM      1  C   UNL     1      -0.018   1.463   0.010  0.00  0.00    +0.050 A 
ATOM      2  C   UNL     1       1.278   1.870  -0.000  0.00  0.00    +0.050 A 
ATOM      3  C   UNL     1       2.101   0.662  -0.014  0.00  0.00    +0.138 A 
ATOM      4  O   UNL     1       1.288  -0.410  -0.012  0.00  0.00    -0.455 OA
ATOM      5  C   UNL     1       0.002  -0.004   0.002  0.00  0.00    +0.130 A 
ENDROOT
BRANCH   5   6
ATOM      6  C   UNL     1      -1.114  -0.834   0.009  0.00  0.00    +0.066 C 
ATOM      7  C   UNL     1      -0.953  -2.221  -0.000  0.00  0.00    +0.082 C 
ATOM      8  C   UNL     1      -2.000  -3.294  -0.002  0.00  0.00    +0.276 C 
ATOM      9  O   UNL     1      -3.188  -3.038   0.005  0.00  0.00    -0.267 OA
ATOM     10  N   UNL     1      -1.550  -4.532  -0.012  0.00  0.00    -0.155 NA
ATOM     11  C   UNL     1      -0.246  -4.757  -0.020  0.00  0.00    +0.149 C 
ATOM     12  S   UNL     1       0.468  -3.124  -0.020  0.00  0.00    -0.052 S 
ATOM     13  N   UNL     1       0.398  -5.955  -0.030  0.00  0.00    -0.339 N 
ATOM     14  H   UNL     1      -0.111  -6.780  -0.033  0.00  0.00    +0.144 HD
ATOM     15  H   UNL     1       1.368  -5.983  -0.035  0.00  0.00    +0.144 HD
ENDBRANCH   5   6
BRANCH   3  16
ATOM     16  C   UNL     1       3.515   0.625  -0.029  0.00  0.00    +0.045 A 
ATOM     17  C   UNL     1       4.229   1.133  -1.135  0.00  0.00    +0.032 A 
ATOM     18  C   UNL     1       5.604   1.092  -1.136  0.00  0.00    +0.048 A 
ATOM     19  C   UNL     1       6.289   0.554  -0.057  0.00  0.00    +0.128 A 
ATOM     20  C   UNL     1       5.600   0.051   1.037  0.00  0.00    +0.048 A 
ATOM     21  C   UNL     1       4.224   0.087   1.066  0.00  0.00    +0.032 A 
ATOM     22 BR   UNL     1       3.288  -0.592   2.562  0.00  0.00    -0.049 Br
ATOM     23 BR   UNL     1       3.299   1.866  -2.609  0.00  0.00    -0.049 Br
BRANCH  19  24
ATOM     24  N   UNL     1       7.770   0.516  -0.071  0.00  0.00    +0.056 N 
ATOM     25  O   UNL     1       8.430   0.991  -1.107  0.00  0.00    -0.126 OA
ATOM     26  O   UNL     1       8.425   0.006   0.951  0.00  0.00    -0.126 OA
ENDBRANCH  19  24
ENDBRANCH   3  16
TORSDOF 3
