REMARK  Name = ZINC39693342
REMARK  9 active torsions:
REMARK  status: ('A' for Active; 'I' for Inactive)
REMARK    1  A    between atoms: C_1  and  C_2
REMARK    2  A    between atoms: C_6  and  C_8
REMARK    3  A    between atoms: C_8  and  C_9
REMARK    4  A    between atoms: C_13  and  C_22
REMARK    5  A    between atoms: N_24  and  C_25
REMARK    6  A    between atoms: C_25  and  C_26
REMARK    7  A    between atoms: C_26  and  N_27
REMARK    8  A    between atoms: C_28  and  C_30
REMARK    9  A    between atoms: C_30  and  C_31
REMARK                            x       y       z     vdW  Elec       q    Type
REMARK                         _______ _______ _______ _____ _____    ______ ____
ROOT
ATOM      1  C   UNL     1       1.640  -3.057   2.948  0.00  0.00    +0.220 C 
ATOM      2  O   UNL     1       2.572  -2.707   2.256  0.00  0.00    -0.275 OA
ATOM      3  N   UNL     1       1.865  -3.756   4.078  0.00  0.00    -0.300 N 
ATOM      4  C   UNL     1       0.864  -4.273   5.041  0.00  0.00    +0.121 C 
ATOM      5  C   UNL     1       1.397  -5.665   5.449  0.00  0.00    +0.100 C 
ATOM      6  C   UNL     1       2.911  -5.598   5.185  0.00  0.00    -0.004 C 
ATOM      7  C   UNL     1       3.169  -4.188   4.636  0.00  0.00    +0.115 C 
ATOM      8  C   UNL     1       3.313  -6.643   4.149  0.00  0.00    -0.010 C 
ATOM      9  C   UNL     1       4.830  -6.596   3.945  0.00  0.00    -0.082 C 
ATOM     10  N   UNL     1       5.505  -6.858   5.222  0.00  0.00    +0.379 N 
ATOM     11  C   UNL     1       5.186  -5.797   6.184  0.00  0.00    -0.082 C 
ATOM     12  C   UNL     1       3.684  -5.811   6.483  0.00  0.00    -0.010 C 
ATOM     13  H   UNL     1       5.196  -7.747   5.588  0.00  0.00    -0.086 HD
ATOM     14  H   UNL     1       6.503  -6.887   5.073  0.00  0.00    -0.086 HD
ENDROOT
BRANCH   5  15
ATOM     15  C   UNL     1       1.128  -5.922   6.910  0.00  0.00    +0.218 C 
ATOM     16  O   UNL     1       1.099  -4.996   7.693  0.00  0.00    -0.275 OA
ATOM     17  N   UNL     1       0.920  -7.180   7.345  0.00  0.00    -0.314 N 
ATOM     18  H   UNL     1       0.943  -7.920   6.719  0.00  0.00    +0.149 HD
BRANCH  17  19
ATOM     19  C   UNL     1       0.658  -7.430   8.765  0.00  0.00    +0.123 C 
BRANCH  19  20
ATOM     20  C   UNL     1       0.458  -8.930   8.990  0.00  0.00    +0.123 C 
BRANCH  20  21
ATOM     21  N   UNL     1       0.197  -9.180  10.410  0.00  0.00    -0.314 N 
ATOM     22  C   UNL     1      -0.012 -10.438  10.845  0.00  0.00    +0.217 C 
ATOM     23  O   UNL     1       0.017 -11.364  10.062  0.00  0.00    -0.275 OA
ATOM     24  H   UNL     1       0.173  -8.440  11.036  0.00  0.00    +0.149 HD
BRANCH  22  25
ATOM     25  C   UNL     1      -0.281 -10.696  12.306  0.00  0.00    +0.131 C 
BRANCH  25  26
ATOM     26  C   UNL     1      -0.478 -12.173  12.527  0.00  0.00    -0.031 A 
ATOM     27  C   UNL     1      -1.732 -12.703  12.533  0.00  0.00    +0.005 A 
ATOM     28  C   UNL     1      -1.934 -14.067  12.736  0.00  0.00    +0.001 A 
ATOM     29  C   UNL     1      -0.883 -14.908  12.936  0.00  0.00    +0.008 A 
ATOM     30  C   UNL     1       0.426 -14.398  12.938  0.00  0.00    -0.018 A 
ATOM     31  C   UNL     1       0.632 -13.012  12.724  0.00  0.00    -0.014 A 
ATOM     32  C   UNL     1       1.942 -12.502  12.720  0.00  0.00    +0.009 A 
ATOM     33  C   UNL     1       2.993 -13.345  12.914  0.00  0.00    +0.001 A 
ATOM     34  C   UNL     1       2.791 -14.709  13.117  0.00  0.00    +0.001 A 
ATOM     35  C   UNL     1       1.536 -15.236  13.141  0.00  0.00    +0.008 A 
ENDBRANCH  25  26
ENDBRANCH  22  25
ENDBRANCH  20  21
ENDBRANCH  19  20
ENDBRANCH  17  19
ENDBRANCH   5  15
BRANCH   1  36
ATOM     36  C   UNL     1       0.230  -2.711   2.544  0.00  0.00    +0.131 C 
BRANCH  36  42
ATOM     37  C   UNL     1       0.450   1.664   0.125  0.00  0.00    +0.044 C 
ATOM     38  C   UNL     1       0.358   0.160   0.097  0.00  0.00    -0.050 A 
ATOM     39  C   UNL     1       0.296  -0.506  -1.113  0.00  0.00    +0.003 A 
ATOM     40  C   UNL     1       0.212  -1.885  -1.139  0.00  0.00    +0.001 A 
ATOM     41  C   UNL     1       0.191  -2.599   0.044  0.00  0.00    +0.004 A 
ATOM     42  C   UNL     1       0.254  -1.933   1.254  0.00  0.00    -0.038 A 
ATOM     43  C   UNL     1       0.342  -0.553   1.280  0.00  0.00    +0.007 A 
ENDBRANCH  36  42
ENDBRANCH   1  36
TORSDOF 8
