REMARK  Name = ZINC29720542
REMARK  12 active torsions:
REMARK  status: ('A' for Active; 'I' for Inactive)
REMARK    1  A    between atoms: C_1  and  C_2
REMARK    2  A    between atoms: C_2  and  C_3
REMARK    3  A    between atoms: C_3  and  C_4
REMARK    4  A    between atoms: C_3  and  N_6
REMARK    5  A    between atoms: C_4  and  C_5
REMARK    6  A    between atoms: C_7  and  C_9
REMARK    7  A    between atoms: C_9  and  C_11
REMARK    8  A    between atoms: C_9  and  N_12
REMARK    9  A    between atoms: N_12  and  C_13
REMARK   10  A    between atoms: C_16  and  N_19
REMARK   11  A    between atoms: N_22  and  C_23
REMARK   12  A    between atoms: C_23  and  C_24
REMARK                            x       y       z     vdW  Elec       q    Type
REMARK                         _______ _______ _______ _____ _____    ______ ____
ROOT
ATOM      1  C   UNL     1       2.659  -3.905  -1.273  0.00  0.00    +0.028 A 
ATOM      2  C   UNL     1       2.262  -4.635  -0.160  0.00  0.00    +0.025 A 
ATOM      3  C   UNL     1       2.806  -5.881   0.078  0.00  0.00    +0.025 A 
ATOM      4  C   UNL     1       3.759  -6.400  -0.788  0.00  0.00    +0.035 A 
ATOM      5  C   UNL     1       4.160  -5.669  -1.897  0.00  0.00    +0.025 A 
ATOM      6  C   UNL     1       3.612  -4.425  -2.140  0.00  0.00    +0.025 A 
ENDROOT
BRANCH   4   7
ATOM      7  N   UNL     1       4.316  -7.663  -0.542  0.00  0.00    -0.269 N 
ATOM      8  C   UNL     1       5.597  -7.912  -0.879  0.00  0.00    +0.304 C 
ATOM      9  O   UNL     1       6.299  -7.015  -1.306  0.00  0.00    -0.252 OA
ATOM     10  N   UNL     1       6.101  -9.155  -0.742  0.00  0.00    -0.292 N 
ATOM     11  H   UNL     1       3.707  -8.451  -0.075  0.00  0.00    +0.156 HD
ATOM     12  H   UNL     1       5.466  -9.966  -0.356  0.00  0.00    +0.151 HD
BRANCH  10  13
ATOM     13  C   UNL     1       7.493  -9.425  -1.108  0.00  0.00    +0.180 C 
BRANCH  13  14
ATOM     14  C   UNL     1       7.804 -10.879  -0.862  0.00  0.00    +0.122 A 
ATOM     15  C   UNL     1       7.653 -11.877  -1.752  0.00  0.00    +0.046 A 
ATOM     16  C   UNL     1       8.060 -13.066  -1.105  0.00  0.00    +0.041 A 
ATOM     17  C   UNL     1       8.436 -12.724   0.140  0.00  0.00    +0.195 A 
ATOM     18  O   UNL     1       8.284 -11.397   0.280  0.00  0.00    -0.466 OA
ENDBRANCH  13  14
ENDBRANCH  10  13
ENDBRANCH   4   7
BRANCH   1  19
ATOM     19  N   UNL     1       2.104  -2.645  -1.518  0.00  0.00    -0.333 N 
ATOM     20  H   UNL     1       2.422  -2.065  -2.397  0.00  0.00    +0.147 HD
BRANCH  19  21
ATOM     21  C   UNL     1       1.099  -2.097  -0.604  0.00  0.00    +0.154 C 
ATOM     22  C   UNL     1      -0.285  -2.621  -0.994  0.00  0.00    +0.038 C 
BRANCH  21  24
ATOM     23  N   UNL     1       0.261   0.131   0.069  0.00  0.00    -0.311 N 
ATOM     24  C   UNL     1       1.109  -0.593  -0.689  0.00  0.00    +0.233 C 
ATOM     25  O   UNL     1       1.880  -0.033  -1.440  0.00  0.00    -0.274 OA
ATOM     26  H   UNL     1      -0.438  -0.377   0.749  0.00  0.00    +0.149 HD
BRANCH  23  27
ATOM     27  C   UNL     1       0.271   1.594  -0.014  0.00  0.00    +0.072 C 
BRANCH  27  29
ATOM     28  C   UNL     1      -0.012   1.560  -2.497  0.00  0.00    +0.006 C 
ATOM     29  C   UNL     1      -0.616   2.045  -1.177  0.00  0.00    +0.019 C 
ENDBRANCH  27  29
BRANCH  27  30
ATOM     30  C   UNL     1      -0.264   2.182   1.293  0.00  0.00    +0.019 C 
ATOM     31  C   UNL     1       0.691   1.835   2.437  0.00  0.00    +0.006 C 
ENDBRANCH  27  30
ENDBRANCH  23  27
ENDBRANCH  21  24
ENDBRANCH  19  21
ENDBRANCH   1  19
TORSDOF 9
