REMARK  Name = ZINC64711104
REMARK  9 active torsions:
REMARK  status: ('A' for Active; 'I' for Inactive)
REMARK    1  A    between atoms: C_1  and  O_2
REMARK    2  A    between atoms: O_2  and  C_3
REMARK    3  A    between atoms: C_3  and  C_5
REMARK    4  A    between atoms: C_5  and  C_7
REMARK    5  A    between atoms: C_5  and  N_17
REMARK    6  A    between atoms: C_7  and  C_8
REMARK    7  A    between atoms: C_18  and  C_20
REMARK    8  A    between atoms: C_24  and  C_26
REMARK    9  A    between atoms: C_26  and  N_27
REMARK                            x       y       z     vdW  Elec       q    Type
REMARK                         _______ _______ _______ _____ _____    ______ ____
ROOT
ATOM      1  N   UNL     1       1.354  -2.503  -2.345  0.00  0.00    -0.298 N 
ATOM      2  C   UNL     1       0.675  -2.599  -3.505  0.00  0.00    +0.245 C 
ATOM      3  O   UNL     1      -0.516  -2.355  -3.535  0.00  0.00    -0.270 OA
ATOM      4  H   UNL     1       2.304  -2.698  -2.322  0.00  0.00    +0.150 HD
ENDROOT
BRANCH   2   5
ATOM      5  C   UNL     1       1.377  -3.002  -4.742  0.00  0.00    +0.037 A 
ATOM      6  C   UNL     1       2.743  -3.289  -4.710  0.00  0.00    +0.013 A 
ATOM      7  C   UNL     1       3.393  -3.665  -5.868  0.00  0.00    +0.001 A 
ATOM      8  C   UNL     1       2.694  -3.757  -7.059  0.00  0.00    +0.005 A 
ATOM      9  C   UNL     1       1.340  -3.474  -7.097  0.00  0.00    -0.029 A 
ATOM     10  C   UNL     1       0.677  -3.103  -5.945  0.00  0.00    +0.018 A 
BRANCH   9  11
ATOM     11  C   UNL     1       0.587  -3.577  -8.398  0.00  0.00    +0.152 C 
BRANCH  11  12
ATOM     12  N   UNL     1       0.058  -4.935  -8.550  0.00  0.00    -0.230 N 
ATOM     13  C   UNL     1       0.719  -5.947  -9.140  0.00  0.00    +0.254 C 
ATOM     14  O   UNL     1       1.831  -5.881  -9.624  0.00  0.00    -0.270 OA
ATOM     15  C   UNL     1      -0.135  -7.153  -9.101  0.00  0.00    +0.049 A 
ATOM     16  C   UNL     1       0.013  -8.458  -9.543  0.00  0.00    +0.014 A 
ATOM     17  C   UNL     1      -1.010  -9.371  -9.343  0.00  0.00    +0.001 A 
ATOM     18  C   UNL     1      -2.176  -8.989  -8.706  0.00  0.00    +0.001 A 
ATOM     19  C   UNL     1      -2.338  -7.687  -8.258  0.00  0.00    +0.014 A 
ATOM     20  C   UNL     1      -1.323  -6.763  -8.451  0.00  0.00    +0.049 A 
ATOM     21  C   UNL     1      -1.149  -5.335  -8.113  0.00  0.00    +0.254 C 
ATOM     22  O   UNL     1      -1.962  -4.639  -7.539  0.00  0.00    -0.270 OA
ENDBRANCH  11  12
ENDBRANCH   9  11
ENDBRANCH   2   5
BRANCH   1  23
ATOM     23  C   UNL     1       0.657  -2.104  -1.120  0.00  0.00    +0.186 C 
BRANCH  23  24
ATOM     24  C   UNL     1       0.598  -0.600  -1.043  0.00  0.00    +0.328 C 
ATOM     25  O   UNL     1       1.088   0.070  -1.921  0.00  0.00    -0.249 OA
BRANCH  24  27
ATOM     26  C   UNL     1      -0.017   1.425   0.010  0.00  0.00    +0.280 C 
ATOM     27  O   UNL     1       0.002  -0.004   0.002  0.00  0.00    -0.467 OA
ENDBRANCH  24  27
ENDBRANCH  23  24
BRANCH  23  28
ATOM     28  C   UNL     1       1.412  -2.647   0.096  0.00  0.00    +0.067 C 
BRANCH  28  29
ATOM     29  C   UNL     1       1.365  -4.153   0.083  0.00  0.00    -0.039 C 
ATOM     30  C   UNL     1       2.303  -4.992  -0.414  0.00  0.00    -0.001 A 
ATOM     31  C   UNL     1       3.596  -4.761  -1.068  0.00  0.00    +0.010 A 
ATOM     32  C   UNL     1       4.329  -5.826  -1.467  0.00  0.00    +0.001 A 
ATOM     33  C   UNL     1       3.884  -7.141  -1.272  0.00  0.00    +0.002 A 
ATOM     34  C   UNL     1       2.707  -7.433  -0.679  0.00  0.00    +0.026 A 
ATOM     35  C   UNL     1       1.856  -6.390  -0.220  0.00  0.00    +0.043 A 
ATOM     36  N   UNL     1       0.688  -6.415   0.375  0.00  0.00    -0.380 N 
ATOM     37  C   UNL     1       0.264  -5.034   0.630  0.00  0.00    +0.144 C 
ATOM     38  H   UNL     1       0.189  -7.213   0.610  0.00  0.00    +0.160 HD
ENDBRANCH  28  29
ENDBRANCH  23  28
ENDBRANCH   1  23
TORSDOF 8
