REMARK  Name = ZINC38597919
REMARK  7 active torsions:
REMARK  status: ('A' for Active; 'I' for Inactive)
REMARK    1  A    between atoms: C_3  and  C_6
REMARK    2  A    between atoms: C_6  and  C_8
REMARK    3  A    between atoms: C_6  and  N_22
REMARK    4  A    between atoms: C_8  and  N_9
REMARK    5  A    between atoms: C_10  and  C_12
REMARK    6  A    between atoms: N_14  and  C_15
REMARK    7  A    between atoms: N_25  and  C_28
REMARK                            x       y       z     vdW  Elec       q    Type
REMARK                         _______ _______ _______ _____ _____    ______ ____
ROOT
ATOM      1  C   UNL     1       3.588   0.751  -0.171  0.00  0.00    +0.017 C 
ENDROOT
BRANCH   1   2
ATOM      2  N   UNL     1       3.986  -0.466  -0.890  0.00  0.00    +0.389 N 
ATOM      3  C   UNL     1       5.434  -0.666  -0.748  0.00  0.00    -0.059 C 
ATOM      4  C   UNL     1       5.832  -1.994  -1.400  0.00  0.00    +0.086 C 
ATOM      5  N   UNL     1       5.353  -1.993  -2.791  0.00  0.00    -0.333 N 
ATOM      6  C   UNL     1       3.947  -1.641  -3.040  0.00  0.00    +0.086 C 
ATOM      7  C   UNL     1       3.638  -0.330  -2.310  0.00  0.00    -0.059 C 
ATOM      8  H   UNL     1       3.500  -1.260  -0.501  0.00  0.00    -0.081 HD
BRANCH   5   9
ATOM      9  C   UNL     1       6.211  -2.317  -3.847  0.00  0.00    +0.030 A 
ATOM     10  C   UNL     1       7.498  -2.766  -3.584  0.00  0.00    +0.026 A 
ATOM     11  C   UNL     1       8.344  -3.086  -4.628  0.00  0.00    +0.040 A 
ATOM     12  C   UNL     1       7.908  -2.959  -5.936  0.00  0.00    +0.124 A 
ATOM     13  C   UNL     1       6.625  -2.512  -6.201  0.00  0.00    +0.040 A 
ATOM     14  C   UNL     1       5.774  -2.195  -5.159  0.00  0.00    +0.026 A 
ATOM     15  F   UNL     1       8.737  -3.273  -6.957  0.00  0.00    -0.205 F 
ENDBRANCH   5   9
ENDBRANCH   1   2
BRANCH   1  18
ATOM     16  C   UNL     1       0.041   1.728  -0.383  0.00  0.00    +0.041 A 
ATOM     17  C   UNL     1       1.418   2.050  -0.399  0.00  0.00    +0.043 A 
ATOM     18  C   UNL     1       2.089   0.898  -0.223  0.00  0.00    +0.093 A 
ATOM     19  O   UNL     1       1.198  -0.099  -0.102  0.00  0.00    -0.469 OA
ATOM     20  C   UNL     1      -0.046   0.399  -0.198  0.00  0.00    +0.195 A 
ENDBRANCH   1  18
BRANCH   1  21
ATOM     21  C   UNL     1       4.041   0.652   1.287  0.00  0.00    +0.097 C 
BRANCH  21  22
ATOM     22  N   UNL     1       3.523  -0.585   1.877  0.00  0.00    -0.309 N 
ATOM     23  C   UNL     1       3.711  -0.837   3.187  0.00  0.00    +0.299 C 
ATOM     24  O   UNL     1       4.309  -0.040   3.879  0.00  0.00    -0.265 OA
ATOM     25  H   UNL     1       3.045  -1.222   1.324  0.00  0.00    +0.149 HD
BRANCH  23  26
ATOM     26  C   UNL     1       3.183  -2.099   3.788  0.00  0.00    +0.303 C 
ATOM     27  O   UNL     1       2.584  -2.896   3.096  0.00  0.00    -0.265 OA
ATOM     28  N   UNL     1       3.371  -2.351   5.099  0.00  0.00    -0.278 N 
ATOM     29  H   UNL     1       3.908  -1.748   5.636  0.00  0.00    +0.155 HD
BRANCH  28  30
ATOM     30  C   UNL     1       2.793  -3.482   5.683  0.00  0.00    +0.034 A 
ATOM     31  C   UNL     1       2.325  -3.428   6.989  0.00  0.00    +0.025 A 
ATOM     32  C   UNL     1       1.754  -4.546   7.564  0.00  0.00    +0.022 A 
ATOM     33  C   UNL     1       1.648  -5.720   6.839  0.00  0.00    +0.041 A 
ATOM     34  C   UNL     1       2.113  -5.777   5.536  0.00  0.00    +0.022 A 
ATOM     35  C   UNL     1       2.680  -4.660   4.955  0.00  0.00    +0.025 A 
ATOM     36 CL   UNL     1       0.930  -7.125   7.564  0.00  0.00    -0.084 Cl
ENDBRANCH  28  30
ENDBRANCH  23  26
ENDBRANCH  21  22
ENDBRANCH   1  21
TORSDOF 7
