REMARK  Name = ZINC12452606
REMARK  9 active torsions:
REMARK  status: ('A' for Active; 'I' for Inactive)
REMARK    1  A    between atoms: C_1  and  N_2
REMARK    2  A    between atoms: N_2  and  C_3
REMARK    3  A    between atoms: N_2  and  S_4
REMARK    4  A    between atoms: S_4  and  N_7
REMARK    5  A    between atoms: N_7  and  C_8
REMARK    6  A    between atoms: C_11  and  N_14
REMARK    7  A    between atoms: C_17  and  N_51
REMARK    8  A    between atoms: C_20  and  C_21
REMARK    9  A    between atoms: C_20  and  N_51
REMARK                            x       y       z     vdW  Elec       q    Type
REMARK                         _______ _______ _______ _____ _____    ______ ____
ROOT
ATOM      1  N   UNL     1      -4.908   3.485  -0.700  0.00  0.00    -0.330 N 
ATOM      2  C   UNL     1      -6.016   2.603  -0.315  0.00  0.00    +0.103 C 
ATOM      3  C   UNL     1      -7.348   3.276  -0.656  0.00  0.00    +0.003 C 
ATOM      4  C   UNL     1      -7.448   4.608   0.092  0.00  0.00    -0.068 C 
ATOM      5  C   UNL     1      -6.256   5.489  -0.290  0.00  0.00    +0.003 C 
ATOM      6  C   UNL     1      -4.956   4.753   0.041  0.00  0.00    +0.103 C 
ENDROOT
BRANCH   1  10
ATOM      7  C   UNL     1      -1.233   1.586  -0.175  0.00  0.00    +0.049 A 
ATOM      8  C   UNL     1      -1.482   2.801   0.449  0.00  0.00    +0.026 A 
ATOM      9  C   UNL     1      -2.697   3.432   0.271  0.00  0.00    +0.025 A 
ATOM     10  C   UNL     1      -3.674   2.848  -0.524  0.00  0.00    +0.030 A 
ATOM     11  C   UNL     1      -3.427   1.630  -1.144  0.00  0.00    +0.025 A 
ATOM     12  C   UNL     1      -2.210   1.001  -0.970  0.00  0.00    +0.026 A 
BRANCH   7  13
ATOM     13  N   UNL     1       0.001   0.949   0.000  0.00  0.00    -0.206 N 
ATOM     14  H   UNL     1       0.033  -0.003   0.188  0.00  0.00    +0.175 HD
BRANCH  13  15
ATOM     15  S   UNL     1       1.406   1.817  -0.119  0.00  0.00    +0.111 S 
ATOM     16  O   UNL     1       1.266   2.936   0.747  0.00  0.00    -0.138 OA
ATOM     17  O   UNL     1       2.471   0.885   0.006  0.00  0.00    -0.138 OA
BRANCH  15  19
ATOM     18  C   UNL     1       1.016   3.779  -1.940  0.00  0.00    +0.132 C 
ATOM     19  N   UNL     1       1.481   2.418  -1.660  0.00  0.00    -0.170 NA
ATOM     20  C   UNL     1       2.013   1.588  -2.744  0.00  0.00    +0.132 C 
ENDBRANCH  15  19
ENDBRANCH  13  15
ENDBRANCH   7  13
ENDBRANCH   1  10
BRANCH   4  21
ATOM     21  N   UNL     1      -8.698   5.293  -0.285  0.00  0.00    +0.384 N 
ATOM     22  H   UNL     1      -8.908   5.098  -1.271  0.00  0.00    -0.085 HD
ATOM     23  H   UNL     1      -8.584   6.305  -0.153  0.00  0.00    -0.085 HD
BRANCH  21  24
ATOM     24  C   UNL     1      -9.816   4.817   0.553  0.00  0.00    -0.039 C 
BRANCH  24  25
ATOM     25  C   UNL     1     -11.078   5.533   0.146  0.00  0.00    -0.026 A 
ATOM     26  C   UNL     1     -11.993   5.183  -0.790  0.00  0.00    +0.011 A 
ATOM     27  C   UNL     1     -13.090   6.000  -0.993  0.00  0.00    +0.028 A 
ATOM     28  C   UNL     1     -13.211   7.133  -0.257  0.00  0.00    +0.078 A 
ATOM     29  S   UNL     1     -11.751   7.065   0.768  0.00  0.00    -0.084 S 
ATOM     30 CL   UNL     1     -14.461   8.336  -0.300  0.00  0.00    -0.076 Cl
ENDBRANCH  24  25
ENDBRANCH  21  24
ENDBRANCH   4  21
TORSDOF 7
