REMARK  Name = ZINC45439021
REMARK  11 active torsions:
REMARK  status: ('A' for Active; 'I' for Inactive)
REMARK    1  A    between atoms: C_1  and  C_2
REMARK    2  A    between atoms: C_2  and  C_3
REMARK    3  A    between atoms: C_2  and  C_4
REMARK    4  A    between atoms: C_4  and  O_5
REMARK    5  A    between atoms: O_5  and  C_6
REMARK    6  A    between atoms: C_6  and  C_7
REMARK    7  A    between atoms: C_7  and  C_9
REMARK    8  A    between atoms: C_7  and  O_26
REMARK    9  A    between atoms: C_9  and  N_10
REMARK   10  A    between atoms: N_13  and  C_14
REMARK   11  A    between atoms: C_19  and  C_22
REMARK                            x       y       z     vdW  Elec       q    Type
REMARK                         _______ _______ _______ _____ _____    ______ ____
ROOT
ATOM      1  N   UNL     1      -3.833  -6.155  -0.510  0.00  0.00    -0.297 N 
ATOM      2  C   UNL     1      -4.933  -6.924  -0.635  0.00  0.00    +0.300 C 
ATOM      3  O   UNL     1      -6.035  -6.411  -0.639  0.00  0.00    -0.253 OA
ATOM      4  N   UNL     1      -4.811  -8.260  -0.757  0.00  0.00    -0.297 N 
ATOM      5  H   UNL     1      -2.953  -6.564  -0.507  0.00  0.00    +0.150 HD
ATOM      6  H   UNL     1      -3.932  -8.669  -0.754  0.00  0.00    +0.151 HD
ENDROOT
BRANCH   4   7
ATOM      7  C   UNL     1      -6.007  -9.095  -0.894  0.00  0.00    +0.075 C 
ATOM      8  C   UNL     1      -6.428  -9.147  -2.364  0.00  0.00    +0.022 C 
ATOM      9  C   UNL     1      -5.292  -9.742  -3.199  0.00  0.00    +0.002 C 
ATOM     10  C   UNL     1      -4.985 -11.158  -2.706  0.00  0.00    +0.012 C 
ATOM     11  C   UNL     1      -4.564 -11.106  -1.236  0.00  0.00    +0.095 C 
ATOM     12  C   UNL     1      -5.699 -10.511  -0.401  0.00  0.00    +0.034 C 
BRANCH  11  13
ATOM     13  C   UNL     1      -4.256 -12.521  -0.744  0.00  0.00    +0.393 C 
ATOM     14  F   UNL     1      -3.218 -13.066  -1.507  0.00  0.00    -0.170 F 
ATOM     15  F   UNL     1      -3.871 -12.474   0.601  0.00  0.00    -0.170 F 
ATOM     16  F   UNL     1      -5.398 -13.319  -0.874  0.00  0.00    -0.170 F 
ENDBRANCH  11  13
ENDBRANCH   4   7
BRANCH   1  17
ATOM     17  C   UNL     1      -3.965  -4.702  -0.377  0.00  0.00    +0.139 C 
BRANCH  17  18
ATOM     18  C   UNL     1      -2.576  -4.073  -0.251  0.00  0.00    +0.157 C 
BRANCH  18  19
ATOM     19  O   UNL     1      -1.918  -4.598   0.903  0.00  0.00    -0.388 OA
ATOM     20  H   UNL     1      -2.385  -4.429   1.733  0.00  0.00    +0.210 HD
ENDBRANCH  18  19
BRANCH  18  21
ATOM     21  C   UNL     1      -2.715  -2.555  -0.113  0.00  0.00    +0.192 C 
BRANCH  21  22
ATOM     22  O   UNL     1      -1.417  -1.957  -0.112  0.00  0.00    -0.377 OA
BRANCH  22  23
ATOM     23  C   UNL     1      -1.433  -0.534   0.013  0.00  0.00    +0.163 C 
BRANCH  23  25
ATOM     24  C   UNL     1      -0.019   1.526   0.010  0.00  0.00    +0.009 C 
ATOM     25  C   UNL     1       0.002  -0.004   0.002  0.00  0.00    +0.009 C 
ATOM     26  C   UNL     1       0.742  -0.511   1.242  0.00  0.00    +0.009 C 
ENDBRANCH  23  25
ENDBRANCH  22  23
ENDBRANCH  21  22
ENDBRANCH  18  21
ENDBRANCH  17  18
ENDBRANCH   1  17
TORSDOF 9
