REMARK  Name = ZINC54946106
REMARK  10 active torsions:
REMARK  status: ('A' for Active; 'I' for Inactive)
REMARK    1  A    between atoms: C_1  and  C_2
REMARK    2  A    between atoms: C_5  and  C_31
REMARK    3  A    between atoms: N_8  and  C_10
REMARK    4  A    between atoms: C_10  and  C_11
REMARK    5  A    between atoms: C_10  and  C_12
REMARK    6  A    between atoms: C_10  and  C_13
REMARK    7  A    between atoms: C_13  and  N_14
REMARK    8  A    between atoms: C_15  and  C_17
REMARK    9  A    between atoms: N_19  and  C_20
REMARK   10  A    between atoms: C_25  and  N_26
REMARK                            x       y       z     vdW  Elec       q    Type
REMARK                         _______ _______ _______ _____ _____    ______ ____
ROOT
ATOM      1  N   UNL     1       3.476  -2.391   0.905  0.00  0.00    -0.309 N 
ATOM      2  C   UNL     1       4.771  -2.201   0.581  0.00  0.00    +0.299 C 
ATOM      3  O   UNL     1       5.539  -1.738   1.398  0.00  0.00    -0.265 OA
ATOM      4  H   UNL     1       2.862  -2.761   0.252  0.00  0.00    +0.149 HD
ENDROOT
BRANCH   2   5
ATOM      5  C   UNL     1       5.259  -2.562  -0.784  0.00  0.00    +0.303 C 
ATOM      6  O   UNL     1       4.490  -3.025  -1.601  0.00  0.00    -0.265 OA
ATOM      7  N   UNL     1       6.553  -2.372  -1.108  0.00  0.00    -0.276 N 
ATOM      8  H   UNL     1       7.150  -1.931  -0.483  0.00  0.00    +0.155 HD
BRANCH   7   9
ATOM      9  C   UNL     1       7.035  -2.812  -2.344  0.00  0.00    +0.059 A 
ATOM     10  C   UNL     1       6.407  -3.858  -3.005  0.00  0.00    +0.025 A 
ATOM     11  C   UNL     1       6.885  -4.290  -4.226  0.00  0.00    +0.002 A 
ATOM     12  C   UNL     1       7.992  -3.684  -4.794  0.00  0.00    +0.002 A 
ATOM     13  C   UNL     1       8.624  -2.642  -4.144  0.00  0.00    +0.029 A 
ATOM     14  C   UNL     1       8.147  -2.196  -2.920  0.00  0.00    +0.086 A 
BRANCH  14  15
ATOM     15  N   UNL     1       8.784  -1.135  -2.261  0.00  0.00    -0.238 N 
ATOM     16  C   UNL     1       9.801  -0.391  -2.750  0.00  0.00    +0.114 A 
ATOM     17  C   UNL     1      10.129   0.527  -1.810  0.00  0.00    +0.041 A 
ATOM     18  C   UNL     1       9.284   0.338  -0.711  0.00  0.00    +0.135 A 
ATOM     19  N   UNL     1       8.474  -0.654  -0.982  0.00  0.00    -0.175 NA
ENDBRANCH  14  15
ENDBRANCH   7   9
ENDBRANCH   2   5
BRANCH   1  20
ATOM     20  C   UNL     1       2.997  -2.038   2.244  0.00  0.00    +0.092 C 
BRANCH  20  21
ATOM     21  C   UNL     1       1.534  -2.461   2.390  0.00  0.00    -0.055 C 
ATOM     22  C   UNL     1       1.002  -1.997   3.748  0.00  0.00    -0.008 C 
ATOM     23  C   UNL     1       1.433  -3.985   2.296  0.00  0.00    -0.008 C 
BRANCH  21  29
ATOM     24  C   UNL     1       0.015   1.776   0.465  0.00  0.00    +0.005 C 
ATOM     25  C   UNL     1      -0.004   0.254   0.306  0.00  0.00    -0.031 C 
ATOM     26  C   UNL     1      -1.452  -0.242   0.313  0.00  0.00    +0.003 C 
ATOM     27  C   UNL     1      -1.458  -1.772   0.232  0.00  0.00    -0.031 C 
ATOM     28  C   UNL     1      -0.643  -2.341   1.395  0.00  0.00    -0.075 C 
ATOM     29  N   UNL     1       0.738  -1.851   1.317  0.00  0.00    +0.384 N 
ATOM     30  C   UNL     1       0.757  -0.391   1.466  0.00  0.00    -0.075 C 
ATOM     31  C   UNL     1      -0.836  -2.215  -1.094  0.00  0.00    +0.005 C 
ATOM     32  H   UNL     1       1.133  -2.102   0.423  0.00  0.00    -0.081 HD
ENDBRANCH  21  29
ENDBRANCH  20  21
ENDBRANCH   1  20
TORSDOF 6
