REMARK  Name = ZINC09381939
REMARK  5 active torsions:
REMARK  status: ('A' for Active; 'I' for Inactive)
REMARK    1  A    between atoms: C_1  and  C_2
REMARK    2  A    between atoms: N_7  and  S_9
REMARK    3  A    between atoms: S_9  and  C_12
REMARK    4  A    between atoms: C_15  and  C_18
REMARK    5  A    between atoms: N_20  and  N_21
REMARK                            x       y       z     vdW  Elec       q    Type
REMARK                         _______ _______ _______ _____ _____    ______ ____
ROOT
ATOM      1  C   UNL     1       2.420   3.937   0.000  0.00  0.00    +0.260 C 
ATOM      2  O   UNL     1       3.483   3.348  -0.012  0.00  0.00    -0.269 OA
ATOM      3  N   UNL     1       2.397   5.285   0.007  0.00  0.00    -0.231 N 
ATOM      4  H   UNL     1       1.548   5.755   0.017  0.00  0.00    +0.173 HD
ENDROOT
BRANCH   3   5
ATOM      5  N   UNL     1       3.598   6.006   0.000  0.00  0.00    -0.242 N 
ATOM      6  C   UNL     1       3.574   7.387   0.007  0.00  0.00    +0.176 A 
ATOM      7  N   UNL     1       2.537   8.193   0.015  0.00  0.00    -0.221 NA
ATOM      8  C   UNL     1       2.664   9.539   0.025  0.00  0.00    +0.116 A 
ATOM      9  C   UNL     1       1.637  10.513   0.039  0.00  0.00    +0.152 A 
ATOM     10  C   UNL     1       1.940  11.852   0.043  0.00  0.00    +0.079 A 
ATOM     11  C   UNL     1       3.256  12.297   0.033  0.00  0.00    +0.127 A 
ATOM     12  C   UNL     1       4.284  11.370   0.020  0.00  0.00    +0.055 A 
ATOM     13  C   UNL     1       3.989  10.029   0.016  0.00  0.00    +0.046 A 
ATOM     14  S   UNL     1       4.946   8.532   0.001  0.00  0.00    -0.051 S 
ATOM     15  F   UNL     1       3.529  13.620   0.038  0.00  0.00    -0.205 F 
ATOM     16  F   UNL     1       0.344  10.121   0.048  0.00  0.00    -0.203 F 
ATOM     17  H   UNL     1       4.446   5.536  -0.010  0.00  0.00    +0.172 HD
ENDBRANCH   3   5
BRANCH   1  21
ATOM     18  C   UNL     1      -1.221   1.750   0.017  0.00  0.00    +0.106 A 
ATOM     19  C   UNL     1      -0.013   1.076   0.008  0.00  0.00    +0.029 A 
ATOM     20  C   UNL     1       1.174   1.780   0.000  0.00  0.00    +0.015 A 
ATOM     21  C   UNL     1       1.153   3.176   0.008  0.00  0.00    +0.038 A 
ATOM     22  C   UNL     1      -0.070   3.849   0.022  0.00  0.00    +0.015 A 
ATOM     23  C   UNL     1      -1.248   3.133   0.030  0.00  0.00    +0.029 A 
BRANCH  18  24
ATOM     24  S   UNL     1      -2.731   0.842   0.019  0.00  0.00    +0.061 S 
ATOM     25  O   UNL     1      -3.723   1.704  -0.522  0.00  0.00    -0.153 OA
ATOM     26  O   UNL     1      -2.441  -0.431  -0.540  0.00  0.00    -0.153 OA
BRANCH  24  32
ATOM     27  C   UNL     1      -4.178   2.852   4.450  0.00  0.00    +0.009 C 
ATOM     28  C   UNL     1      -3.263   1.951   3.618  0.00  0.00    +0.002 C 
ATOM     29  C   UNL     1      -2.917   0.694   4.419  0.00  0.00    +0.006 C 
ATOM     30  C   UNL     1      -1.976  -0.192   3.600  0.00  0.00    +0.017 C 
ATOM     31  C   UNL     1      -2.684  -0.623   2.307  0.00  0.00    +0.109 C 
ATOM     32  N   UNL     1      -3.143   0.582   1.602  0.00  0.00    -0.176 NA
ATOM     33  C   UNL     1      -3.981   1.547   2.326  0.00  0.00    +0.112 C 
ENDBRANCH  24  32
ENDBRANCH  18  24
ENDBRANCH   1  21
TORSDOF 4
