REMARK  Name = ZINC37427745
REMARK  10 active torsions:
REMARK  status: ('A' for Active; 'I' for Inactive)
REMARK    1  A    between atoms: C_1  and  C_2
REMARK    2  A    between atoms: C_2  and  N_3
REMARK    3  A    between atoms: N_3  and  C_4
REMARK    4  A    between atoms: C_4  and  C_5
REMARK    5  A    between atoms: C_15  and  C_17
REMARK    6  A    between atoms: C_24  and  C_26
REMARK    7  A    between atoms: C_26  and  C_27
REMARK    8  A    between atoms: C_27  and  C_28
REMARK    9  A    between atoms: C_27  and  C_29
REMARK   10  A    between atoms: C_27  and  C_30
REMARK                            x       y       z     vdW  Elec       q    Type
REMARK                         _______ _______ _______ _____ _____    ______ ____
ROOT
ATOM      1  C   UNL     1       2.440  -2.105  -0.774  0.00  0.00    +0.234 C 
ATOM      2  O   UNL     1       1.512  -2.848  -0.532  0.00  0.00    -0.274 OA
ATOM      3  N   UNL     1       3.706  -2.555  -0.678  0.00  0.00    -0.286 N 
ATOM      4  C   UNL     1       4.847  -1.671  -0.961  0.00  0.00    +0.130 C 
ATOM      5  C   UNL     1       5.670  -1.482   0.318  0.00  0.00    +0.140 C 
ATOM      6  N   UNL     1       5.881  -2.787   0.954  0.00  0.00    -0.347 N 
ATOM      7  C   UNL     1       6.827  -3.102   1.880  0.00  0.00    +0.086 A 
ATOM      8  C   UNL     1       6.676  -4.401   2.215  0.00  0.00    +0.019 A 
ATOM      9  C   UNL     1       5.595  -4.908   1.465  0.00  0.00    +0.025 A 
ATOM     10  C   UNL     1       5.132  -3.905   0.703  0.00  0.00    +0.044 A 
ATOM     11  C   UNL     1       3.989  -3.946  -0.279  0.00  0.00    +0.155 C 
ENDROOT
BRANCH  11  12
ATOM     12  C   UNL     1       4.384  -4.757  -1.486  0.00  0.00    -0.003 A 
ATOM     13  C   UNL     1       5.719  -5.002  -1.748  0.00  0.00    +0.007 A 
ATOM     14  C   UNL     1       6.081  -5.746  -2.856  0.00  0.00    +0.000 A 
ATOM     15  C   UNL     1       5.108  -6.245  -3.702  0.00  0.00    +0.001 A 
ATOM     16  C   UNL     1       3.773  -6.000  -3.441  0.00  0.00    +0.020 A 
ATOM     17  C   UNL     1       3.410  -5.261  -2.330  0.00  0.00    +0.046 A 
ATOM     18 CL   UNL     1       1.733  -4.959  -1.998  0.00  0.00    -0.083 Cl
ENDBRANCH  11  12
BRANCH   1  19
ATOM     19  C   UNL     1       2.176  -0.679  -1.184  0.00  0.00    +0.203 C 
BRANCH  19  20
ATOM     20  N   UNL     1       0.731  -0.439  -1.214  0.00  0.00    -0.293 N 
ATOM     21  C   UNL     1       0.035  -0.656  -2.349  0.00  0.00    +0.216 C 
ATOM     22  O   UNL     1       0.606  -1.050  -3.344  0.00  0.00    -0.276 OA
BRANCH  20  24
ATOM     23  C   UNL     1       0.037   1.566   0.001  0.00  0.00    +0.024 C 
ATOM     24  C   UNL     1       0.042   0.036  -0.012  0.00  0.00    +0.105 C 
ENDBRANCH  20  24
BRANCH  21  25
ATOM     25  C   UNL     1      -1.451  -0.409  -2.380  0.00  0.00    +0.102 C 
BRANCH  25  26
ATOM     26  C   UNL     1      -1.992  -0.730  -3.775  0.00  0.00    -0.029 C 
ATOM     27  C   UNL     1      -1.711  -2.197  -4.106  0.00  0.00    +0.011 C 
ATOM     28  C   UNL     1      -3.501  -0.479  -3.807  0.00  0.00    +0.011 C 
ATOM     29  C   UNL     1      -1.304   0.166  -4.807  0.00  0.00    +0.011 C 
ENDBRANCH  25  26
ENDBRANCH  21  25
ENDBRANCH  19  20
ENDBRANCH   1  19
TORSDOF 6
