REMARK  Name = ZINC10455876
REMARK  14 active torsions:
REMARK  status: ('A' for Active; 'I' for Inactive)
REMARK    1  A    between atoms: C_1  and  C_2
REMARK    2  A    between atoms: C_2  and  C_3
REMARK    3  A    between atoms: C_2  and  C_4
REMARK    4  A    between atoms: C_2  and  C_5
REMARK    5  A    between atoms: C_8  and  O_12
REMARK    6  A    between atoms: O_12  and  C_13
REMARK    7  A    between atoms: C_13  and  C_14
REMARK    8  A    between atoms: N_16  and  N_17
REMARK    9  A    between atoms: N_17  and  C_18
REMARK   10  A    between atoms: C_18  and  N_20
REMARK   11  A    between atoms: C_21  and  C_23
REMARK   12  A    between atoms: C_26  and  C_29
REMARK   13  A    between atoms: C_29  and  O_31
REMARK   14  A    between atoms: O_31  and  C_32
REMARK                            x       y       z     vdW  Elec       q    Type
REMARK                         _______ _______ _______ _____ _____    ______ ____
ROOT
ATOM      1  N   UNL     1       3.478   1.932  -0.021  0.00  0.00    -0.245 N 
ATOM      2  H   UNL     1       4.324   1.459  -0.031  0.00  0.00    +0.172 HD
ENDROOT
BRANCH   1   5
ATOM      3  C   UNL     1       4.617   4.023  -0.020  0.00  0.00    +0.267 C 
ATOM      4  O   UNL     1       5.675   3.431  -0.034  0.00  0.00    -0.271 OA
ATOM      5  N   UNL     1       3.459   3.333  -0.013  0.00  0.00    -0.232 N 
ATOM      6  H   UNL     1       2.612   3.807  -0.002  0.00  0.00    +0.173 HD
BRANCH   3   7
ATOM      7  C   UNL     1       4.596   5.530  -0.012  0.00  0.00    +0.326 C 
BRANCH   7   8
ATOM      8  O   UNL     1       5.937   6.024  -0.022  0.00  0.00    -0.482 OA
BRANCH   8  12
ATOM      9  C   UNL     1       6.422  10.122  -0.004  0.00  0.00    -0.041 A 
ATOM     10  C   UNL     1       5.151   9.577   0.005  0.00  0.00    +0.008 A 
ATOM     11  C   UNL     1       4.986   8.205  -0.002  0.00  0.00    +0.047 A 
ATOM     12  C   UNL     1       6.096   7.374  -0.017  0.00  0.00    +0.135 A 
ATOM     13  C   UNL     1       7.371   7.923  -0.020  0.00  0.00    +0.060 A 
ATOM     14  C   UNL     1       7.530   9.296  -0.018  0.00  0.00    +0.023 A 
ATOM     15 BR   UNL     1       8.888   6.794  -0.033  0.00  0.00    -0.047 Br
BRANCH   9  17
ATOM     16  C   UNL     1       5.953  12.202   1.263  0.00  0.00    +0.015 C 
ATOM     17  C   UNL     1       6.598  11.618   0.004  0.00  0.00    -0.013 C 
ATOM     18  C   UNL     1       8.090  11.956  -0.008  0.00  0.00    +0.015 C 
ATOM     19  C   UNL     1       5.930  12.217  -1.236  0.00  0.00    +0.015 C 
ENDBRANCH   9  17
ENDBRANCH   8  12
ENDBRANCH   7   8
ENDBRANCH   3   7
ENDBRANCH   1   5
BRANCH   1  20
ATOM     20  C   UNL     1       2.320   1.242  -0.013  0.00  0.00    +0.153 C 
ATOM     21  S   UNL     1       2.343  -0.469  -0.023  0.00  0.00    -0.017 S 
BRANCH  20  22
ATOM     22  N   UNL     1       1.143   1.901   0.001  0.00  0.00    -0.263 N 
ATOM     23  C   UNL     1      -0.014   1.211   0.009  0.00  0.00    +0.250 C 
ATOM     24  O   UNL     1       0.002  -0.004   0.002  0.00  0.00    -0.270 OA
ATOM     25  H   UNL     1       1.130   2.870   0.007  0.00  0.00    +0.157 HD
BRANCH  23  26
ATOM     26  C   UNL     1      -1.306   1.933   0.019  0.00  0.00    +0.037 A 
ATOM     27  C   UNL     1      -1.325   3.329   0.032  0.00  0.00    +0.014 A 
ATOM     28  C   UNL     1      -2.527   4.002   0.037  0.00  0.00    +0.016 A 
ATOM     29  C   UNL     1      -3.727   3.287   0.038  0.00  0.00    +0.059 A 
ATOM     30  C   UNL     1      -3.708   1.891   0.030  0.00  0.00    +0.016 A 
ATOM     31  C   UNL     1      -2.505   1.219   0.021  0.00  0.00    +0.014 A 
BRANCH  29  32
ATOM     32  C   UNL     1      -5.018   4.010   0.049  0.00  0.00    +0.339 C 
ATOM     33  O   UNL     1      -6.061   3.388   0.050  0.00  0.00    -0.245 OA
BRANCH  32  34
ATOM     34  O   UNL     1      -5.036   5.356   0.056  0.00  0.00    -0.464 OA
ATOM     35  C   UNL     1      -6.338   5.998   0.066  0.00  0.00    +0.280 C 
ENDBRANCH  32  34
ENDBRANCH  29  32
ENDBRANCH  23  26
ENDBRANCH  20  22
ENDBRANCH   1  20
TORSDOF 10
