REMARK  Name = ZINC01815392
REMARK  16 active torsions:
REMARK  status: ('A' for Active; 'I' for Inactive)
REMARK    1  A    between atoms: C_1  and  C_2
REMARK    2  A    between atoms: C_2  and  C_3
REMARK    3  A    between atoms: C_2  and  C_4
REMARK    4  A    between atoms: C_2  and  C_5
REMARK    5  A    between atoms: C_8  and  C_11
REMARK    6  A    between atoms: C_14  and  S_24
REMARK    7  A    between atoms: N_15  and  C_16
REMARK    8  A    between atoms: C_19  and  O_22
REMARK    9  A    between atoms: O_22  and  C_23
REMARK   10  A    between atoms: S_24  and  C_25
REMARK   11  A    between atoms: C_25  and  C_26
REMARK   12  A    between atoms: N_28  and  N_29
REMARK   13  A    between atoms: C_30  and  C_31
REMARK   14  A    between atoms: C_35  and  C_38
REMARK   15  A    between atoms: C_36  and  O_37
REMARK   16  A    between atoms: C_38  and  C_39
REMARK                            x       y       z     vdW  Elec       q    Type
REMARK                         _______ _______ _______ _____ _____    ______ ____
ROOT
ATOM      1  C   UNL     1      -1.611  -4.539  -0.007  0.00  0.00    +0.169 A 
ATOM      2  N   UNL     1      -0.337  -4.221  -0.017  0.00  0.00    -0.128 NA
ATOM      3  N   UNL     1      -0.203  -2.944  -0.011  0.00  0.00    -0.122 NA
ATOM      4  C   UNL     1      -1.383  -2.364   0.003  0.00  0.00    +0.197 A 
ATOM      5  N   UNL     1      -2.321  -3.359   0.012  0.00  0.00    -0.270 N 
ENDROOT
BRANCH   1   9
ATOM      6  C   UNL     1      -3.235  -8.464  -0.016  0.00  0.00    -0.042 A 
ATOM      7  C   UNL     1      -1.898  -8.272   0.284  0.00  0.00    +0.005 A 
ATOM      8  C   UNL     1      -1.364  -7.000   0.288  0.00  0.00    +0.012 A 
ATOM      9  C   UNL     1      -2.176  -5.905  -0.010  0.00  0.00    +0.020 A 
ATOM     10  C   UNL     1      -3.526  -6.104  -0.306  0.00  0.00    +0.012 A 
ATOM     11  C   UNL     1      -4.046  -7.382  -0.313  0.00  0.00    +0.005 A 
BRANCH   6  13
ATOM     12  C   UNL     1      -3.650 -10.478   1.370  0.00  0.00    +0.015 C 
ATOM     13  C   UNL     1      -3.812  -9.856  -0.018  0.00  0.00    -0.013 C 
ATOM     14  C   UNL     1      -5.298  -9.792  -0.378  0.00  0.00    +0.015 C 
ATOM     15  C   UNL     1      -3.074 -10.712  -1.050  0.00  0.00    +0.015 C 
ENDBRANCH   6  13
ENDBRANCH   1   9
BRANCH   5  16
ATOM     16  C   UNL     1      -3.716  -3.208   0.033  0.00  0.00    +0.051 A 
ATOM     17  C   UNL     1      -4.446  -3.649   1.129  0.00  0.00    +0.030 A 
ATOM     18  C   UNL     1      -5.818  -3.496   1.151  0.00  0.00    +0.047 A 
ATOM     19  C   UNL     1      -6.469  -2.912   0.074  0.00  0.00    +0.120 A 
ATOM     20  C   UNL     1      -5.741  -2.477  -1.024  0.00  0.00    +0.047 A 
ATOM     21  C   UNL     1      -4.368  -2.624  -1.045  0.00  0.00    +0.030 A 
BRANCH  19  22
ATOM     22  O   UNL     1      -7.820  -2.767   0.095  0.00  0.00    -0.495 OA
ATOM     23  C   UNL     1      -8.506  -3.237   1.257  0.00  0.00    +0.277 C 
ENDBRANCH  19  22
ENDBRANCH   5  16
BRANCH   4  24
ATOM     24  S   UNL     1      -1.696  -0.631   0.015  0.00  0.00    -0.076 S 
BRANCH  24  25
ATOM     25  C   UNL     1       0.002  -0.004   0.002  0.00  0.00    +0.174 C 
BRANCH  25  26
ATOM     26  C   UNL     1      -0.018   1.503   0.010  0.00  0.00    +0.242 C 
ATOM     27  O   UNL     1      -1.077   2.095   0.018  0.00  0.00    -0.273 OA
ATOM     28  N   UNL     1       1.139   2.192   0.003  0.00  0.00    -0.206 N 
ATOM     29  H   UNL     1       1.986   1.719  -0.008  0.00  0.00    +0.177 HD
BRANCH  28  30
ATOM     30  N   UNL     1       1.121   3.593   0.011  0.00  0.00    -0.188 NA
ATOM     31  C   UNL     1       2.236   4.258   0.004  0.00  0.00    +0.142 C 
BRANCH  31  32
ATOM     32  C   UNL     1       2.216   5.731   0.012  0.00  0.00    +0.036 A 
ATOM     33  C   UNL     1       3.413   6.450   0.004  0.00  0.00    +0.013 A 
ATOM     34  C   UNL     1       3.388   7.829   0.011  0.00  0.00    +0.001 A 
ATOM     35  C   UNL     1       2.179   8.504   0.026  0.00  0.00    +0.007 A 
ATOM     36  C   UNL     1       0.987   7.805   0.034  0.00  0.00    -0.002 A 
ATOM     37  C   UNL     1       0.995   6.419   0.021  0.00  0.00    +0.129 A 
BRANCH  37  38
ATOM     38  O   UNL     1      -0.176   5.731   0.023  0.00  0.00    -0.506 OA
ATOM     39  H   UNL     1      -0.511   5.527   0.907  0.00  0.00    +0.292 HD
ENDBRANCH  37  38
BRANCH  36  40
ATOM     40  C   UNL     1      -0.322   8.550   0.051  0.00  0.00    +0.065 C 
BRANCH  40  41
ATOM     41  C   UNL     1      -0.807   8.683   1.471  0.00  0.00    -0.030 C 
ATOM     42  C   UNL     1      -1.085   9.866   1.960  0.00  0.00    +0.004 C 
ENDBRANCH  40  41
ENDBRANCH  36  40
ENDBRANCH  31  32
ENDBRANCH  28  30
ENDBRANCH  25  26
ENDBRANCH  24  25
ENDBRANCH   4  24
TORSDOF 12
