REMARK  Name = ZINC36155999
REMARK  14 active torsions:
REMARK  status: ('A' for Active; 'I' for Inactive)
REMARK    1  A    between atoms: C_1  and  C_2
REMARK    2  A    between atoms: C_2  and  C_3
REMARK    3  A    between atoms: C_2  and  C_4
REMARK    4  A    between atoms: C_4  and  O_5
REMARK    5  A    between atoms: O_5  and  C_6
REMARK    6  A    between atoms: C_6  and  C_7
REMARK    7  A    between atoms: C_7  and  C_9
REMARK    8  A    between atoms: C_7  and  O_35
REMARK    9  A    between atoms: C_9  and  N_10
REMARK   10  A    between atoms: N_10  and  C_11
REMARK   11  A    between atoms: N_10  and  C_19
REMARK   12  A    between atoms: C_11  and  C_12
REMARK   13  A    between atoms: C_12  and  N_13
REMARK   14  A    between atoms: C_19  and  C_20
REMARK                            x       y       z     vdW  Elec       q    Type
REMARK                         _______ _______ _______ _____ _____    ______ ____
ROOT
ATOM      1  N   UNL     1      -5.695  -0.264  -3.862  0.00  0.00    +0.387 N 
ATOM      2  H   UNL     1      -5.465   0.708  -4.004  0.00  0.00    -0.081 HD
ENDROOT
BRANCH   1   3
ATOM      3  C   UNL     1      -5.406  -0.637  -2.471  0.00  0.00    -0.044 C 
BRANCH   3   4
ATOM      4  C   UNL     1      -3.950  -0.300  -2.144  0.00  0.00    +0.124 C 
BRANCH   4   5
ATOM      5  O   UNL     1      -3.764   1.116  -2.202  0.00  0.00    -0.391 OA
ATOM      6  H   UNL     1      -4.318   1.611  -1.582  0.00  0.00    +0.210 HD
ENDBRANCH   4   5
BRANCH   4   7
ATOM      7  C   UNL     1      -3.614  -0.801  -0.738  0.00  0.00    +0.189 C 
BRANCH   7   8
ATOM      8  O   UNL     1      -2.224  -0.591  -0.477  0.00  0.00    -0.377 OA
BRANCH   8   9
ATOM      9  C   UNL     1      -1.804  -1.028   0.817  0.00  0.00    +0.163 C 
BRANCH   9  11
ATOM     10  C   UNL     1      -0.059   0.755   0.967  0.00  0.00    +0.009 C 
ATOM     11  C   UNL     1      -0.307  -0.755   0.986  0.00  0.00    +0.009 C 
ATOM     12  C   UNL     1       0.169  -1.334   2.319  0.00  0.00    +0.009 C 
ENDBRANCH   9  11
ENDBRANCH   8   9
ENDBRANCH   7   8
ENDBRANCH   4   7
ENDBRANCH   3   4
ENDBRANCH   1   3
BRANCH   1  13
ATOM     13  C   UNL     1      -4.891  -1.094  -4.769  0.00  0.00    -0.063 C 
BRANCH  13  14
ATOM     14  C   UNL     1      -5.094  -0.620  -6.209  0.00  0.00    +0.066 C 
BRANCH  14  15
ATOM     15  N   UNL     1      -4.200  -1.370  -7.102  0.00  0.00    -0.300 NA
ATOM     16  C   UNL     1      -2.792  -1.046  -6.830  0.00  0.00    +0.112 C 
ATOM     17  C   UNL     1      -1.895  -1.891  -7.739  0.00  0.00    +0.175 C 
ATOM     18  O   UNL     1      -2.251  -1.655  -9.104  0.00  0.00    -0.377 OA
ATOM     19  C   UNL     1      -3.616  -1.960  -9.404  0.00  0.00    +0.175 C 
ATOM     20  C   UNL     1      -4.530  -1.116  -8.512  0.00  0.00    +0.112 C 
ENDBRANCH  14  15
ENDBRANCH  13  14
ENDBRANCH   1  13
BRANCH   1  21
ATOM     21  C   UNL     1      -7.122  -0.476  -4.140  0.00  0.00    -0.003 C 
BRANCH  21  22
ATOM     22  C   UNL     1      -7.941   0.496  -3.331  0.00  0.00    +0.094 A 
ATOM     23  N   UNL     1      -9.295   0.396  -3.339  0.00  0.00    -0.312 N 
ATOM     24  H   UNL     1      -9.716  -0.301  -3.866  0.00  0.00    +0.170 HD
ATOM     25  C   UNL     1     -10.065   1.243  -2.631  0.00  0.00    +0.260 A 
ATOM     26  O   UNL     1     -11.279   1.139  -2.648  0.00  0.00    -0.267 OA
ATOM     27  C   UNL     1      -9.432   2.269  -1.855  0.00  0.00    +0.075 A 
ATOM     28  C   UNL     1     -10.059   3.291  -1.018  0.00  0.00    -0.023 A 
ATOM     29  C   UNL     1      -9.235   4.152  -0.382  0.00  0.00    -0.004 A 
ATOM     30  S   UNL     1      -7.600   3.656  -0.856  0.00  0.00    -0.073 S 
ATOM     31  C   UNL     1      -8.030   2.294  -1.909  0.00  0.00    +0.116 A 
ATOM     32  N   UNL     1      -7.336   1.417  -2.629  0.00  0.00    -0.229 NA
ATOM     33  C   UNL     1      -9.624   5.279   0.524  0.00  0.00    +0.043 C 
ATOM     34  C   UNL     1     -11.123   5.555   0.338  0.00  0.00    +0.005 C 
ATOM     35  C   UNL     1     -11.878   4.223   0.395  0.00  0.00    +0.005 C 
ATOM     36  C   UNL     1     -11.573   3.399  -0.856  0.00  0.00    +0.037 C 
ENDBRANCH  21  22
ENDBRANCH   1  21
TORSDOF 12
