REMARK  Name = ZINC39710901
REMARK  9 active torsions:
REMARK  status: ('A' for Active; 'I' for Inactive)
REMARK    1  A    between atoms: C_1  and  C_2
REMARK    2  A    between atoms: C_8  and  C_14
REMARK    3  A    between atoms: C_14  and  C_16
REMARK    4  A    between atoms: C_14  and  N_27
REMARK    5  A    between atoms: N_21  and  C_22
REMARK    6  A    between atoms: N_27  and  C_28
REMARK    7  A    between atoms: N_27  and  C_35
REMARK    8  A    between atoms: C_28  and  C_29
REMARK    9  A    between atoms: C_35  and  C_36
REMARK                            x       y       z     vdW  Elec       q    Type
REMARK                         _______ _______ _______ _____ _____    ______ ____
ROOT
ATOM      1  C   UNL     1       1.574  -2.657   4.518  0.00  0.00    -0.009 C 
ENDROOT
BRANCH   1   9
ATOM      2  C   UNL     1      -0.557  -0.362  -0.761  0.00  0.00    +0.045 C 
ATOM      3  C   UNL     1      -0.150  -1.760  -0.374  0.00  0.00    -0.029 A 
ATOM      4  C   UNL     1       0.073  -2.689  -1.339  0.00  0.00    +0.005 A 
ATOM      5  C   UNL     1       0.452  -4.000  -1.049  0.00  0.00    +0.001 A 
ATOM      6  C   UNL     1       0.619  -4.421   0.231  0.00  0.00    +0.009 A 
ATOM      7  C   UNL     1       0.395  -3.471   1.321  0.00  0.00    -0.007 A 
ATOM      8  C   UNL     1       0.551  -3.850   2.622  0.00  0.00    -0.006 C 
ATOM      9  C   UNL     1       0.298  -2.800   3.686  0.00  0.00    +0.088 C 
ATOM     10  C   UNL     1      -0.107  -1.420   3.218  0.00  0.00    +0.223 C 
ATOM     11  O   UNL     1      -0.323  -0.539   4.030  0.00  0.00    -0.275 OA
ATOM     12  N   UNL     1      -0.226  -1.174   1.925  0.00  0.00    -0.284 N 
ATOM     13  C   UNL     1       0.001  -2.092   0.985  0.00  0.00    +0.043 A 
ATOM     14  H   UNL     1      -0.487  -0.282   1.646  0.00  0.00    +0.155 HD
ENDBRANCH   1   9
BRANCH   1  15
ATOM     15  C   UNL     1       2.686  -2.067   3.648  0.00  0.00    +0.205 C 
ATOM     16  N   UNL     1       2.265  -0.778   3.083  0.00  0.00    -0.152 NA
ATOM     17  N   UNL     1       2.264  -0.863   1.853  0.00  0.00    -0.070 NA
ATOM     18  N   UNL     1       2.652  -2.122   1.396  0.00  0.00    -0.179 N 
ATOM     19  N   UNL     1       2.933  -2.928   2.472  0.00  0.00    -0.185 NA
ATOM     20  H   UNL     1       2.714  -2.387   0.465  0.00  0.00    +0.191 HD
BRANCH  19  21
ATOM     21  C   UNL     1       4.328  -3.387   2.439  0.00  0.00    +0.080 C 
ATOM     22  C   UNL     1       5.278  -2.180   2.294  0.00  0.00    +0.021 C 
ATOM     23  C   UNL     1       6.408  -2.696   1.368  0.00  0.00    +0.002 C 
ATOM     24  C   UNL     1       5.643  -3.584   0.357  0.00  0.00    +0.002 C 
ATOM     25  C   UNL     1       4.560  -4.279   1.207  0.00  0.00    +0.021 C 
ENDBRANCH  19  21
ENDBRANCH   1  15
BRANCH   1  26
ATOM     26  N   UNL     1       1.319  -1.766   5.657  0.00  0.00    +0.390 N 
ATOM     27  H   UNL     1       1.030  -0.860   5.318  0.00  0.00    -0.080 HD
BRANCH  26  28
ATOM     28  C   UNL     1       0.256  -2.336   6.496  0.00  0.00    -0.042 C 
BRANCH  28  29
ATOM     29  C   UNL     1       0.619  -3.748   6.875  0.00  0.00    -0.064 A 
ATOM     30  C   UNL     1       0.312  -4.794   6.024  0.00  0.00    +0.002 A 
ATOM     31  C   UNL     1       0.645  -6.089   6.373  0.00  0.00    +0.000 A 
ATOM     32  C   UNL     1       1.286  -6.340   7.572  0.00  0.00    +0.000 A 
ATOM     33  C   UNL     1       1.594  -5.295   8.422  0.00  0.00    +0.000 A 
ATOM     34  C   UNL     1       1.264  -3.998   8.072  0.00  0.00    +0.002 A 
ENDBRANCH  28  29
ENDBRANCH  26  28
BRANCH  26  35
ATOM     35  C   UNL     1       2.546  -1.623   6.452  0.00  0.00    -0.040 C 
BRANCH  35  36
ATOM     36  C   UNL     1       2.409  -0.443   7.379  0.00  0.00    -0.046 A 
ATOM     37  C   UNL     1       2.679   0.840   6.927  0.00  0.00    +0.005 A 
ATOM     38  C   UNL     1       2.540   1.895   7.815  0.00  0.00    +0.020 A 
ATOM     39  C   UNL     1       2.140   1.635   9.113  0.00  0.00    +0.111 A 
ATOM     40  N   UNL     1       1.893   0.402   9.508  0.00  0.00    -0.263 NA
ATOM     41  C   UNL     1       2.008  -0.625   8.689  0.00  0.00    +0.112 A 
ENDBRANCH  35  36
ENDBRANCH  26  35
ENDBRANCH   1  26
TORSDOF 8
