REMARK  Name = ZINC12422913
REMARK  5 active torsions:
REMARK  status: ('A' for Active; 'I' for Inactive)
REMARK    1  A    between atoms: C_3  and  N_10
REMARK    2  A    between atoms: C_6  and  C_7
REMARK    3  A    between atoms: C_11  and  C_13
REMARK    4  A    between atoms: C_13  and  C_14
REMARK    5  A    between atoms: C_20  and  C_22
REMARK                            x       y       z     vdW  Elec       q    Type
REMARK                         _______ _______ _______ _____ _____    ______ ____
ROOT
ATOM      1  C   UNL     1      -4.834   1.242   0.114  0.00  0.00    +0.152 C 
ENDROOT
BRANCH   1   2
ATOM      2  C   UNL     1      -3.385   1.643   0.219  0.00  0.00    +0.059 A 
ATOM      3  C   UNL     1      -3.025   2.950   0.218  0.00  0.00    +0.072 A 
ATOM      4  S   UNL     1      -1.251   2.806   0.370  0.00  0.00    -0.060 S 
ATOM      5  C   UNL     1      -1.168   1.072   0.408  0.00  0.00    +0.165 A 
ATOM      6  N   UNL     1      -2.438   0.731   0.315  0.00  0.00    -0.229 NA
ATOM      7  N   UNL     1      -0.049   0.253   0.516  0.00  0.00    -0.263 N 
ATOM      8  C   UNL     1       1.180   0.799   0.595  0.00  0.00    +0.239 C 
ATOM      9  O   UNL     1       1.311   2.005   0.578  0.00  0.00    -0.273 OA
ATOM     10  H   UNL     1      -0.154  -0.711   0.530  0.00  0.00    +0.157 HD
BRANCH   8  11
ATOM     11  C   UNL     1       2.393  -0.088   0.706  0.00  0.00    +0.160 C 
ATOM     12  C   UNL     1       2.819  -0.588  -0.693  0.00  0.00    +0.041 C 
ATOM     13  C   UNL     1       4.359  -0.613  -0.563  0.00  0.00    +0.098 C 
ATOM     14  C   UNL     1       4.657   0.398   0.523  0.00  0.00    +0.214 C 
ATOM     15  O   UNL     1       5.746   0.885   0.738  0.00  0.00    -0.276 OA
ATOM     16  N   UNL     1       3.538   0.677   1.213  0.00  0.00    -0.304 N 
ATOM     17  H   UNL     1       3.493   1.304   1.952  0.00  0.00    +0.149 HD
ENDBRANCH   8  11
ENDBRANCH   1   2
BRANCH   1  19
ATOM     18  N   UNL     1      -6.231  -0.196  -1.334  0.00  0.00    -0.285 N 
ATOM     19  C   UNL     1      -5.011   0.297  -1.046  0.00  0.00    +0.223 C 
ATOM     20  O   UNL     1      -4.054  -0.020  -1.721  0.00  0.00    -0.275 OA
ATOM     21  H   UNL     1      -6.982  -0.004  -0.750  0.00  0.00    +0.155 HD
BRANCH  18  24
ATOM     22  C   UNL     1      -7.532  -2.793  -3.578  0.00  0.00    +0.015 A 
ATOM     23  C   UNL     1      -7.347  -2.016  -2.457  0.00  0.00    +0.024 A 
ATOM     24  C   UNL     1      -6.416  -0.982  -2.471  0.00  0.00    +0.033 A 
ATOM     25  C   UNL     1      -5.672  -0.727  -3.619  0.00  0.00    +0.024 A 
ATOM     26  C   UNL     1      -5.848  -1.504  -4.742  0.00  0.00    +0.015 A 
ATOM     27  C   UNL     1      -6.783  -2.543  -4.731  0.00  0.00    +0.037 A 
BRANCH  27  28
ATOM     28  C   UNL     1      -6.978  -3.375  -5.935  0.00  0.00    +0.242 C 
ATOM     29  O   UNL     1      -7.791  -4.279  -5.923  0.00  0.00    -0.270 OA
ATOM     30  N   UNL     1      -6.255  -3.133  -7.046  0.00  0.00    -0.325 N 
ATOM     31  H   UNL     1      -5.606  -2.411  -7.055  0.00  0.00    +0.145 HD
ATOM     32  H   UNL     1      -6.383  -3.679  -7.837  0.00  0.00    +0.145 HD
ENDBRANCH  27  28
ENDBRANCH  18  24
ENDBRANCH   1  19
TORSDOF 5
