REMARK  Name = ZINC11077203
REMARK  8 active torsions:
REMARK  status: ('A' for Active; 'I' for Inactive)
REMARK    1  A    between atoms: C_1  and  C_2
REMARK    2  A    between atoms: C_2  and  C_3
REMARK    3  A    between atoms: C_2  and  C_4
REMARK    4  A    between atoms: C_7  and  C_10
REMARK    5  A    between atoms: C_10  and  C_34
REMARK    6  A    between atoms: N_13  and  C_17
REMARK    7  A    between atoms: C_17  and  C_18
REMARK    8  A    between atoms: N_20  and  C_21
REMARK                            x       y       z     vdW  Elec       q    Type
REMARK                         _______ _______ _______ _____ _____    ______ ____
ROOT
ATOM      1  C   UNL     1       0.002  -0.004   0.002  0.00  0.00    +0.135 C 
ATOM      2  C   UNL     1       1.480  -0.340  -0.014  0.00  0.00    +0.251 C 
ATOM      3  O   UNL     1       1.980  -1.445  -0.025  0.00  0.00    -0.272 OA
ATOM      4  N   UNL     1       2.123   0.844  -0.014  0.00  0.00    -0.215 N 
ATOM      5  C   UNL     1       1.266   1.871   0.000  0.00  0.00    +0.310 C 
ATOM      6  O   UNL     1       1.608   3.037   0.003  0.00  0.00    -0.252 OA
ATOM      7  N   UNL     1      -0.018   1.469   0.010  0.00  0.00    -0.281 N 
ATOM      8  C   UNL     1      -0.690  -0.545  -1.251  0.00  0.00    +0.047 C 
ATOM      9  H   UNL     1      -0.803   2.038   0.017  0.00  0.00    +0.152 HD
ENDROOT
BRANCH   1  13
ATOM     10  C   UNL     1      -1.854  -1.552   3.524  0.00  0.00    -0.045 A 
ATOM     11  C   UNL     1      -2.286  -0.355   2.984  0.00  0.00    +0.004 A 
ATOM     12  C   UNL     1      -1.686   0.145   1.844  0.00  0.00    +0.006 A 
ATOM     13  C   UNL     1      -0.652  -0.550   1.245  0.00  0.00    -0.015 A 
ATOM     14  C   UNL     1      -0.223  -1.749   1.782  0.00  0.00    +0.006 A 
ATOM     15  C   UNL     1      -0.821  -2.248   2.924  0.00  0.00    +0.004 A 
BRANCH  10  17
ATOM     16  C   UNL     1      -3.114  -3.470   4.463  0.00  0.00    +0.012 C 
ATOM     17  C   UNL     1      -2.509  -2.098   4.767  0.00  0.00    +0.013 C 
ATOM     18  C   UNL     1      -1.464  -2.236   5.876  0.00  0.00    +0.012 C 
ENDBRANCH  10  17
ENDBRANCH   1  13
BRANCH   4  19
ATOM     19  C   UNL     1       3.581   0.989  -0.027  0.00  0.00    +0.213 C 
BRANCH  19  20
ATOM     20  C   UNL     1       4.067   1.047  -1.453  0.00  0.00    +0.232 C 
ATOM     21  O   UNL     1       3.273   0.974  -2.367  0.00  0.00    -0.274 OA
ATOM     22  N   UNL     1       5.383   1.179  -1.711  0.00  0.00    -0.303 N 
ATOM     23  H   UNL     1       6.017   1.238  -0.980  0.00  0.00    +0.150 HD
BRANCH  22  24
ATOM     24  C   UNL     1       5.855   1.235  -3.097  0.00  0.00    +0.135 C 
ATOM     25  C   UNL     1       6.101  -0.159  -3.619  0.00  0.00    -0.015 A 
ATOM     26  C   UNL     1       5.270  -1.245  -3.789  0.00  0.00    +0.006 A 
ATOM     27  C   UNL     1       5.772  -2.429  -4.299  0.00  0.00    +0.000 A 
ATOM     28  C   UNL     1       7.110  -2.526  -4.639  0.00  0.00    +0.001 A 
ATOM     29  C   UNL     1       7.950  -1.445  -4.471  0.00  0.00    +0.009 A 
ATOM     30  C   UNL     1       7.450  -0.247  -3.957  0.00  0.00    -0.012 A 
ATOM     31  C   UNL     1       8.116   1.050  -3.678  0.00  0.00    -0.012 A 
ATOM     32  C   UNL     1       7.184   1.948  -3.165  0.00  0.00    -0.015 A 
ATOM     33  C   UNL     1       7.565   3.228  -2.826  0.00  0.00    +0.006 A 
ATOM     34  C   UNL     1       8.880   3.627  -2.995  0.00  0.00    +0.000 A 
ATOM     35  C   UNL     1       9.813   2.742  -3.504  0.00  0.00    +0.001 A 
ATOM     36  C   UNL     1       9.440   1.459  -3.845  0.00  0.00    +0.009 A 
ENDBRANCH  22  24
ENDBRANCH  19  20
ENDBRANCH   4  19
TORSDOF 5
