REMARK  Name = ZINC16611903
REMARK  19 active torsions:
REMARK  status: ('A' for Active; 'I' for Inactive)
REMARK    1  A    between atoms: C_1  and  C_2
REMARK    2  A    between atoms: C_2  and  N_79
REMARK    3  A    between atoms: C_3  and  C_4
REMARK    4  A    between atoms: C_3  and  N_79
REMARK    5  A    between atoms: C_5  and  C_6
REMARK    6  A    between atoms: C_5  and  N_79
REMARK    7  A    between atoms: C_6  and  C_7
REMARK    8  A    between atoms: C_7  and  C_8
REMARK    9  A    between atoms: C_8  and  C_10
REMARK   10  A    between atoms: C_8  and  N_11
REMARK   11  A    between atoms: C_12  and  C_14
REMARK   12  A    between atoms: C_17  and  C_19
REMARK   13  A    between atoms: C_19  and  N_20
REMARK   14  A    between atoms: C_21  and  C_39
REMARK   15  A    between atoms: C_22  and  C_34
REMARK   16  A    between atoms: C_23  and  C_28
REMARK   17  A    between atoms: C_34  and  O_36
REMARK   18  A    between atoms: O_36  and  C_37
REMARK   19  A    between atoms: C_37  and  C_38
REMARK                            x       y       z     vdW  Elec       q    Type
REMARK                         _______ _______ _______ _____ _____    ______ ____
ROOT
ATOM      1  C   UNL     1       0.215   2.965   3.621  0.00  0.00    +0.189 A 
ATOM      2  C   UNL     1       1.573   2.861   3.719  0.00  0.00    +0.055 A 
ATOM      3  C   UNL     1       2.059   2.681   2.415  0.00  0.00    +0.047 A 
ATOM      4  C   UNL     1       0.991   2.693   1.587  0.00  0.00    +0.124 A 
ATOM      5  O   UNL     1      -0.118   2.861   2.317  0.00  0.00    -0.453 OA
ENDROOT
BRANCH   1   7
ATOM      6  N   UNL     1      -2.042   3.246   4.500  0.00  0.00    -0.306 N 
ATOM      7  C   UNL     1      -0.718   3.158   4.736  0.00  0.00    +0.280 C 
ATOM      8  O   UNL     1      -0.296   3.239   5.875  0.00  0.00    -0.267 OA
ATOM      9  H   UNL     1      -2.378   3.182   3.592  0.00  0.00    +0.149 HD
BRANCH   6  10
ATOM     10  C   UNL     1      -2.973   3.439   5.614  0.00  0.00    +0.070 C 
ATOM     11  C   UNL     1      -3.322   2.082   6.228  0.00  0.00    +0.028 C 
BRANCH  10  12
ATOM     12  C   UNL     1      -4.249   4.110   5.101  0.00  0.00    +0.020 C 
BRANCH  12  13
ATOM     13  C   UNL     1      -3.920   5.518   4.601  0.00  0.00    -0.017 C 
BRANCH  13  14
ATOM     14  C   UNL     1      -5.196   6.189   4.089  0.00  0.00    -0.079 C 
BRANCH  14  15
ATOM     15  N   UNL     1      -4.865   7.554   3.629  0.00  0.00    +0.379 N 
ATOM     16  H   UNL     1      -4.354   8.042   4.374  0.00  0.00    -0.082 HD
BRANCH  15  18
ATOM     17  C   UNL     1      -4.758   6.808   1.274  0.00  0.00    -0.017 C 
ATOM     18  C   UNL     1      -4.012   7.488   2.424  0.00  0.00    -0.082 C 
ENDBRANCH  15  18
BRANCH  15  19
ATOM     19  C   UNL     1      -6.106   8.300   3.330  0.00  0.00    -0.082 C 
ATOM     20  C   UNL     1      -5.769   9.789   3.219  0.00  0.00    -0.017 C 
ENDBRANCH  15  19
ENDBRANCH  14  15
ENDBRANCH  13  14
ENDBRANCH  12  13
ENDBRANCH  10  12
ENDBRANCH   6  10
ENDBRANCH   1   7
BRANCH   4  21
ATOM     21  C   UNL     1       1.040   2.536   0.089  0.00  0.00    +0.187 C 
BRANCH  21  22
ATOM     22  N   UNL     1       0.940   1.116  -0.257  0.00  0.00    -0.268 N 
ATOM     23  C   UNL     1      -0.293   0.559  -0.466  0.00  0.00    +0.021 C 
ATOM     24  C   UNL     1      -0.457  -0.774  -0.505  0.00  0.00    +0.061 C 
ATOM     25  C   UNL     1       0.712  -1.697  -0.278  0.00  0.00    +0.066 C 
ATOM     26  C   UNL     1       1.986  -1.052  -0.830  0.00  0.00    +0.109 C 
ATOM     27  C   UNL     1       2.061   0.381  -0.366  0.00  0.00    +0.221 C 
ATOM     28  O   UNL     1       3.135   0.871  -0.091  0.00  0.00    -0.275 OA
ATOM     29  C   UNL     1      -1.487   1.457  -0.660  0.00  0.00    +0.061 C 
BRANCH  25  30
ATOM     30  C   UNL     1       0.875  -1.948   1.199  0.00  0.00    -0.039 A 
ATOM     31  C   UNL     1       1.118  -0.891   2.057  0.00  0.00    +0.004 A 
ATOM     32  C   UNL     1       1.262  -1.121   3.412  0.00  0.00    +0.000 A 
ATOM     33  C   UNL     1       1.175  -2.408   3.908  0.00  0.00    +0.000 A 
ATOM     34  C   UNL     1       0.937  -3.465   3.050  0.00  0.00    +0.000 A 
ATOM     35  C   UNL     1       0.787  -3.235   1.695  0.00  0.00    +0.004 A 
ENDBRANCH  25  30
BRANCH  24  36
ATOM     36  C   UNL     1      -1.739  -1.316  -0.762  0.00  0.00    +0.337 C 
ATOM     37  O   UNL     1      -2.021  -1.709  -1.878  0.00  0.00    -0.245 OA
BRANCH  36  38
ATOM     38  O   UNL     1      -2.649  -1.397   0.232  0.00  0.00    -0.462 OA
BRANCH  38  39
ATOM     39  C   UNL     1      -3.922  -1.955  -0.099  0.00  0.00    +0.229 C 
ATOM     40  C   UNL     1      -4.813  -1.964   1.145  0.00  0.00    +0.048 C 
ENDBRANCH  38  39
ENDBRANCH  36  38
ENDBRANCH  24  36
ENDBRANCH  21  22
ENDBRANCH   4  21
TORSDOF 14
