REMARK  Name = ZINC39856291
REMARK  8 active torsions:
REMARK  status: ('A' for Active; 'I' for Inactive)
REMARK    1  A    between atoms: C_1  and  C_2
REMARK    2  A    between atoms: C_2  and  C_3
REMARK    3  A    between atoms: C_6  and  N_9
REMARK    4  A    between atoms: C_10  and  C_12
REMARK    5  A    between atoms: C_13  and  C_28
REMARK    6  A    between atoms: C_18  and  C_26
REMARK    7  A    between atoms: C_18  and  C_27
REMARK    8  A    between atoms: N_21  and  N_22
REMARK                            x       y       z     vdW  Elec       q    Type
REMARK                         _______ _______ _______ _____ _____    ______ ____
ROOT
ATOM      1  C   UNL     1      -7.406  -2.508  -1.097  0.00  0.00    +0.193 A 
ATOM      2  C   UNL     1      -8.200  -2.686  -2.196  0.00  0.00    +0.009 A 
ATOM      3  C   UNL     1      -9.458  -3.066  -1.713  0.00  0.00    +0.042 A 
ATOM      4  C   UNL     1      -9.380  -3.101  -0.341  0.00  0.00    +0.116 A 
ATOM      5  O   UNL     1      -8.139  -2.771   0.009  0.00  0.00    -0.454 OA
ATOM      6  C   UNL     1     -10.549  -3.466   0.538  0.00  0.00    +0.081 C 
ATOM      7  C   UNL     1     -11.852  -3.271  -0.241  0.00  0.00    -0.023 C 
ATOM      8  C   UNL     1     -11.801  -4.020  -1.576  0.00  0.00    +0.064 C 
ATOM      9  C   UNL     1     -10.709  -3.394  -2.432  0.00  0.00    +0.071 C 
ATOM     10  N   UNL     1     -10.864  -3.166  -3.700  0.00  0.00    -0.183 NA
ATOM     11  C   UNL     1     -13.021  -3.801   0.591  0.00  0.00    +0.011 C 
ATOM     12  C   UNL     1     -12.061  -1.778  -0.508  0.00  0.00    +0.011 C 
ATOM     13  C   UNL     1      -7.801  -2.510  -3.639  0.00  0.00    +0.048 C 
ENDROOT
BRANCH  10  14
ATOM     14  N   UNL     1     -12.070  -3.498  -4.329  0.00  0.00    -0.191 N 
ATOM     15  C   UNL     1     -12.231  -3.261  -5.646  0.00  0.00    +0.317 C 
ATOM     16  O   UNL     1     -13.278  -3.549  -6.192  0.00  0.00    -0.251 OA
ATOM     17  N   UNL     1     -11.230  -2.705  -6.357  0.00  0.00    -0.312 N 
ATOM     18  H   UNL     1     -12.790  -3.898  -3.817  0.00  0.00    +0.179 HD
ATOM     19  H   UNL     1     -10.395  -2.475  -5.922  0.00  0.00    +0.147 HD
ATOM     20  H   UNL     1     -11.346  -2.534  -7.305  0.00  0.00    +0.147 HD
ENDBRANCH  10  14
BRANCH   1  22
ATOM     21  N   UNL     1      -5.319  -1.968   0.042  0.00  0.00    -0.279 N 
ATOM     22  C   UNL     1      -5.996  -2.105  -1.115  0.00  0.00    +0.284 C 
ATOM     23  O   UNL     1      -5.437  -1.894  -2.175  0.00  0.00    -0.266 OA
ATOM     24  H   UNL     1      -5.741  -2.209   0.882  0.00  0.00    +0.155 HD
BRANCH  21  28
ATOM     25  C   UNL     1      -1.418  -0.509   0.014  0.00  0.00    -0.048 A 
ATOM     26  C   UNL     1      -1.796  -1.450   0.954  0.00  0.00    +0.005 A 
ATOM     27  C   UNL     1      -3.088  -1.936   0.966  0.00  0.00    +0.023 A 
ATOM     28  C   UNL     1      -4.010  -1.478   0.033  0.00  0.00    +0.034 A 
ATOM     29  C   UNL     1      -3.627  -0.533  -0.910  0.00  0.00    +0.023 A 
ATOM     30  C   UNL     1      -2.334  -0.047  -0.913  0.00  0.00    +0.005 A 
BRANCH  25  32
ATOM     31  C   UNL     1       0.085   1.250   0.907  0.00  0.00    +0.009 C 
ATOM     32  C   UNL     1      -0.006   0.018   0.003  0.00  0.00    +0.032 C 
ENDBRANCH  25  32
ENDBRANCH  21  28
ENDBRANCH   1  22
TORSDOF 4
