REMARK  Name = ZINC09137974
REMARK  8 active torsions:
REMARK  status: ('A' for Active; 'I' for Inactive)
REMARK    1  A    between atoms: C_1  and  N_2
REMARK    2  A    between atoms: C_10  and  C_12
REMARK    3  A    between atoms: C_12  and  C_14
REMARK    4  A    between atoms: C_12  and  N_63
REMARK    5  A    between atoms: C_14  and  N_15
REMARK    6  A    between atoms: C_16  and  C_18
REMARK    7  A    between atoms: C_18  and  O_19
REMARK    8  A    between atoms: O_19  and  C_20
REMARK                            x       y       z     vdW  Elec       q    Type
REMARK                         _______ _______ _______ _____ _____    ______ ____
ROOT
ATOM      1  C   UNL     1      -1.416   0.860   4.729  0.00  0.00    -0.020 C 
ENDROOT
BRANCH   1  11
ATOM      2  C   UNL     1      -2.231   6.988   6.030  0.00  0.00    +0.129 C 
ATOM      3  N   UNL     1      -2.167   5.968   7.085  0.00  0.00    -0.333 N 
ATOM      4  C   UNL     1      -3.314   6.076   7.989  0.00  0.00    +0.105 C 
ATOM      5  C   UNL     1      -3.208   4.973   9.050  0.00  0.00    +0.024 C 
ATOM      6  C   UNL     1      -3.423   3.627   8.353  0.00  0.00    +0.038 C 
ATOM      7  C   UNL     1      -2.582   3.563   7.103  0.00  0.00    -0.026 A 
ATOM      8  C   UNL     1      -2.017   4.694   6.540  0.00  0.00    +0.033 A 
ATOM      9  C   UNL     1      -1.256   4.573   5.376  0.00  0.00    +0.023 A 
ATOM     10  C   UNL     1      -1.059   3.338   4.796  0.00  0.00    +0.004 A 
ATOM     11  C   UNL     1      -1.627   2.211   5.362  0.00  0.00    -0.059 A 
ATOM     12  C   UNL     1      -2.383   2.325   6.512  0.00  0.00    +0.007 A 
ENDBRANCH   1  11
BRANCH   1  18
ATOM     13  C   UNL     1       0.154   0.044   6.380  0.00  0.00    -0.078 C 
ATOM     14  C   UNL     1       1.552  -0.550   6.567  0.00  0.00    -0.019 C 
ATOM     15  C   UNL     1       2.601   0.483   6.144  0.00  0.00    -0.004 C 
ATOM     16  C   UNL     1       2.349   0.888   4.689  0.00  0.00    -0.019 C 
ATOM     17  C   UNL     1       0.928   1.440   4.557  0.00  0.00    -0.078 C 
ATOM     18  N   UNL     1      -0.034   0.391   4.955  0.00  0.00    +0.385 N 
ATOM     19  H   UNL     1       0.132  -0.447   4.385  0.00  0.00    -0.081 HD
ENDBRANCH   1  18
BRANCH   1  20
ATOM     20  C   UNL     1      -1.661   0.960   3.222  0.00  0.00    +0.093 C 
BRANCH  20  21
ATOM     21  N   UNL     1      -1.328  -0.318   2.587  0.00  0.00    -0.314 N 
ATOM     22  C   UNL     1      -1.538  -0.490   1.267  0.00  0.00    +0.251 C 
ATOM     23  O   UNL     1      -2.003   0.413   0.605  0.00  0.00    -0.272 OA
ATOM     24  H   UNL     1      -0.956  -1.040   3.117  0.00  0.00    +0.149 HD
BRANCH  22  25
ATOM     25  C   UNL     1      -1.196  -1.805   0.615  0.00  0.00    +0.324 C 
BRANCH  25  26
ATOM     26  O   UNL     1      -1.508  -1.740  -0.778  0.00  0.00    -0.480 OA
BRANCH  26  27
ATOM     27  C   UNL     1      -1.257  -2.853  -1.519  0.00  0.00    +0.156 A 
ATOM     28  C   UNL     1      -0.718  -3.980  -0.918  0.00  0.00    +0.048 A 
ATOM     29  C   UNL     1      -0.468  -5.111  -1.672  0.00  0.00    +0.004 A 
ATOM     30  C   UNL     1      -0.746  -5.117  -3.026  0.00  0.00    +0.003 A 
ATOM     31  C   UNL     1      -1.279  -3.993  -3.630  0.00  0.00    +0.042 A 
ATOM     32  C   UNL     1      -1.536  -2.860  -2.880  0.00  0.00    +0.165 A 
ATOM     33  F   UNL     1      -2.057  -1.762  -3.470  0.00  0.00    -0.202 F 
ENDBRANCH  26  27
ENDBRANCH  25  26
ENDBRANCH  22  25
ENDBRANCH  20  21
ENDBRANCH   1  20
TORSDOF 7
