REMARK  Name = ZINC63295218
REMARK  3 active torsions:
REMARK  status: ('A' for Active; 'I' for Inactive)
REMARK    1  A    between atoms: C_6  and  N_7
REMARK    2  A    between atoms: C_8  and  C_10
REMARK    3  A    between atoms: C_10  and  N_11
REMARK                            x       y       z     vdW  Elec       q    Type
REMARK                         _______ _______ _______ _____ _____    ______ ____
ROOT
ATOM      1  N   UNL     1      -4.785   0.089   0.360  0.00  0.00    -0.291 N 
ATOM      2  C   UNL     1      -6.042  -0.382   0.483  0.00  0.00    +0.303 C 
ATOM      3  O   UNL     1      -6.235  -1.578   0.592  0.00  0.00    -0.253 OA
ATOM      4  N   UNL     1      -7.084   0.472   0.486  0.00  0.00    -0.283 N 
ATOM      5  C   UNL     1      -6.838   1.917   0.462  0.00  0.00    +0.114 C 
ATOM      6  C   UNL     1      -7.535   2.536  -0.763  0.00  0.00    +0.052 C 
ATOM      7  C   UNL     1      -8.924   1.950  -0.812  0.00  0.00    -0.035 C 
ATOM      8  C   UNL     1     -10.117   2.525  -0.898  0.00  0.00    +0.001 A 
ATOM      9  C   UNL     1     -10.516   3.929  -1.085  0.00  0.00    +0.030 A 
ATOM     10  C   UNL     1     -11.854   4.175  -1.108  0.00  0.00    +0.042 A 
ATOM     11  C   UNL     1     -12.822   3.175  -0.964  0.00  0.00    +0.022 A 
ATOM     12  C   UNL     1     -12.545   1.858  -0.796  0.00  0.00    +0.027 A 
ATOM     13  C   UNL     1     -11.172   1.475  -0.764  0.00  0.00    +0.043 A 
ATOM     14  N   UNL     1     -10.629   0.299  -0.641  0.00  0.00    -0.376 N 
ATOM     15  C   UNL     1      -9.177   0.449  -0.742  0.00  0.00    +0.124 C 
ATOM     16  C   UNL     1      -8.457  -0.056   0.507  0.00  0.00    +0.138 C 
ATOM     17 CL   UNL     1     -12.387   5.812  -1.327  0.00  0.00    -0.084 Cl
ATOM     18  H   UNL     1      -4.625   1.045   0.347  0.00  0.00    +0.151 HD
ATOM     19  H   UNL     1     -11.106  -0.534  -0.504  0.00  0.00    +0.160 HD
ENDROOT
BRANCH   1  20
ATOM     20  C   UNL     1      -3.661  -0.844   0.245  0.00  0.00    +0.202 C 
BRANCH  20  22
ATOM     21  N   UNL     1      -1.202  -0.722   0.002  0.00  0.00    -0.284 N 
ATOM     22  C   UNL     1      -2.375  -0.068   0.120  0.00  0.00    +0.234 C 
ATOM     23  O   UNL     1      -2.395   1.145   0.127  0.00  0.00    -0.274 OA
ATOM     24  H   UNL     1      -1.192  -1.688  -0.078  0.00  0.00    +0.155 HD
BRANCH  21  30
ATOM     25  C   UNL     1       0.122   1.157   0.743  0.00  0.00    +0.027 A 
ATOM     26  C   UNL     1       1.310   1.865   0.736  0.00  0.00    +0.051 A 
ATOM     27  C   UNL     1       2.382   1.417  -0.018  0.00  0.00    +0.166 A 
ATOM     28  C   UNL     1       2.263   0.251  -0.771  0.00  0.00    +0.168 A 
ATOM     29  C   UNL     1       1.074  -0.458  -0.763  0.00  0.00    +0.072 A 
ATOM     30  C   UNL     1       0.001  -0.005  -0.006  0.00  0.00    +0.037 A 
ATOM     31  O   UNL     1       3.445   0.027  -1.417  0.00  0.00    -0.453 OA
ATOM     32  C   UNL     1       4.149   1.282  -1.376  0.00  0.00    +0.466 C 
ATOM     33  O   UNL     1       3.638   1.923  -0.193  0.00  0.00    -0.453 OA
ENDBRANCH  21  30
ENDBRANCH  20  22
ENDBRANCH   1  20
TORSDOF 3
