REMARK  Name = ZINC09784943
REMARK  7 active torsions:
REMARK  status: ('A' for Active; 'I' for Inactive)
REMARK    1  A    between atoms: C_1  and  C_2
REMARK    2  A    between atoms: C_5  and  N_12
REMARK    3  A    between atoms: C_8  and  C_10
REMARK    4  A    between atoms: C_8  and  C_11
REMARK    5  A    between atoms: C_13  and  C_15
REMARK    6  A    between atoms: C_15  and  C_16
REMARK    7  A    between atoms: N_24  and  C_25
REMARK                            x       y       z     vdW  Elec       q    Type
REMARK                         _______ _______ _______ _____ _____    ______ ____
ROOT
ATOM      1  C   UNL     1       0.972   2.589   0.404  0.00  0.00    +0.059 A 
ATOM      2  C   UNL     1      -0.372   2.549   0.572  0.00  0.00    +0.072 A 
ATOM      3  S   UNL     1      -0.672   0.793   0.431  0.00  0.00    -0.060 S 
ATOM      4  C   UNL     1       0.973   0.303   0.171  0.00  0.00    +0.166 A 
ATOM      5  N   UNL     1       1.615   1.454   0.206  0.00  0.00    -0.229 NA
ATOM      6  N   UNL     1       1.483  -0.976  -0.025  0.00  0.00    -0.248 N 
ATOM      7  C   UNL     1       0.654  -2.038  -0.028  0.00  0.00    +0.310 C 
ATOM      8  O   UNL     1      -0.539  -1.879   0.141  0.00  0.00    -0.252 OA
ATOM      9  N   UNL     1       1.149  -3.278  -0.217  0.00  0.00    -0.269 N 
ATOM     10  H   UNL     1       2.435  -1.103  -0.160  0.00  0.00    +0.158 HD
ATOM     11  H   UNL     1       2.107  -3.413  -0.280  0.00  0.00    +0.156 HD
ENDROOT
BRANCH   9  12
ATOM     12  C   UNL     1       0.279  -4.370  -0.324  0.00  0.00    +0.035 A 
ATOM     13  C   UNL     1       0.660  -5.613   0.163  0.00  0.00    +0.025 A 
ATOM     14  C   UNL     1      -0.202  -6.687   0.062  0.00  0.00    +0.022 A 
ATOM     15  C   UNL     1      -1.441  -6.527  -0.535  0.00  0.00    +0.041 A 
ATOM     16  C   UNL     1      -1.820  -5.291  -1.027  0.00  0.00    +0.022 A 
ATOM     17  C   UNL     1      -0.964  -4.212  -0.922  0.00  0.00    +0.025 A 
ATOM     18 CL   UNL     1      -2.520  -7.881  -0.666  0.00  0.00    -0.084 Cl
ENDBRANCH   9  12
BRANCH   1  19
ATOM     19  C   UNL     1       1.715   3.899   0.443  0.00  0.00    +0.151 C 
BRANCH  19  21
ATOM     20  N   UNL     1       3.612   4.888   1.685  0.00  0.00    -0.312 N 
ATOM     21  C   UNL     1       2.812   3.825   1.474  0.00  0.00    +0.219 C 
ATOM     22  O   UNL     1       2.974   2.808   2.115  0.00  0.00    -0.275 OA
ATOM     23  H   UNL     1       3.483   5.702   1.173  0.00  0.00    +0.149 HD
BRANCH  20  27
ATOM     24  C   UNL     1       5.791   8.498   2.516  0.00  0.00    +0.007 C 
ATOM     25  C   UNL     1       4.844   7.309   2.691  0.00  0.00    -0.012 C 
ATOM     26  C   UNL     1       5.625   6.005   2.512  0.00  0.00    +0.025 C 
ATOM     27  C   UNL     1       4.678   4.816   2.687  0.00  0.00    +0.074 C 
ATOM     28  C   UNL     1       4.064   4.855   4.088  0.00  0.00    +0.028 C 
ATOM     29  C   UNL     1       3.283   6.159   4.267  0.00  0.00    -0.033 C 
ATOM     30  C   UNL     1       4.230   7.348   4.092  0.00  0.00    +0.009 C 
ATOM     31  C   UNL     1       2.170   6.234   3.220  0.00  0.00    +0.011 C 
ATOM     32  C   UNL     1       2.669   6.198   5.668  0.00  0.00    +0.011 C 
ENDBRANCH  20  27
ENDBRANCH  19  21
ENDBRANCH   1  19
TORSDOF 4
