REMARK  Name = ZINC08624345
REMARK  8 active torsions:
REMARK  status: ('A' for Active; 'I' for Inactive)
REMARK    1  A    between atoms: C_1  and  C_2
REMARK    2  A    between atoms: C_2  and  O_3
REMARK    3  A    between atoms: O_3  and  C_4
REMARK    4  A    between atoms: C_4  and  C_6
REMARK    5  A    between atoms: C_7  and  C_31
REMARK    6  A    between atoms: C_10  and  N_11
REMARK    7  A    between atoms: C_12  and  C_14
REMARK    8  A    between atoms: C_14  and  N_15
REMARK                            x       y       z     vdW  Elec       q    Type
REMARK                         _______ _______ _______ _____ _____    ______ ____
ROOT
ATOM      1  N   UNL     1       0.393   1.768   6.907  0.00  0.00    -0.278 N 
ATOM      2  C   UNL     1       0.001   1.887   5.623  0.00  0.00    +0.236 C 
ATOM      3  O   UNL     1      -1.173   2.043   5.359  0.00  0.00    -0.274 OA
ATOM      4  H   UNL     1       1.331   1.642   7.118  0.00  0.00    +0.155 HD
ENDROOT
BRANCH   1   9
ATOM      5  C   UNL     1      -0.334   1.723   9.294  0.00  0.00    +0.098 A 
ATOM      6  C   UNL     1      -1.507   1.818  10.144  0.00  0.00    +0.040 A 
ATOM      7  C   UNL     1      -2.701   1.998   9.518  0.00  0.00    +0.059 A 
ATOM      8  S   UNL     1      -2.257   2.047   7.795  0.00  0.00    -0.080 S 
ATOM      9  C   UNL     1      -0.545   1.825   7.926  0.00  0.00    +0.087 A 
BRANCH   6  10
ATOM     10  C   UNL     1      -1.409   1.725  11.615  0.00  0.00    +0.136 A 
ATOM     11  C   UNL     1      -1.951   2.596  12.508  0.00  0.00    +0.050 A 
ATOM     12  C   UNL     1      -1.614   2.122  13.793  0.00  0.00    +0.042 A 
ATOM     13  C   UNL     1      -0.884   1.003  13.622  0.00  0.00    +0.196 A 
ATOM     14  O   UNL     1      -0.762   0.766  12.305  0.00  0.00    -0.463 OA
ENDBRANCH   6  10
BRANCH   5  15
ATOM     15  C   UNL     1       1.004   1.530   9.852  0.00  0.00    +0.342 C 
ATOM     16  O   UNL     1       1.687   2.493  10.142  0.00  0.00    -0.245 OA
BRANCH  15  17
ATOM     17  O   UNL     1       1.480   0.282  10.045  0.00  0.00    -0.461 OA
BRANCH  17  19
ATOM     18  C   UNL     1       3.159  -1.311  10.739  0.00  0.00    +0.048 C 
ATOM     19  C   UNL     1       2.795   0.168  10.594  0.00  0.00    +0.229 C 
ENDBRANCH  17  19
ENDBRANCH  15  17
ENDBRANCH   5  15
ENDBRANCH   1   9
BRANCH   2  20
ATOM     20  C   UNL     1       1.020   1.825   4.515  0.00  0.00    +0.214 C 
BRANCH  20  21
ATOM     21  N   UNL     1       0.347   1.978   3.223  0.00  0.00    -0.215 N 
ATOM     22  C   UNL     1      -0.135   0.952   2.493  0.00  0.00    +0.251 C 
ATOM     23  O   UNL     1      -0.096  -0.228   2.770  0.00  0.00    -0.272 OA
ATOM     24  C   UNL     1      -0.734   1.581   1.255  0.00  0.00    +0.138 C 
ATOM     25  C   UNL     1      -0.013   1.086   0.008  0.00  0.00    +0.040 C 
ATOM     26  C   UNL     1      -0.763   1.598  -1.228  0.00  0.00    +0.008 C 
ATOM     27  C   UNL     1      -2.107   0.877  -1.311  0.00  0.00    +0.035 C 
ATOM     28  C   UNL     1      -2.844   0.972  -0.001  0.00  0.00    -0.042 A 
ATOM     29  C   UNL     1      -2.212   1.294   1.181  0.00  0.00    -0.012 A 
ATOM     30  C   UNL     1      -2.948   1.361   2.357  0.00  0.00    +0.006 A 
ATOM     31  C   UNL     1      -4.305   1.111   2.350  0.00  0.00    +0.000 A 
ATOM     32  C   UNL     1      -4.939   0.791   1.164  0.00  0.00    +0.000 A 
ATOM     33  C   UNL     1      -4.209   0.722  -0.005  0.00  0.00    +0.004 A 
ATOM     34  N   UNL     1      -0.504   3.021   1.442  0.00  0.00    -0.281 N 
ATOM     35  C   UNL     1       0.135   3.155   2.620  0.00  0.00    +0.310 C 
ATOM     36  O   UNL     1       0.480   4.224   3.084  0.00  0.00    -0.252 OA
ATOM     37  H   UNL     1      -0.761   3.733   0.837  0.00  0.00    +0.152 HD
ENDBRANCH  20  21
ENDBRANCH   2  20
TORSDOF 7
