REMARK  Name = ZINC41014400
REMARK  7 active torsions:
REMARK  status: ('A' for Active; 'I' for Inactive)
REMARK    1  A    between atoms: C_1  and  C_2
REMARK    2  A    between atoms: N_6  and  C_28
REMARK    3  A    between atoms: C_9  and  N_14
REMARK    4  A    between atoms: C_15  and  C_17
REMARK    5  A    between atoms: C_19  and  C_24
REMARK    6  A    between atoms: C_21  and  C_22
REMARK    7  A    between atoms: C_21  and  C_23
REMARK                            x       y       z     vdW  Elec       q    Type
REMARK                         _______ _______ _______ _____ _____    ______ ____
ROOT
ATOM      1  C   UNL     1      -0.004   1.538   0.047  0.00  0.00    +0.062 C 
ATOM      2  C   UNL     1       0.017   0.008   0.031  0.00  0.00    +0.256 C 
ATOM      3  C   UNL     1      -1.398  -0.513   0.029  0.00  0.00    +0.260 C 
ATOM      4  O   UNL     1      -2.289   0.146  -0.464  0.00  0.00    -0.271 OA
ATOM      5  N   UNL     1      -1.669  -1.717   0.579  0.00  0.00    -0.268 N 
ATOM      6  C   UNL     1      -0.627  -2.443   1.173  0.00  0.00    +0.080 A 
ATOM      7  C   UNL     1      -0.777  -3.790   1.457  0.00  0.00    +0.050 A 
ATOM      8  C   UNL     1       0.266  -4.491   2.047  0.00  0.00    +0.035 A 
ATOM      9  C   UNL     1       1.456  -3.841   2.350  0.00  0.00    +0.027 A 
ATOM     10  C   UNL     1       1.606  -2.497   2.067  0.00  0.00    +0.049 A 
ATOM     11  C   UNL     1       0.569  -1.794   1.478  0.00  0.00    +0.143 A 
ATOM     12  O   UNL     1       0.703  -0.471   1.191  0.00  0.00    -0.478 OA
ATOM     13  C   UNL     1      -3.031  -2.256   0.554  0.00  0.00    +0.138 C 
ENDROOT
BRANCH   8  14
ATOM     14  N   UNL     1       0.119  -5.854   2.336  0.00  0.00    -0.285 N 
ATOM     15  C   UNL     1       1.174  -6.684   2.222  0.00  0.00    +0.221 C 
ATOM     16  O   UNL     1       2.269  -6.240   1.951  0.00  0.00    -0.275 OA
ATOM     17  H   UNL     1      -0.743  -6.199   2.618  0.00  0.00    +0.155 HD
BRANCH  15  18
ATOM     18  C   UNL     1       0.993  -8.166   2.432  0.00  0.00    +0.089 C 
ATOM     19  C   UNL     1       1.140  -9.075   1.210  0.00  0.00    +0.033 C 
ATOM     20  C   UNL     1       2.228  -9.056   2.287  0.00  0.00    -0.016 C 
ATOM     21  C   UNL     1       3.554  -8.374   1.940  0.00  0.00    +0.012 C 
ATOM     22  C   UNL     1       2.333 -10.274   3.207  0.00  0.00    +0.012 C 
BRANCH  19  23
ATOM     23  C   UNL     1       0.254 -10.292   1.138  0.00  0.00    +0.010 C 
ATOM     24  C   UNL     1       0.216 -11.012   0.040  0.00  0.00    +0.103 C 
ATOM     25 CL   UNL     1       1.187 -10.563  -1.327  0.00  0.00    -0.071 Cl
ATOM     26 CL   UNL     1      -0.805 -12.414  -0.043  0.00  0.00    -0.071 Cl
ENDBRANCH  19  23
ENDBRANCH  15  18
ENDBRANCH   8  14
TORSDOF 3
