REMARK  Name = ZINC04957485
REMARK  4 active torsions:
REMARK  status: ('A' for Active; 'I' for Inactive)
REMARK    1  A    between atoms: C_9  and  C_12
REMARK    2  A    between atoms: N_14  and  N_15
REMARK    3  A    between atoms: C_16  and  C_17
REMARK    4  A    between atoms: C_20  and  N_22
REMARK                            x       y       z     vdW  Elec       q    Type
REMARK                         _______ _______ _______ _____ _____    ______ ____
ROOT
ATOM      1  C   UNL     1      -1.260   7.282  -0.044  0.00  0.00    +0.276 C 
ATOM      2  O   UNL     1      -0.196   7.753  -0.369  0.00  0.00    -0.270 OA
ATOM      3  N   UNL     1      -2.323   8.089   0.147  0.00  0.00    -0.204 N 
ATOM      4  H   UNL     1      -3.177   7.711   0.409  0.00  0.00    +0.177 HD
ENDROOT
BRANCH   1  13
ATOM      5  C   UNL     1      -0.091   1.060  -0.497  0.00  0.00    +0.004 A 
ATOM      6  C   UNL     1       1.068   1.732  -0.154  0.00  0.00    +0.004 A 
ATOM      7  C   UNL     1       1.052   3.104   0.005  0.00  0.00    +0.049 A 
ATOM      8  C   UNL     1      -0.126   3.812  -0.178  0.00  0.00    +0.163 A 
ATOM      9  C   UNL     1      -1.292   3.136  -0.520  0.00  0.00    +0.162 A 
ATOM     10  C   UNL     1      -1.268   1.759  -0.685  0.00  0.00    +0.049 A 
ATOM     11  O   UNL     1      -2.460   3.811  -0.701  0.00  0.00    -0.484 OA
ATOM     12  C   UNL     1      -2.362   5.225  -0.903  0.00  0.00    +0.283 C 
ATOM     13  C   UNL     1      -1.399   5.794   0.148  0.00  0.00    +0.297 C 
ATOM     14  O   UNL     1      -0.125   5.164  -0.024  0.00  0.00    -0.472 OA
ENDBRANCH   1  13
BRANCH   3  15
ATOM     15  N   UNL     1      -2.204   9.363  -0.017  0.00  0.00    -0.187 NA
ATOM     16  C   UNL     1      -3.225  10.174   0.285  0.00  0.00    +0.145 C 
BRANCH  16  17
ATOM     17  C   UNL     1      -4.312   9.686   0.982  0.00  0.00    +0.034 A 
ATOM     18  C   UNL     1      -5.604  10.349   1.283  0.00  0.00    +0.019 A 
ATOM     19  C   UNL     1      -6.477   9.622   1.980  0.00  0.00    +0.041 A 
ATOM     20  C   UNL     1      -6.131   8.320   2.383  0.00  0.00    +0.164 A 
ATOM     21  S   UNL     1      -4.529   8.096   1.761  0.00  0.00    -0.064 S 
BRANCH  20  22
ATOM     22  N   UNL     1      -6.956   7.352   3.169  0.00  0.00    +0.063 N 
ATOM     23  O   UNL     1      -8.166   7.688   3.567  0.00  0.00    -0.126 OA
ATOM     24  O   UNL     1      -6.473   6.162   3.463  0.00  0.00    -0.126 OA
ENDBRANCH  20  22
ENDBRANCH  16  17
ENDBRANCH   3  15
TORSDOF 4
