REMARK  Name = ZINC46056676
REMARK  8 active torsions:
REMARK  status: ('A' for Active; 'I' for Inactive)
REMARK    1  A    between atoms: C_1  and  C_2
REMARK    2  A    between atoms: C_5  and  C_30
REMARK    3  A    between atoms: C_6  and  C_8
REMARK    4  A    between atoms: C_8  and  C_10
REMARK    5  A    between atoms: C_18  and  C_29
REMARK    6  A    between atoms: N_20  and  C_21
REMARK    7  A    between atoms: C_23  and  C_28
REMARK    8  A    between atoms: C_25  and  C_27
REMARK                            x       y       z     vdW  Elec       q    Type
REMARK                         _______ _______ _______ _____ _____    ______ ____
ROOT
ATOM      1  C   UNL     1       0.679  -1.842   3.746  0.00  0.00    +0.104 C 
ATOM      2  C   UNL     1       2.132  -1.374   3.878  0.00  0.00    +0.112 C 
ATOM      3  C   UNL     1       3.025  -2.493   4.335  0.00  0.00    +0.219 C 
ATOM      4  O   UNL     1       4.139  -2.585   3.864  0.00  0.00    -0.275 OA
ATOM      5  N   UNL     1       2.626  -3.399   5.253  0.00  0.00    -0.270 N 
ATOM      6  C   UNL     1       1.285  -3.399   5.636  0.00  0.00    +0.133 A 
ATOM      7  C   UNL     1       0.339  -2.678   4.954  0.00  0.00    +0.026 A 
ATOM      8  C   UNL     1      -0.885  -2.878   5.576  0.00  0.00    +0.066 A 
ATOM      9  N   UNL     1      -0.704  -3.697   6.586  0.00  0.00    -0.170 NA
ATOM     10  N   UNL     1       0.658  -4.048   6.638  0.00  0.00    -0.218 N 
ATOM     11  C   UNL     1      -2.196  -2.262   5.163  0.00  0.00    +0.068 C 
ATOM     12  H   UNL     1       3.254  -4.031   5.636  0.00  0.00    +0.156 HD
ENDROOT
BRANCH  10  13
ATOM     13  C   UNL     1       1.255  -4.915   7.563  0.00  0.00    +0.068 A 
ATOM     14  C   UNL     1       2.307  -5.732   7.171  0.00  0.00    +0.031 A 
ATOM     15  C   UNL     1       2.893  -6.586   8.085  0.00  0.00    -0.048 A 
ATOM     16  C   UNL     1       2.433  -6.627   9.389  0.00  0.00    +0.006 A 
ATOM     17  C   UNL     1       1.386  -5.815   9.782  0.00  0.00    -0.048 A 
ATOM     18  C   UNL     1       0.799  -4.955   8.874  0.00  0.00    +0.031 A 
ATOM     19  C   UNL     1       0.887  -5.863  11.203  0.00  0.00    +0.044 C 
ATOM     20  C   UNL     1       4.035  -7.473   7.662  0.00  0.00    +0.044 C 
ENDBRANCH  10  13
BRANCH   1  21
ATOM     21  C   UNL     1       0.524  -2.670   2.496  0.00  0.00    +0.171 C 
ATOM     22  O   UNL     1       0.612  -3.877   2.554  0.00  0.00    -0.291 OA
BRANCH  21  28
ATOM     23  C   UNL     1       0.057   1.497  -0.203  0.00  0.00    +0.044 C 
ATOM     24  C   UNL     1       0.039  -0.006  -0.100  0.00  0.00    -0.050 A 
ATOM     25  C   UNL     1      -0.222  -0.772  -1.223  0.00  0.00    +0.003 A 
ATOM     26  C   UNL     1      -0.240  -2.153  -1.139  0.00  0.00    +0.004 A 
ATOM     27  C   UNL     1       0.001  -2.778   0.066  0.00  0.00    -0.040 A 
ATOM     28  C   UNL     1       0.266  -2.011   1.206  0.00  0.00    +0.021 A 
ATOM     29  C   UNL     1       0.289  -0.616   1.111  0.00  0.00    +0.015 A 
ATOM     30  C   UNL     1      -0.020  -4.282   0.156  0.00  0.00    +0.044 C 
ENDBRANCH  21  28
ENDBRANCH   1  21
TORSDOF 3
