REMARK  Name = ZINC13510591
REMARK  7 active torsions:
REMARK  status: ('A' for Active; 'I' for Inactive)
REMARK    1  A    between atoms: C_1  and  C_2
REMARK    2  A    between atoms: C_3  and  N_12
REMARK    3  A    between atoms: C_13  and  C_15
REMARK    4  A    between atoms: C_15  and  S_16
REMARK    5  A    between atoms: S_16  and  C_17
REMARK    6  A    between atoms: C_24  and  C_26
REMARK    7  A    between atoms: C_30  and  C_34
REMARK                            x       y       z     vdW  Elec       q    Type
REMARK                         _______ _______ _______ _____ _____    ______ ____
ROOT
ATOM      1  S   UNL     1       5.347  -0.197   0.812  0.00  0.00    -0.096 S 
ENDROOT
BRANCH   1   2
ATOM      2  C   UNL     1       5.081   1.489   0.376  0.00  0.00    +0.109 A 
ATOM      3  C   UNL     1       3.777   2.014   0.138  0.00  0.00    +0.043 A 
ATOM      4  C   UNL     1       2.516   1.295   0.208  0.00  0.00    -0.025 A 
ATOM      5  C   UNL     1       1.397   2.005  -0.062  0.00  0.00    -0.004 A 
ATOM      6  S   UNL     1       1.962   3.650  -0.419  0.00  0.00    -0.073 S 
ATOM      7  C   UNL     1       3.693   3.386  -0.206  0.00  0.00    +0.113 A 
ATOM      8  N   UNL     1       4.746   4.173  -0.310  0.00  0.00    -0.225 NA
ATOM      9  C   UNL     1       5.931   3.622  -0.076  0.00  0.00    +0.135 A 
ATOM     10  N   UNL     1       6.087   2.354   0.248  0.00  0.00    -0.225 NA
ATOM     11  C   UNL     1      -0.015   1.508  -0.060  0.00  0.00    +0.046 C 
ATOM     12  C   UNL     1       0.009  -0.027  -0.065  0.00  0.00    -0.009 C 
ATOM     13  C   UNL     1       0.997  -0.505   1.004  0.00  0.00    +0.008 C 
ATOM     14  C   UNL     1       2.427  -0.186   0.567  0.00  0.00    +0.037 C 
ATOM     15  C   UNL     1      -1.389  -0.564   0.247  0.00  0.00    +0.008 C 
BRANCH   9  16
ATOM     16  C   UNL     1       7.158   4.489  -0.186  0.00  0.00    +0.057 C 
ATOM     17  C   UNL     1       8.521   3.798  -0.112  0.00  0.00    +0.012 C 
ATOM     18  C   UNL     1       8.028   4.644   1.064  0.00  0.00    +0.012 C 
ENDBRANCH   9  16
ENDBRANCH   1   2
BRANCH   1  19
ATOM     19  C   UNL     1       7.151  -0.202   0.964  0.00  0.00    +0.171 C 
BRANCH  19  21
ATOM     20  N   UNL     1       8.934  -1.826   1.513  0.00  0.00    -0.279 N 
ATOM     21  C   UNL     1       7.619  -1.583   1.343  0.00  0.00    +0.228 C 
ATOM     22  O   UNL     1       6.812  -2.477   1.495  0.00  0.00    -0.275 OA
ATOM     23  H   UNL     1       9.584  -1.131   1.325  0.00  0.00    +0.155 HD
BRANCH  20  26
ATOM     24  C   UNL     1      10.407  -1.979   3.921  0.00  0.00    +0.065 C 
ATOM     25  C   UNL     1      10.072  -3.204   3.110  0.00  0.00    +0.044 A 
ATOM     26  C   UNL     1       9.363  -3.088   1.962  0.00  0.00    +0.118 A 
ATOM     27  C   UNL     1       9.066  -4.259   1.214  0.00  0.00    +0.276 A 
ATOM     28  O   UNL     1       8.434  -4.181   0.176  0.00  0.00    -0.266 OA
ATOM     29  N   UNL     1       9.490  -5.457   1.665  0.00  0.00    -0.274 N 
ATOM     30  H   UNL     1       9.284  -6.285   1.145  0.00  0.00    +0.173 HD
ATOM     31  C   UNL     1      10.188  -5.543   2.812  0.00  0.00    +0.327 A 
ATOM     32  O   UNL     1      10.563  -6.631   3.204  0.00  0.00    -0.247 OA
ATOM     33  N   UNL     1      10.478  -4.444   3.532  0.00  0.00    -0.310 N 
ATOM     34  H   UNL     1      10.995  -4.532   4.384  0.00  0.00    +0.170 HD
ENDBRANCH  20  26
ENDBRANCH  19  21
ENDBRANCH   1  19
TORSDOF 5
