REMARK  Name = ZINC37016239
REMARK  6 active torsions:
REMARK  status: ('A' for Active; 'I' for Inactive)
REMARK    1  A    between atoms: C_1  and  C_2
REMARK    2  A    between atoms: C_7  and  C_8
REMARK    3  A    between atoms: C_7  and  C_9
REMARK    4  A    between atoms: C_11  and  N_13
REMARK    5  A    between atoms: C_14  and  C_16
REMARK    6  A    between atoms: C_19  and  N_22
REMARK                            x       y       z     vdW  Elec       q    Type
REMARK                         _______ _______ _______ _____ _____    ______ ____
ROOT
ATOM      1  N   UNL     1      -0.124  -0.708  -2.377  0.00  0.00    -0.308 N 
ATOM      2  C   UNL     1      -0.275   0.393  -3.139  0.00  0.00    +0.244 C 
ATOM      3  O   UNL     1       0.310   1.419  -2.848  0.00  0.00    -0.270 OA
ATOM      4  H   UNL     1      -0.590  -1.527  -2.609  0.00  0.00    +0.149 HD
ENDROOT
BRANCH   1  14
ATOM      5  C   UNL     1      -0.267   1.301   0.201  0.00  0.00    +0.013 C 
ATOM      6  C   UNL     1      -0.061  -0.208   0.056  0.00  0.00    -0.008 C 
ATOM      7  C   UNL     1      -1.358  -1.075   0.051  0.00  0.00    +0.009 C 
ATOM      8  C   UNL     1      -0.877  -2.499   0.412  0.00  0.00    +0.005 C 
ATOM      9  C   UNL     1       0.665  -2.358   0.600  0.00  0.00    -0.003 C 
ATOM     10  C   UNL     1       0.753  -0.910   1.199  0.00  0.00    -0.025 C 
ATOM     11  C   UNL     1       0.048  -0.805   2.553  0.00  0.00    +0.012 C 
ATOM     12  C   UNL     1       2.195  -0.405   1.269  0.00  0.00    +0.012 C 
ATOM     13  C   UNL     1       1.215  -2.131  -0.841  0.00  0.00    +0.027 C 
ATOM     14  C   UNL     1       0.744  -0.669  -1.197  0.00  0.00    +0.080 C 
ENDBRANCH   1  14
BRANCH   2  15
ATOM     15  C   UNL     1      -1.149   0.353  -4.327  0.00  0.00    +0.037 A 
ATOM     16  C   UNL     1      -1.825  -0.824  -4.660  0.00  0.00    +0.015 A 
ATOM     17  C   UNL     1      -2.640  -0.857  -5.768  0.00  0.00    +0.023 A 
ATOM     18  C   UNL     1      -2.791   0.280  -6.558  0.00  0.00    +0.025 A 
ATOM     19  C   UNL     1      -2.118   1.453  -6.229  0.00  0.00    +0.023 A 
ATOM     20  C   UNL     1      -1.306   1.495  -5.119  0.00  0.00    +0.015 A 
BRANCH  18  21
ATOM     21  N   UNL     1      -3.615   0.242  -7.678  0.00  0.00    -0.358 N 
ATOM     22  H   UNL     1      -4.084  -0.575  -7.907  0.00  0.00    +0.142 HD
ATOM     23  H   UNL     1      -3.720   1.034  -8.229  0.00  0.00    +0.142 HD
ENDBRANCH  18  21
ENDBRANCH   2  15
TORSDOF 3
