REMARK  Name = ZINC36235404
REMARK  14 active torsions:
REMARK  status: ('A' for Active; 'I' for Inactive)
REMARK    1  A    between atoms: C_1  and  C_2
REMARK    2  A    between atoms: C_2  and  O_3
REMARK    3  A    between atoms: O_3  and  C_4
REMARK    4  A    between atoms: C_6  and  C_14
REMARK    5  A    between atoms: C_8  and  N_11
REMARK    6  A    between atoms: C_9  and  O_10
REMARK    7  A    between atoms: N_15  and  N_16
REMARK    8  A    between atoms: C_17  and  C_19
REMARK    9  A    between atoms: C_19  and  N_30
REMARK   10  A    between atoms: C_20  and  C_21
REMARK   11  A    between atoms: C_24  and  N_27
REMARK   12  A    between atoms: N_27  and  C_28
REMARK   13  A    between atoms: N_27  and  C_29
REMARK   14  A    between atoms: C_31  and  C_33
REMARK                            x       y       z     vdW  Elec       q    Type
REMARK                         _______ _______ _______ _____ _____    ______ ____
ROOT
ATOM      1  C   UNL     1      -1.243  -9.598   2.041  0.00  0.00    +0.098 C 
ATOM      2  C   UNL     1      -0.848 -10.877   1.827  0.00  0.00    +0.036 C 
ENDROOT
BRANCH   2   3
ATOM      3  C   UNL     1      -1.214 -11.928   2.786  0.00  0.00    -0.023 A 
ATOM      4  C   UNL     1      -2.376 -11.803   3.556  0.00  0.00    +0.010 A 
ATOM      5  C   UNL     1      -2.714 -12.790   4.453  0.00  0.00    +0.023 A 
ATOM      6  C   UNL     1      -1.903 -13.913   4.595  0.00  0.00    +0.029 A 
ATOM      7  C   UNL     1      -0.747 -14.042   3.831  0.00  0.00    +0.023 A 
ATOM      8  C   UNL     1      -0.404 -13.062   2.927  0.00  0.00    +0.010 A 
BRANCH   6   9
ATOM      9  N   UNL     1      -2.249 -14.909   5.504  0.00  0.00    -0.336 N 
ATOM     10  C   UNL     1      -3.386 -14.714   6.407  0.00  0.00    +0.129 C 
ATOM     11  C   UNL     1      -1.476 -16.153   5.557  0.00  0.00    +0.129 C 
ENDBRANCH   6   9
ENDBRANCH   2   3
BRANCH   1  13
ATOM     12  N   UNL     1      -1.233  -7.269   1.319  0.00  0.00    -0.202 N 
ATOM     13  C   UNL     1      -0.840  -8.540   1.107  0.00  0.00    +0.277 C 
ATOM     14  O   UNL     1      -0.152  -8.812   0.140  0.00  0.00    -0.267 OA
ATOM     15  H   UNL     1      -1.781  -7.053   2.090  0.00  0.00    +0.178 HD
BRANCH  12  17
ATOM     16  C   UNL     1      -1.226  -5.034   0.633  0.00  0.00    +0.138 C 
ATOM     17  N   UNL     1      -0.848  -6.259   0.428  0.00  0.00    -0.187 NA
BRANCH  16  20
ATOM     18  C   UNL     1      -0.845  -1.659  -0.969  0.00  0.00    +0.165 A 
ATOM     19  C   UNL     1      -1.228  -2.652  -0.087  0.00  0.00    +0.059 A 
ATOM     20  C   UNL     1      -0.822  -3.971  -0.305  0.00  0.00    +0.000 A 
ATOM     21  C   UNL     1      -0.031  -4.280  -1.415  0.00  0.00    +0.046 A 
ATOM     22  C   UNL     1       0.346  -3.284  -2.291  0.00  0.00    +0.172 A 
ATOM     23  C   UNL     1      -0.062  -1.976  -2.077  0.00  0.00    +0.189 A 
BRANCH  22  24
ATOM     24  N   UNL     1       1.184  -3.613  -3.466  0.00  0.00    +0.060 N 
ATOM     25  O   UNL     1       1.537  -4.754  -3.657  0.00  0.00    -0.126 OA
ATOM     26  O   UNL     1       1.516  -2.741  -4.235  0.00  0.00    -0.126 OA
ENDBRANCH  22  24
BRANCH  23  27
ATOM     27  O   UNL     1       0.309  -0.999  -2.947  0.00  0.00    -0.502 OA
ATOM     28  H   UNL     1       1.146  -0.570  -2.723  0.00  0.00    +0.292 HD
ENDBRANCH  23  27
BRANCH  18  29
ATOM     29  O   UNL     1      -1.239  -0.374  -0.759  0.00  0.00    -0.488 OA
BRANCH  29  31
ATOM     30  C   UNL     1      -2.383   1.368   0.464  0.00  0.00    +0.048 C 
ATOM     31  C   UNL     1      -2.041  -0.122   0.396  0.00  0.00    +0.226 C 
ENDBRANCH  29  31
ENDBRANCH  18  29
ENDBRANCH  16  20
ENDBRANCH  12  17
ENDBRANCH   1  13
BRANCH   1  32
ATOM     32  N   UNL     1      -2.034  -9.287   3.152  0.00  0.00    -0.277 N 
ATOM     33  C   UNL     1      -3.235  -8.700   2.980  0.00  0.00    +0.248 C 
ATOM     34  O   UNL     1      -3.666  -8.512   1.859  0.00  0.00    -0.270 OA
ATOM     35  H   UNL     1      -1.719  -9.493   4.045  0.00  0.00    +0.155 HD
BRANCH  33  36
ATOM     36  C   UNL     1      -4.029  -8.284   4.156  0.00  0.00    +0.037 A 
ATOM     37  C   UNL     1      -3.489  -8.387   5.439  0.00  0.00    +0.013 A 
ATOM     38  C   UNL     1      -4.236  -7.997   6.531  0.00  0.00    +0.001 A 
ATOM     39  C   UNL     1      -5.517  -7.506   6.358  0.00  0.00    +0.000 A 
ATOM     40  C   UNL     1      -6.059  -7.402   5.089  0.00  0.00    +0.001 A 
ATOM     41  C   UNL     1      -5.321  -7.782   3.987  0.00  0.00    +0.013 A 
ENDBRANCH  33  36
ENDBRANCH   1  32
TORSDOF 11
