REMARK  Name = ZINC51614349
REMARK  10 active torsions:
REMARK  status: ('A' for Active; 'I' for Inactive)
REMARK    1  A    between atoms: C_1  and  C_2
REMARK    2  A    between atoms: C_2  and  C_3
REMARK    3  A    between atoms: C_3  and  C_4
REMARK    4  A    between atoms: C_4  and  C_6
REMARK    5  A    between atoms: C_4  and  N_7
REMARK    6  A    between atoms: C_8  and  C_10
REMARK    7  A    between atoms: N_19  and  C_20
REMARK    8  A    between atoms: C_23  and  C_27
REMARK    9  A    between atoms: C_25  and  C_26
REMARK   10  A    between atoms: N_29  and  C_30
REMARK                            x       y       z     vdW  Elec       q    Type
REMARK                         _______ _______ _______ _____ _____    ______ ____
ROOT
ATOM      1  C   UNL     1      -1.976  -4.367   1.745  0.00  0.00    +0.092 C 
ATOM      2  C   UNL     1      -2.119  -5.575   0.816  0.00  0.00    +0.016 C 
ATOM      3  C   UNL     1      -3.603  -5.896   0.619  0.00  0.00    +0.020 C 
ATOM      4  C   UNL     1      -4.229  -6.250   1.971  0.00  0.00    +0.109 C 
ATOM      5  N   UNL     1      -3.969  -5.153   2.914  0.00  0.00    -0.285 N 
ATOM      6  C   UNL     1      -2.584  -4.703   3.111  0.00  0.00    +0.122 C 
ATOM      7  C   UNL     1      -4.981  -4.570   3.586  0.00  0.00    +0.306 C 
ATOM      8  O   UNL     1      -4.746  -3.727   4.430  0.00  0.00    -0.252 OA
ATOM      9  N   UNL     1      -6.256  -4.922   3.322  0.00  0.00    -0.269 N 
ATOM     10  H   UNL     1      -6.441  -5.651   2.710  0.00  0.00    +0.156 HD
ENDROOT
BRANCH   9  11
ATOM     11  C   UNL     1      -7.308  -4.239   3.931  0.00  0.00    +0.038 A 
ATOM     12  C   UNL     1      -7.108  -2.952   4.421  0.00  0.00    +0.024 A 
ATOM     13  C   UNL     1      -8.144  -2.274   5.022  0.00  0.00    +0.015 A 
ATOM     14  C   UNL     1      -9.399  -2.880   5.139  0.00  0.00    +0.037 A 
ATOM     15  C   UNL     1      -9.596  -4.172   4.645  0.00  0.00    +0.018 A 
ATOM     16  C   UNL     1      -8.556  -4.842   4.040  0.00  0.00    -0.028 A 
ATOM     17  C   UNL     1      -8.770  -6.234   3.502  0.00  0.00    +0.045 C 
BRANCH  14  18
ATOM     18  C   UNL     1     -10.512  -2.156   5.783  0.00  0.00    +0.244 C 
ATOM     19  O   UNL     1     -11.603  -2.684   5.884  0.00  0.00    -0.270 OA
ATOM     20  N   UNL     1     -10.320  -0.910   6.260  0.00  0.00    -0.314 N 
ATOM     21  C   UNL     1     -11.425  -0.192   6.899  0.00  0.00    +0.128 C 
ATOM     22  H   UNL     1      -9.450  -0.489   6.179  0.00  0.00    +0.149 HD
ENDBRANCH  14  18
ENDBRANCH   9  11
BRANCH   1  24
ATOM     23  N   UNL     1      -0.148  -2.998   2.695  0.00  0.00    -0.312 N 
ATOM     24  C   UNL     1      -0.517  -4.032   1.913  0.00  0.00    +0.218 C 
ATOM     25  O   UNL     1       0.327  -4.693   1.344  0.00  0.00    -0.275 OA
ATOM     26  H   UNL     1      -0.823  -2.469   3.150  0.00  0.00    +0.149 HD
BRANCH  23  27
ATOM     27  C   UNL     1       1.271  -2.672   2.858  0.00  0.00    +0.070 C 
ATOM     28  C   UNL     1       1.868  -3.536   3.971  0.00  0.00    +0.028 C 
BRANCH  27  29
ATOM     29  C   UNL     1       1.416  -1.194   3.226  0.00  0.00    +0.022 C 
BRANCH  29  31
ATOM     30  C   UNL     1       1.078   1.149   2.429  0.00  0.00    +0.004 C 
ATOM     31  C   UNL     1       0.933  -0.328   2.061  0.00  0.00    -0.002 C 
ENDBRANCH  29  31
ENDBRANCH  27  29
ENDBRANCH  23  27
ENDBRANCH   1  24
TORSDOF 6
