REMARK  Name = ZINC21896581
REMARK  6 active torsions:
REMARK  status: ('A' for Active; 'I' for Inactive)
REMARK    1  A    between atoms: C_1  and  C_2
REMARK    2  A    between atoms: C_2  and  N_3
REMARK    3  A    between atoms: C_12  and  C_14
REMARK    4  A    between atoms: N_16  and  N_17
REMARK    5  A    between atoms: C_18  and  C_20
REMARK    6  A    between atoms: C_20  and  C_21
REMARK                            x       y       z     vdW  Elec       q    Type
REMARK                         _______ _______ _______ _____ _____    ______ ____
ROOT
ATOM      1  N   UNL     1       4.240   5.842  -1.668  0.00  0.00    -0.234 N 
ATOM      2  C   UNL     1       2.928   6.015  -1.409  0.00  0.00    +0.234 C 
ATOM      3  O   UNL     1       2.128   6.030  -2.320  0.00  0.00    -0.274 OA
ATOM      4  H   UNL     1       4.966   5.827  -0.842  0.00  0.00    +0.173 HD
ENDROOT
BRANCH   1   7
ATOM      5  C   UNL     1       5.989   5.507  -3.248  0.00  0.00    +0.281 C 
ATOM      6  O   UNL     1       6.792   5.491  -2.334  0.00  0.00    -0.267 OA
ATOM      7  N   UNL     1       4.678   5.680  -2.989  0.00  0.00    -0.229 N 
ATOM      8  H   UNL     1       3.952   5.694  -3.815  0.00  0.00    +0.173 HD
BRANCH   5  18
ATOM      9  N   UNL     1       5.910   5.212  -6.861  0.00  0.00    -0.229 N 
ATOM     10  C   UNL     1       7.177   5.030  -7.287  0.00  0.00    +0.275 A 
ATOM     11  O   UNL     1       7.423   4.902  -8.472  0.00  0.00    -0.266 OA
ATOM     12  C   UNL     1       8.253   4.990  -6.287  0.00  0.00    +0.050 A 
ATOM     13  C   UNL     1       9.591   4.808  -6.623  0.00  0.00    +0.014 A 
ATOM     14  C   UNL     1      10.541   4.783  -5.624  0.00  0.00    +0.001 A 
ATOM     15  C   UNL     1      10.176   4.937  -4.293  0.00  0.00    +0.001 A 
ATOM     16  C   UNL     1       8.855   5.119  -3.940  0.00  0.00    +0.011 A 
ATOM     17  C   UNL     1       7.882   5.153  -4.932  0.00  0.00    +0.020 A 
ATOM     18  C   UNL     1       6.451   5.337  -4.639  0.00  0.00    +0.155 A 
ATOM     19  N   UNL     1       5.592   5.352  -5.630  0.00  0.00    -0.163 NA
BRANCH   9  21
ATOM     20  C   UNL     1       4.304   3.838  -8.090  0.00  0.00    +0.029 C 
ATOM     21  C   UNL     1       4.841   5.252  -7.862  0.00  0.00    +0.144 C 
ENDBRANCH   9  21
ENDBRANCH   5  18
ENDBRANCH   1   7
BRANCH   2  22
ATOM     22  C   UNL     1       2.457   6.189   0.011  0.00  0.00    +0.136 C 
BRANCH  22  23
ATOM     23  C   UNL     1       0.960   6.363   0.026  0.00  0.00    +0.007 A 
ATOM     24  C   UNL     1       0.282   7.522   0.038  0.00  0.00    +0.200 A 
ATOM     25  O   UNL     1      -1.039   7.280   0.050  0.00  0.00    -0.463 OA
ATOM     26  C   UNL     1      -1.285   5.954   0.045  0.00  0.00    +0.136 A 
ATOM     27  C   UNL     1      -0.047   5.304   0.030  0.00  0.00    +0.031 A 
ATOM     28  C   UNL     1      -0.006   3.847   0.023  0.00  0.00    -0.007 A 
ATOM     29  C   UNL     1       1.202   3.142   0.007  0.00  0.00    +0.009 A 
ATOM     30  C   UNL     1       1.189   1.778   0.000  0.00  0.00    +0.001 A 
ATOM     31  C   UNL     1      -0.013   1.076   0.008  0.00  0.00    +0.001 A 
ATOM     32  C   UNL     1      -1.207   1.731   0.017  0.00  0.00    +0.008 A 
ATOM     33  C   UNL     1      -1.230   3.135   0.031  0.00  0.00    -0.017 A 
ATOM     34  C   UNL     1      -2.445   3.846   0.045  0.00  0.00    +0.012 A 
ATOM     35  C   UNL     1      -2.465   5.202   0.052  0.00  0.00    +0.047 A 
ENDBRANCH  22  23
ENDBRANCH   2  22
TORSDOF 5
