REMARK  Name = ZINC46718323
REMARK  5 active torsions:
REMARK  status: ('A' for Active; 'I' for Inactive)
REMARK    1  A    between atoms: C_3  and  N_23
REMARK    2  A    between atoms: C_6  and  C_7
REMARK    3  A    between atoms: C_7  and  N_8
REMARK    4  A    between atoms: C_9  and  C_11
REMARK    5  A    between atoms: C_14  and  C_16
REMARK                            x       y       z     vdW  Elec       q    Type
REMARK                         _______ _______ _______ _____ _____    ______ ____
ROOT
ATOM      1  N   UNL     1      -1.737  -0.999  -1.367  0.00  0.00    -0.306 N 
ATOM      2  C   UNL     1      -2.880  -1.672  -1.606  0.00  0.00    +0.263 C 
ATOM      3  O   UNL     1      -3.544  -2.091  -0.677  0.00  0.00    -0.269 OA
ATOM      4  H   UNL     1      -1.207  -0.665  -2.108  0.00  0.00    +0.149 HD
ENDROOT
BRANCH   2   5
ATOM      5  C   UNL     1      -3.326  -1.899  -2.991  0.00  0.00    +0.133 A 
ATOM      6  C   UNL     1      -4.489  -2.577  -3.245  0.00  0.00    +0.080 A 
ATOM      7  S   UNL     1      -4.553  -2.572  -4.926  0.00  0.00    -0.075 S 
ATOM      8  C   UNL     1      -3.042  -1.676  -5.237  0.00  0.00    +0.109 A 
ATOM      9  N   UNL     1      -2.609  -1.446  -4.011  0.00  0.00    -0.234 NA
BRANCH   8  10
ATOM     10  C   UNL     1      -2.437  -1.287  -6.529  0.00  0.00    +0.007 A 
ATOM     11  C   UNL     1      -1.231  -0.585  -6.554  0.00  0.00    +0.012 A 
ATOM     12  C   UNL     1      -0.671  -0.225  -7.763  0.00  0.00    +0.020 A 
ATOM     13  C   UNL     1      -1.303  -0.559  -8.948  0.00  0.00    +0.041 A 
ATOM     14  C   UNL     1      -2.500  -1.256  -8.929  0.00  0.00    +0.020 A 
ATOM     15  C   UNL     1      -3.066  -1.627  -7.727  0.00  0.00    +0.012 A 
ATOM     16 CL   UNL     1      -0.593  -0.102 -10.465  0.00  0.00    -0.084 Cl
ENDBRANCH   8  10
ENDBRANCH   2   5
BRANCH   1  17
ATOM     17  C   UNL     1      -1.294  -0.773   0.011  0.00  0.00    +0.140 C 
BRANCH  17  23
ATOM     18  C   UNL     1      -0.017   1.379   0.026  0.00  0.00    +0.007 A 
ATOM     19  C   UNL     1       1.169   2.087   0.018  0.00  0.00    +0.023 A 
ATOM     20  C   UNL     1       2.381   1.409  -0.013  0.00  0.00    +0.030 A 
ATOM     21  C   UNL     1       2.396   0.020  -0.037  0.00  0.00    +0.023 A 
ATOM     22  C   UNL     1       1.207  -0.682  -0.029  0.00  0.00    +0.007 A 
ATOM     23  C   UNL     1       0.002  -0.004   0.002  0.00  0.00    -0.030 A 
BRANCH  20  24
ATOM     24  N   UNL     1       3.582   2.122  -0.021  0.00  0.00    -0.320 N 
ATOM     25  C   UNL     1       4.882   1.435   0.066  0.00  0.00    +0.124 C 
ATOM     26  C   UNL     1       5.670   1.740  -1.209  0.00  0.00    +0.123 C 
ATOM     27  N   UNL     1       5.620   3.162  -1.519  0.00  0.00    -0.313 N 
ATOM     28  C   UNL     1       4.682   4.001  -1.078  0.00  0.00    +0.230 C 
ATOM     29  O   UNL     1       4.702   5.149  -1.469  0.00  0.00    -0.274 OA
ATOM     30  C   UNL     1       3.600   3.589  -0.123  0.00  0.00    +0.200 C 
ATOM     31  H   UNL     1       6.319   3.525  -2.087  0.00  0.00    +0.149 HD
ENDBRANCH  20  24
ENDBRANCH  17  23
ENDBRANCH   1  17
TORSDOF 5
