REMARK  Name = ZINC01375229
REMARK  15 active torsions:
REMARK  status: ('A' for Active; 'I' for Inactive)
REMARK    1  A    between atoms: C_1  and  C_2
REMARK    2  A    between atoms: C_2  and  C_3
REMARK    3  A    between atoms: C_3  and  C_5
REMARK    4  A    between atoms: C_3  and  N_15
REMARK    5  A    between atoms: N_9  and  C_10
REMARK    6  A    between atoms: C_10  and  C_11
REMARK    7  A    between atoms: C_10  and  C_12
REMARK    8  A    between atoms: C_10  and  C_13
REMARK    9  A    between atoms: C_13  and  C_14
REMARK   10  A    between atoms: N_15  and  C_16
REMARK   11  A    between atoms: N_15  and  C_26
REMARK   12  A    between atoms: C_16  and  C_17
REMARK   13  A    between atoms: C_26  and  C_27
REMARK   14  A    between atoms: C_30  and  C_40
REMARK   15  A    between atoms: C_32  and  C_39
REMARK                            x       y       z     vdW  Elec       q    Type
REMARK                         _______ _______ _______ _____ _____    ______ ____
ROOT
ATOM      1  N   UNL     1       0.376   0.778  -3.082  0.00  0.00    -0.284 NA
ENDROOT
BRANCH   1   2
ATOM      2  C   UNL     1       0.884   0.001  -1.943  0.00  0.00    +0.127 C 
BRANCH   2   3
ATOM      3  C   UNL     1      -0.178  -0.079  -0.877  0.00  0.00    +0.169 A 
ATOM      4  N   UNL     1      -1.025   0.864  -0.543  0.00  0.00    -0.112 NA
ATOM      5  N   UNL     1      -1.769   0.413   0.407  0.00  0.00    -0.023 NA
ATOM      6  N   UNL     1      -1.419  -0.793   0.688  0.00  0.00    -0.043 NA
ATOM      7  N   UNL     1      -0.445  -1.135  -0.086  0.00  0.00    -0.222 N 
BRANCH   7   8
ATOM      8  C   UNL     1       0.245  -2.427  -0.098  0.00  0.00    +0.061 C 
ATOM      9  C   UNL     1      -0.042  -3.145  -1.419  0.00  0.00    +0.036 C 
ATOM     10  C   UNL     1       1.752  -2.203   0.044  0.00  0.00    +0.036 C 
BRANCH   8  11
ATOM     11  C   UNL     1      -0.255  -3.284   1.067  0.00  0.00    +0.026 C 
ATOM     12  C   UNL     1       0.465  -4.633   1.054  0.00  0.00    +0.006 C 
ENDBRANCH   8  11
ENDBRANCH   7   8
ENDBRANCH   2   3
BRANCH   2  14
ATOM     13  C   UNL     1       3.236   0.688  -2.429  0.00  0.00    +0.006 C 
ATOM     14  C   UNL     1       2.128   0.685  -1.374  0.00  0.00    +0.023 C 
ENDBRANCH   2  14
ENDBRANCH   1   2
BRANCH   1  15
ATOM     15  C   UNL     1       0.947   0.293  -4.346  0.00  0.00    +0.120 C 
BRANCH  15  16
ATOM     16  C   UNL     1       0.259  -0.986  -4.750  0.00  0.00    -0.030 A 
ATOM     17  C   UNL     1       0.829  -2.205  -4.435  0.00  0.00    +0.009 A 
ATOM     18  C   UNL     1       0.202  -3.381  -4.802  0.00  0.00    +0.050 A 
ATOM     19  C   UNL     1      -1.000  -3.340  -5.489  0.00  0.00    +0.166 A 
ATOM     20  C   UNL     1      -1.575  -2.112  -5.807  0.00  0.00    +0.167 A 
ATOM     21  C   UNL     1      -0.944  -0.937  -5.430  0.00  0.00    +0.054 A 
ATOM     22  O   UNL     1      -2.743  -2.337  -6.476  0.00  0.00    -0.453 OA
ATOM     23  C   UNL     1      -2.674  -3.704  -6.922  0.00  0.00    +0.466 C 
ATOM     24  O   UNL     1      -1.809  -4.334  -5.959  0.00  0.00    -0.453 OA
ENDBRANCH  15  16
ENDBRANCH   1  15
BRANCH   1  25
ATOM     25  C   UNL     1       0.640   2.211  -2.901  0.00  0.00    +0.126 C 
BRANCH  25  26
ATOM     26  C   UNL     1      -0.341   2.781  -1.909  0.00  0.00    +0.032 A 
ATOM     27  C   UNL     1       0.081   3.134  -0.669  0.00  0.00    +0.020 A 
ATOM     28  C   UNL     1      -0.896   3.685   0.271  0.00  0.00    +0.002 A 
ATOM     29  C   UNL     1      -0.521   4.068   1.563  0.00  0.00    -0.041 A 
ATOM     30  C   UNL     1      -1.457   4.579   2.417  0.00  0.00    +0.007 A 
ATOM     31  C   UNL     1      -2.778   4.722   2.014  0.00  0.00    -0.048 A 
ATOM     32  C   UNL     1      -3.170   4.351   0.746  0.00  0.00    +0.029 A 
ATOM     33  C   UNL     1      -2.234   3.829  -0.141  0.00  0.00    +0.050 A 
ATOM     34  N   UNL     1      -2.599   3.451  -1.416  0.00  0.00    -0.322 N 
ATOM     35  H   UNL     1      -3.522   3.550  -1.698  0.00  0.00    +0.169 HD
ATOM     36  C   UNL     1      -1.693   2.951  -2.275  0.00  0.00    +0.254 A 
ATOM     37  O   UNL     1      -2.050   2.631  -3.395  0.00  0.00    -0.268 OA
ATOM     38  C   UNL     1      -3.793   5.288   2.973  0.00  0.00    +0.044 C 
ATOM     39  C   UNL     1       0.910   3.917   2.012  0.00  0.00    +0.044 C 
ENDBRANCH  25  26
ENDBRANCH   1  25
TORSDOF 9
