REMARK  Name = ZINC46536181
REMARK  4 active torsions:
REMARK  status: ('A' for Active; 'I' for Inactive)
REMARK    1  A    between atoms: C_1  and  C_2
REMARK    2  A    between atoms: N_11  and  C_12
REMARK    3  A    between atoms: C_12  and  C_14
REMARK    4  A    between atoms: C_12  and  C_15
REMARK                            x       y       z     vdW  Elec       q    Type
REMARK                         _______ _______ _______ _____ _____    ______ ____
ROOT
ATOM      1  C   UNL     1      -0.018   1.526   0.007  0.00  0.00    +0.039 C 
ATOM      2  C   UNL     1       0.003  -0.004  -0.002  0.00  0.00    +0.133 C 
ATOM      3  C   UNL     1      -1.435  -0.536   0.014  0.00  0.00    +0.140 C 
ATOM      4  N   UNL     1      -1.388  -1.995   0.195  0.00  0.00    -0.281 N 
ATOM      5  C   UNL     1      -0.575  -2.530   1.299  0.00  0.00    +0.137 C 
ATOM      6  C   UNL     1       0.821  -1.901   1.221  0.00  0.00    +0.179 C 
ATOM      7  O   UNL     1       0.694  -0.479   1.157  0.00  0.00    -0.374 OA
ATOM      8  C   UNL     1      -2.069  -2.818  -0.627  0.00  0.00    +0.303 C 
ATOM      9  O   UNL     1      -2.807  -2.356  -1.476  0.00  0.00    -0.253 OA
ATOM     10  N   UNL     1      -1.933  -4.154  -0.507  0.00  0.00    -0.292 N 
ATOM     11  H   UNL     1      -1.404  -4.525   0.216  0.00  0.00    +0.151 HD
ENDROOT
BRANCH  10  12
ATOM     12  C   UNL     1      -2.585  -5.045  -1.469  0.00  0.00    +0.108 C 
ATOM     13  C   UNL     1      -1.690  -5.212  -2.699  0.00  0.00    +0.033 C 
BRANCH  12  14
ATOM     14  C   UNL     1      -2.817  -6.391  -0.831  0.00  0.00    +0.011 A 
ATOM     15  C   UNL     1      -3.888  -7.213  -0.938  0.00  0.00    +0.014 A 
ATOM     16  C   UNL     1      -3.883  -8.415  -0.254  0.00  0.00    +0.028 A 
ATOM     17  C   UNL     1      -2.805  -8.734   0.504  0.00  0.00    +0.078 A 
ATOM     18  S   UNL     1      -1.747  -7.317   0.257  0.00  0.00    -0.080 S 
ATOM     19 CL   UNL     1      -2.523 -10.155   1.461  0.00  0.00    -0.076 Cl
ENDBRANCH  12  14
ENDBRANCH  10  12
TORSDOF 2
