REMARK  Name = ZINC35155560
REMARK  10 active torsions:
REMARK  status: ('A' for Active; 'I' for Inactive)
REMARK    1  A    between atoms: C_1  and  C_2
REMARK    2  A    between atoms: C_2  and  C_3
REMARK    3  A    between atoms: C_3  and  C_5
REMARK    4  A    between atoms: C_3  and  C_6
REMARK    5  A    between atoms: C_6  and  C_8
REMARK    6  A    between atoms: C_6  and  N_27
REMARK    7  A    between atoms: C_14  and  C_17
REMARK    8  A    between atoms: N_20  and  C_21
REMARK    9  A    between atoms: C_28  and  C_30
REMARK   10  A    between atoms: C_30  and  C_31
REMARK                            x       y       z     vdW  Elec       q    Type
REMARK                         _______ _______ _______ _____ _____    ______ ____
ROOT
ATOM      1  C   UNL     1      -0.481  -2.152  -0.801  0.00  0.00    +0.236 C 
ATOM      2  O   UNL     1       0.626  -2.347  -0.347  0.00  0.00    -0.274 OA
ATOM      3  N   UNL     1      -0.640  -1.949  -2.124  0.00  0.00    -0.297 N 
ATOM      4  C   UNL     1      -1.981  -1.764  -2.696  0.00  0.00    +0.127 C 
ATOM      5  C   UNL     1      -2.185  -2.797  -3.812  0.00  0.00    +0.128 C 
ATOM      6  N   UNL     1      -1.021  -2.756  -4.708  0.00  0.00    -0.280 N 
ATOM      7  C   UNL     1       0.320  -2.941  -4.136  0.00  0.00    +0.092 C 
ATOM      8  C   UNL     1       0.524  -1.903  -3.019  0.00  0.00    +0.130 C 
ATOM      9  C   UNL     1       0.443  -4.354  -3.561  0.00  0.00    +0.030 C 
ATOM     10  C   UNL     1      -1.180  -2.553  -6.031  0.00  0.00    +0.307 C 
ATOM     11  O   UNL     1      -0.221  -2.616  -6.775  0.00  0.00    -0.252 OA
ATOM     12  N   UNL     1      -2.403  -2.280  -6.528  0.00  0.00    -0.269 N 
ATOM     13  H   UNL     1      -3.159  -2.180  -5.929  0.00  0.00    +0.156 HD
ENDROOT
BRANCH  12  14
ATOM     14  C   UNL     1      -2.581  -2.141  -7.909  0.00  0.00    +0.035 A 
ATOM     15  C   UNL     1      -1.830  -2.909  -8.789  0.00  0.00    +0.023 A 
ATOM     16  C   UNL     1      -2.008  -2.770 -10.151  0.00  0.00    +0.002 A 
ATOM     17  C   UNL     1      -2.934  -1.867 -10.639  0.00  0.00    +0.000 A 
ATOM     18  C   UNL     1      -3.684  -1.100  -9.766  0.00  0.00    +0.002 A 
ATOM     19  C   UNL     1      -3.514  -1.239  -8.403  0.00  0.00    +0.023 A 
ENDBRANCH  12  14
BRANCH   1  20
ATOM     20  C   UNL     1      -1.679  -2.136   0.113  0.00  0.00    +0.162 C 
BRANCH  20  21
ATOM     21  N   UNL     1      -1.417  -2.989   1.275  0.00  0.00    -0.303 N 
ATOM     22  C   UNL     1      -2.444  -3.538   1.953  0.00  0.00    +0.218 C 
ATOM     23  O   UNL     1      -3.585  -3.327   1.601  0.00  0.00    -0.275 OA
ATOM     24  H   UNL     1      -0.504  -3.157   1.557  0.00  0.00    +0.149 HD
BRANCH  22  25
ATOM     25  C   UNL     1      -2.175  -4.415   3.149  0.00  0.00    +0.138 C 
BRANCH  25  26
ATOM     26  C   UNL     1      -3.482  -4.899   3.722  0.00  0.00    -0.001 A 
ATOM     27  C   UNL     1      -4.182  -6.021   3.422  0.00  0.00    +0.011 A 
ATOM     28  C   UNL     1      -5.371  -6.265   4.082  0.00  0.00    +0.008 A 
ATOM     29  C   UNL     1      -5.803  -5.375   5.010  0.00  0.00    +0.045 A 
ATOM     30  S   UNL     1      -4.506  -4.148   4.976  0.00  0.00    -0.101 S 
ENDBRANCH  25  26
ENDBRANCH  22  25
ENDBRANCH  20  21
BRANCH  20  31
ATOM     31  C   UNL     1      -1.945  -0.704   0.581  0.00  0.00    +0.015 C 
ATOM     32  C   UNL     1      -2.329   0.162  -0.621  0.00  0.00    +0.010 C 
BRANCH  31  34
ATOM     33  C   UNL     1      -0.985   1.246   1.813  0.00  0.00    +0.004 C 
ATOM     34  C   UNL     1      -0.683  -0.138   1.235  0.00  0.00    +0.002 C 
ENDBRANCH  31  34
ENDBRANCH  20  31
ENDBRANCH   1  20
TORSDOF 7
