REMARK  Name = ZINC12610135
REMARK  7 active torsions:
REMARK  status: ('A' for Active; 'I' for Inactive)
REMARK    1  A    between atoms: C_1  and  C_2
REMARK    2  A    between atoms: C_5  and  N_12
REMARK    3  A    between atoms: C_7  and  C_8
REMARK    4  A    between atoms: N_12  and  C_13
REMARK    5  A    between atoms: C_13  and  C_15
REMARK    6  A    between atoms: C_13  and  C_16
REMARK    7  A    between atoms: N_18  and  C_19
REMARK                            x       y       z     vdW  Elec       q    Type
REMARK                         _______ _______ _______ _____ _____    ______ ____
ROOT
ATOM      1  C   UNL     1       0.074   5.573  -0.569  0.00  0.00    +0.237 C 
ATOM      2  O   UNL     1       1.169   5.920  -0.959  0.00  0.00    -0.273 OA
ATOM      3  N   UNL     1      -0.972   6.418  -0.661  0.00  0.00    -0.284 N 
ATOM      4  H   UNL     1      -1.860   6.118  -0.411  0.00  0.00    +0.155 HD
ENDROOT
BRANCH   3   5
ATOM      5  C   UNL     1      -0.777   7.728  -1.116  0.00  0.00    +0.036 A 
ATOM      6  C   UNL     1      -1.536   8.766  -0.588  0.00  0.00    +0.025 A 
ATOM      7  C   UNL     1      -1.344  10.060  -1.028  0.00  0.00    +0.029 A 
ATOM      8  C   UNL     1      -0.400  10.325  -2.010  0.00  0.00    +0.067 A 
ATOM      9  C   UNL     1       0.359   9.283  -2.546  0.00  0.00    +0.069 A 
ATOM     10  C   UNL     1       0.168   7.986  -2.098  0.00  0.00    +0.051 A 
ATOM     11  N   UNL     1       1.208   9.850  -3.494  0.00  0.00    -0.306 N 
ATOM     12  H   UNL     1       1.855   9.372  -4.035  0.00  0.00    +0.170 HD
ATOM     13  C   UNL     1       0.976  11.176  -3.533  0.00  0.00    +0.325 A 
ATOM     14  O   UNL     1       1.551  11.967  -4.257  0.00  0.00    -0.247 OA
ATOM     15  N   UNL     1       0.011  11.494  -2.649  0.00  0.00    -0.306 N 
ATOM     16  H   UNL     1      -0.338  12.384  -2.486  0.00  0.00    +0.170 HD
ENDBRANCH   3   5
BRANCH   1  17
ATOM     17  C   UNL     1      -0.116   4.199   0.019  0.00  0.00    +0.154 C 
ATOM     18  C   UNL     1      -0.617   4.324   1.459  0.00  0.00    +0.038 C 
BRANCH  17  19
ATOM     19  N   UNL     1       1.162   3.482   0.007  0.00  0.00    -0.333 N 
ATOM     20  H   UNL     1       1.996   3.977   0.009  0.00  0.00    +0.147 HD
BRANCH  19  25
ATOM     21  C   UNL     1       1.230  -2.188  -0.051  0.00  0.00    +0.044 C 
ATOM     22  C   UNL     1       1.212  -0.682  -0.035  0.00  0.00    -0.039 A 
ATOM     23  C   UNL     1       0.005  -0.006  -0.024  0.00  0.00    +0.006 A 
ATOM     24  C   UNL     1      -0.015   1.374  -0.009  0.00  0.00    +0.023 A 
ATOM     25  C   UNL     1       1.179   2.085  -0.007  0.00  0.00    +0.028 A 
ATOM     26  C   UNL     1       2.389   1.404  -0.018  0.00  0.00    +0.035 A 
ATOM     27  C   UNL     1       2.402   0.022  -0.033  0.00  0.00    +0.059 A 
BRANCH  27  28
ATOM     28  C   UNL     1       3.714  -0.718  -0.047  0.00  0.00    +0.418 C 
ATOM     29  F   UNL     1       4.769   0.202  -0.042  0.00  0.00    -0.166 F 
ATOM     30  F   UNL     1       3.802  -1.534   1.086  0.00  0.00    -0.166 F 
ATOM     31  F   UNL     1       3.791  -1.509  -1.198  0.00  0.00    -0.166 F 
ENDBRANCH  27  28
ENDBRANCH  19  25
ENDBRANCH  17  19
ENDBRANCH   1  17
TORSDOF 5
