REMARK  Name = ZINC13255200
REMARK  8 active torsions:
REMARK  status: ('A' for Active; 'I' for Inactive)
REMARK    1  A    between atoms: C_1  and  C_2
REMARK    2  A    between atoms: C_2  and  C_3
REMARK    3  A    between atoms: C_5  and  S_22
REMARK    4  A    between atoms: C_8  and  N_9
REMARK    5  A    between atoms: C_10  and  C_12
REMARK    6  A    between atoms: C_12  and  C_13
REMARK    7  A    between atoms: C_13  and  C_20
REMARK    8  A    between atoms: S_22  and  C_23
REMARK                            x       y       z     vdW  Elec       q    Type
REMARK                         _______ _______ _______ _____ _____    ______ ____
ROOT
ATOM      1  N   UNL     1       6.303   3.080   1.521  0.00  0.00    -0.285 N 
ATOM      2  C   UNL     1       6.925   2.000   1.008  0.00  0.00    +0.218 C 
ATOM      3  O   UNL     1       6.504   0.888   1.247  0.00  0.00    -0.275 OA
ATOM      4  H   UNL     1       6.587   3.972   1.263  0.00  0.00    +0.155 HD
ENDROOT
BRANCH   1  10
ATOM      5  C   UNL     1       4.982   3.901   3.370  0.00  0.00    -0.025 A 
ATOM      6  C   UNL     1       3.941   3.740   4.263  0.00  0.00    +0.021 A 
ATOM      7  C   UNL     1       3.160   2.592   4.218  0.00  0.00    +0.023 A 
ATOM      8  C   UNL     1       3.430   1.604   3.279  0.00  0.00    +0.017 A 
ATOM      9  C   UNL     1       4.466   1.769   2.383  0.00  0.00    +0.025 A 
ATOM     10  C   UNL     1       5.247   2.916   2.427  0.00  0.00    +0.037 A 
BRANCH   5  12
ATOM     11  C   UNL     1       5.293   6.168   2.414  0.00  0.00    +0.009 C 
ATOM     12  C   UNL     1       5.830   5.146   3.418  0.00  0.00    +0.033 C 
ENDBRANCH   5  12
BRANCH   7  13
ATOM     13  S   UNL     1       1.832   2.386   5.358  0.00  0.00    -0.010 S 
BRANCH  13  14
ATOM     14  C   UNL     1       1.213   0.769   4.830  0.00  0.00    +0.138 C 
ATOM     15  N   UNL     1       0.825  -0.246   4.498  0.00  0.00    -0.183 NA
ENDBRANCH  13  14
ENDBRANCH   7  13
ENDBRANCH   1  10
BRANCH   2  16
ATOM     16  C   UNL     1       8.142   2.175   0.136  0.00  0.00    +0.114 C 
BRANCH  16  17
ATOM     17  C   UNL     1       8.941   0.871   0.110  0.00  0.00    +0.080 C 
ATOM     18  C   UNL     1      10.413   1.181   0.076  0.00  0.00    +0.019 C 
ATOM     19  C   UNL     1      10.710   2.562  -0.538  0.00  0.00    +0.001 C 
ATOM     20  C   UNL     1       9.851   2.860  -1.782  0.00  0.00    +0.000 C 
ATOM     21  C   UNL     1       9.718   1.667  -2.690  0.00  0.00    +0.000 C 
ATOM     22  C   UNL     1       8.420   0.918  -2.326  0.00  0.00    +0.001 C 
ATOM     23  C   UNL     1       8.580   0.067  -1.156  0.00  0.00    +0.019 C 
BRANCH  17  24
ATOM     24  C   UNL     1       8.620   0.055   1.336  0.00  0.00    +0.362 C 
ATOM     25  O   UNL     1       8.212  -1.076   1.219  0.00  0.00    -0.246 OA
ATOM     26  O   UNL     1       8.786   0.586   2.558  0.00  0.00    -0.246 OA
ENDBRANCH  17  24
ENDBRANCH  16  17
ENDBRANCH   2  16
TORSDOF 7
