REMARK  Name = ZINC15225486
REMARK  11 active torsions:
REMARK  status: ('A' for Active; 'I' for Inactive)
REMARK    1  A    between atoms: C_1  and  C_2
REMARK    2  A    between atoms: C_2  and  N_3
REMARK    3  A    between atoms: C_5  and  C_30
REMARK    4  A    between atoms: C_11  and  N_15
REMARK    5  A    between atoms: N_15  and  N_16
REMARK    6  A    between atoms: C_17  and  C_18
REMARK    7  A    between atoms: C_20  and  N_25
REMARK    8  A    between atoms: N_25  and  C_26
REMARK    9  A    between atoms: N_25  and  C_28
REMARK   10  A    between atoms: C_26  and  C_27
REMARK   11  A    between atoms: C_28  and  C_29
REMARK                            x       y       z     vdW  Elec       q    Type
REMARK                         _______ _______ _______ _____ _____    ______ ____
ROOT
ATOM      1  N   UNL     1       3.456  -1.395   1.853  0.00  0.00    -0.257 N 
ATOM      2  H   UNL     1       4.371  -1.715   1.802  0.00  0.00    +0.172 HD
ENDROOT
BRANCH   1  11
ATOM      3  N   UNL     1      -0.942  -1.056  -0.057  0.00  0.00    -0.346 N 
ATOM      4  C   UNL     1      -1.840  -1.298  -1.019  0.00  0.00    +0.105 A 
ATOM      5  C   UNL     1      -1.528  -2.025  -2.151  0.00  0.00    +0.126 A 
ATOM      6  C   UNL     1      -0.161  -2.552  -2.304  0.00  0.00    +0.204 A 
ATOM      7  O   UNL     1       0.164  -3.199  -3.285  0.00  0.00    -0.286 OA
ATOM      8  C   UNL     1       0.797  -2.264  -1.224  0.00  0.00    +0.049 A 
ATOM      9  C   UNL     1       0.361  -1.506  -0.121  0.00  0.00    +0.055 A 
ATOM     10  C   UNL     1       1.256  -1.222   0.903  0.00  0.00    +0.054 A 
ATOM     11  C   UNL     1       2.561  -1.681   0.825  0.00  0.00    +0.083 A 
ATOM     12  C   UNL     1       2.986  -2.428  -0.277  0.00  0.00    +0.147 A 
ATOM     13  C   UNL     1       2.114  -2.724  -1.286  0.00  0.00    +0.054 A 
ATOM     14  F   UNL     1       4.261  -2.869  -0.339  0.00  0.00    -0.203 F 
BRANCH   5  15
ATOM     15  C   UNL     1      -2.541  -2.269  -3.183  0.00  0.00    +0.392 C 
ATOM     16  O   UNL     1      -3.674  -1.827  -3.045  0.00  0.00    -0.240 OA
ATOM     17  O   UNL     1      -2.253  -2.915  -4.182  0.00  0.00    -0.240 OA
ENDBRANCH   5  15
BRANCH   3  19
ATOM     18  C   UNL     1      -1.115   1.212   0.843  0.00  0.00    +0.027 C 
ATOM     19  C   UNL     1      -1.357  -0.275   1.111  0.00  0.00    +0.118 C 
ENDBRANCH   3  19
ENDBRANCH   1  11
BRANCH   1  20
ATOM     20  N   UNL     1       3.036  -0.647   2.960  0.00  0.00    -0.313 N 
ATOM     21  C   UNL     1       3.898  -0.372   3.950  0.00  0.00    +0.110 C 
ATOM     22  H   UNL     1       2.122  -0.327   3.011  0.00  0.00    +0.184 HD
BRANCH  21  23
ATOM     23  C   UNL     1       3.512   0.464   5.001  0.00  0.00    +0.041 A 
ATOM     24  C   UNL     1       4.440   0.855   5.991  0.00  0.00    +0.034 A 
ATOM     25  C   UNL     1       4.045   1.668   7.006  0.00  0.00    +0.014 A 
ATOM     26  C   UNL     1       2.736   2.132   7.098  0.00  0.00    +0.025 A 
ATOM     27  C   UNL     1       1.793   1.793   6.177  0.00  0.00    +0.053 A 
ATOM     28  C   UNL     1       2.133   0.960   5.098  0.00  0.00    +0.188 A 
ATOM     29  O   UNL     1       1.298   0.650   4.260  0.00  0.00    -0.287 OA
BRANCH  25  30
ATOM     30  N   UNL     1       4.974   2.047   7.979  0.00  0.00    -0.394 NA
ATOM     31  H   UNL     1       5.869   1.630   7.770  0.00  0.00    +0.126 HD
BRANCH  30  32
ATOM     32  C   UNL     1       5.106   3.510   7.987  0.00  0.00    +0.081 C 
ATOM     33  C   UNL     1       5.713   3.975   6.662  0.00  0.00    +0.022 C 
ENDBRANCH  30  32
BRANCH  30  34
ATOM     34  C   UNL     1       4.517   1.589   9.297  0.00  0.00    +0.081 C 
ATOM     35  C   UNL     1       4.515   0.060   9.334  0.00  0.00    +0.022 C 
ENDBRANCH  30  34
ENDBRANCH  25  30
ENDBRANCH  21  23
ENDBRANCH   1  20
TORSDOF 8
