REMARK  Name = ZINC64871071
REMARK  6 active torsions:
REMARK  status: ('A' for Active; 'I' for Inactive)
REMARK    1  A    between atoms: C_1  and  C_2
REMARK    2  A    between atoms: C_2  and  C_3
REMARK    3  A    between atoms: C_6  and  C_9
REMARK    4  A    between atoms: C_12  and  C_16
REMARK    5  A    between atoms: N_26  and  C_29
REMARK    6  A    between atoms: C_29  and  C_30
REMARK                            x       y       z     vdW  Elec       q    Type
REMARK                         _______ _______ _______ _____ _____    ______ ____
ROOT
ATOM      1  C   UNL     1       2.264  -4.961   6.629  0.00  0.00    -0.000 A 
ATOM      2  C   UNL     1       1.254  -5.508   5.851  0.00  0.00    +0.008 A 
ATOM      3  C   UNL     1       0.661  -6.699   6.213  0.00  0.00    +0.016 A 
ATOM      4  C   UNL     1       1.084  -7.352   7.369  0.00  0.00    +0.063 A 
ATOM      5  C   UNL     1       2.108  -6.797   8.156  0.00  0.00    +0.056 A 
ATOM      6  C   UNL     1       2.696  -5.601   7.773  0.00  0.00    +0.034 A 
ATOM      7  N   UNL     1       2.509  -7.470   9.301  0.00  0.00    -0.307 N 
ATOM      8  H   UNL     1       3.213  -7.099   9.855  0.00  0.00    +0.170 HD
ATOM      9  C   UNL     1       1.929  -8.631   9.652  0.00  0.00    +0.330 A 
ATOM     10  O   UNL     1       2.309  -9.190  10.663  0.00  0.00    -0.246 OA
ATOM     11  N   UNL     1       0.949  -9.201   8.933  0.00  0.00    -0.256 N 
ATOM     12  C   UNL     1       0.486  -8.628   7.801  0.00  0.00    +0.265 A 
ATOM     13  O   UNL     1      -0.402  -9.151   7.156  0.00  0.00    -0.267 OA
ENDROOT
BRANCH   1  16
ATOM     14  C   UNL     1       2.797  -1.919   4.683  0.00  0.00    +0.180 C 
ATOM     15  N   UNL     1       1.920  -2.812   5.487  0.00  0.00    -0.265 NA
ATOM     16  C   UNL     1       2.900  -3.658   6.218  0.00  0.00    +0.242 C 
ATOM     17  O   UNL     1       3.961  -3.892   5.274  0.00  0.00    -0.274 OA
ATOM     18  N   UNL     1       3.928  -2.793   4.294  0.00  0.00    -0.177 NA
ATOM     19  H   UNL     1       1.352  -2.280   6.129  0.00  0.00    +0.127 HD
ATOM     20  H   UNL     1       4.797  -2.281   4.292  0.00  0.00    +0.156 HD
BRANCH  14  24
ATOM     21  C   UNL     1       0.731  -0.503   1.223  0.00  0.00    -0.048 A 
ATOM     22  C   UNL     1       2.097  -0.710   1.176  0.00  0.00    +0.004 A 
ATOM     23  C   UNL     1       2.766  -1.167   2.296  0.00  0.00    +0.007 A 
ATOM     24  C   UNL     1       2.068  -1.419   3.463  0.00  0.00    -0.014 A 
ATOM     25  C   UNL     1       0.702  -1.212   3.510  0.00  0.00    +0.007 A 
ATOM     26  C   UNL     1       0.034  -0.750   2.391  0.00  0.00    +0.004 A 
BRANCH  21  28
ATOM     27  C   UNL     1      -0.019   1.526   0.010  0.00  0.00    +0.009 C 
ATOM     28  C   UNL     1       0.002  -0.004   0.002  0.00  0.00    +0.032 C 
ENDBRANCH  21  28
ENDBRANCH  14  24
ENDBRANCH   1  16
BRANCH  11  29
ATOM     29  C   UNL     1       0.371 -10.469   9.385  0.00  0.00    +0.165 C 
BRANCH  29  30
ATOM     30  C   UNL     1      -0.796 -10.192  10.297  0.00  0.00    -0.026 A 
ATOM     31  C   UNL     1      -0.593 -10.060  11.659  0.00  0.00    +0.005 A 
ATOM     32  C   UNL     1      -1.663  -9.806  12.496  0.00  0.00    +0.002 A 
ATOM     33  C   UNL     1      -2.937  -9.685  11.973  0.00  0.00    +0.020 A 
ATOM     34  C   UNL     1      -3.140  -9.818  10.611  0.00  0.00    +0.041 A 
ATOM     35  C   UNL     1      -2.068 -10.066   9.773  0.00  0.00    +0.025 A 
ATOM     36 CL   UNL     1      -4.740  -9.666   9.954  0.00  0.00    -0.084 Cl
ENDBRANCH  29  30
ENDBRANCH  11  29
TORSDOF 5
