REMARK  Name = ZINC00269414
REMARK  7 active torsions:
REMARK  status: ('A' for Active; 'I' for Inactive)
REMARK    1  A    between atoms: C_1  and  C_2
REMARK    2  A    between atoms: C_2  and  C_24
REMARK    3  A    between atoms: C_4  and  N_10
REMARK    4  A    between atoms: C_6  and  C_8
REMARK    5  A    between atoms: C_6  and  C_9
REMARK    6  A    between atoms: C_11  and  C_13
REMARK    7  A    between atoms: C_19  and  C_21
REMARK                            x       y       z     vdW  Elec       q    Type
REMARK                         _______ _______ _______ _____ _____    ______ ____
ROOT
ATOM      1  N   UNL     1       2.615  -0.819  -2.626  0.00  0.00    -0.312 N 
ATOM      2  C   UNL     1       3.770  -0.334  -3.123  0.00  0.00    +0.217 C 
ATOM      3  O   UNL     1       4.374   0.530  -2.523  0.00  0.00    -0.275 OA
ATOM      4  H   UNL     1       2.133  -1.510  -3.106  0.00  0.00    +0.149 HD
ENDROOT
BRANCH   1   8
ATOM      5  C   UNL     1      -0.019   1.528   0.010  0.00  0.00    -0.010 C 
ATOM      6  C   UNL     1       0.002  -0.004   0.002  0.00  0.00    -0.072 C 
ATOM      7  C   UNL     1       0.573  -0.505  -1.321  0.00  0.00    +0.009 C 
ATOM      8  C   UNL     1       2.088  -0.301  -1.357  0.00  0.00    +0.070 C 
ATOM      9  C   UNL     1       2.703  -1.086  -0.198  0.00  0.00    +0.009 C 
ATOM     10  C   UNL     1       2.147  -0.590   1.133  0.00  0.00    -0.072 C 
ATOM     11  N   UNL     1       0.697  -0.529   1.164  0.00  0.00    +0.386 N 
ATOM     12  C   UNL     1       2.769   0.766   1.481  0.00  0.00    -0.010 C 
ATOM     13  C   UNL     1       2.600  -1.589   2.223  0.00  0.00    -0.010 C 
ATOM     14  C   UNL     1      -1.468  -0.478   0.079  0.00  0.00    -0.010 C 
ATOM     15  H   UNL     1       0.416   0.021   1.982  0.00  0.00    -0.084 HD
ATOM     16  H   UNL     1       0.341  -1.472   1.351  0.00  0.00    -0.084 HD
ENDBRANCH   1   8
BRANCH   2  17
ATOM     17  C   UNL     1       4.312  -0.866  -4.426  0.00  0.00    +0.089 C 
ATOM     18  C   UNL     1       4.567  -2.369  -4.296  0.00  0.00    +0.013 C 
ATOM     19  C   UNL     1       5.584  -2.619  -3.181  0.00  0.00    +0.001 C 
ATOM     20  C   UNL     1       6.895  -1.906  -3.517  0.00  0.00    +0.001 C 
ATOM     21  C   UNL     1       6.640  -0.403  -3.647  0.00  0.00    +0.015 C 
ATOM     22  C   UNL     1       5.623  -0.153  -4.762  0.00  0.00    +0.114 C 
BRANCH  22  23
ATOM     23  C   UNL     1       5.372   1.328  -4.889  0.00  0.00    +0.360 C 
ATOM     24  O   UNL     1       6.254   2.122  -4.611  0.00  0.00    -0.246 OA
ATOM     25  O   UNL     1       4.286   1.731  -5.270  0.00  0.00    -0.246 OA
ENDBRANCH  22  23
ENDBRANCH   2  17
TORSDOF 3
