REMARK  Name = ZINC39575964
REMARK  8 active torsions:
REMARK  status: ('A' for Active; 'I' for Inactive)
REMARK    1  A    between atoms: C_4  and  C_7
REMARK    2  A    between atoms: C_9  and  C_13
REMARK    3  A    between atoms: C_17  and  S_21
REMARK    4  A    between atoms: N_19  and  N_20
REMARK    5  A    between atoms: S_21  and  C_22
REMARK    6  A    between atoms: C_22  and  C_23
REMARK    7  A    between atoms: N_25  and  C_26
REMARK    8  A    between atoms: C_29  and  C_32
REMARK                            x       y       z     vdW  Elec       q    Type
REMARK                         _______ _______ _______ _____ _____    ______ ____
ROOT
ATOM      1  C   UNL     1       5.800  -2.989   1.172  0.00  0.00    +0.185 C 
ATOM      2  N   UNL     1       5.189  -4.344   1.186  0.00  0.00    -0.234 NA
ATOM      3  N   UNL     1       6.107  -5.114   2.040  0.00  0.00    -0.228 NA
ATOM      4  C   UNL     1       7.452  -4.605   1.690  0.00  0.00    +0.214 C 
ATOM      5  N   UNL     1       7.259  -3.246   1.139  0.00  0.00    -0.197 NA
ATOM      6  H   UNL     1       4.261  -4.318   1.583  0.00  0.00    +0.143 HD
ATOM      7  H   UNL     1       5.905  -4.962   3.017  0.00  0.00    +0.143 HD
ENDROOT
BRANCH   1  10
ATOM      8  C   UNL     1       3.738  -0.650  -0.052  0.00  0.00    +0.091 C 
ATOM      9  C   UNL     1       3.862  -1.991  -0.067  0.00  0.00    +0.034 C 
ATOM     10  C   UNL     1       5.364  -2.217  -0.075  0.00  0.00    +0.187 C 
ATOM     11  N   UNL     1       5.909  -0.850  -0.061  0.00  0.00    -0.176 NA
ATOM     12  N   UNL     1       4.962  -0.060  -0.055  0.00  0.00    -0.154 NA
BRANCH   8  16
ATOM     13  C   UNL     1       0.037   1.443  -0.016  0.00  0.00    +0.000 A 
ATOM     14  C   UNL     1       1.227   2.148  -0.018  0.00  0.00    +0.001 A 
ATOM     15  C   UNL     1       2.431   1.474  -0.029  0.00  0.00    +0.010 A 
ATOM     16  C   UNL     1       2.447   0.080  -0.039  0.00  0.00    +0.002 A 
ATOM     17  C   UNL     1       1.245  -0.625  -0.037  0.00  0.00    +0.010 A 
ATOM     18  C   UNL     1       0.046   0.060  -0.026  0.00  0.00    +0.001 A 
ENDBRANCH   8  16
ENDBRANCH   1  10
BRANCH   5  19
ATOM     19  N   UNL     1       7.980  -2.255   1.922  0.00  0.00    -0.264 NA
ATOM     20  H   UNL     1       8.974  -2.430   1.899  0.00  0.00    +0.137 HD
ATOM     21  H   UNL     1       7.770  -1.321   1.605  0.00  0.00    +0.137 HD
ENDBRANCH   5  19
BRANCH   4  22
ATOM     22  S   UNL     1       8.494  -4.530   3.173  0.00  0.00    -0.115 S 
BRANCH  22  23
ATOM     23  C   UNL     1       7.585  -3.430   4.293  0.00  0.00    +0.168 C 
BRANCH  23  24
ATOM     24  C   UNL     1       8.352  -3.280   5.582  0.00  0.00    +0.227 C 
ATOM     25  O   UNL     1       9.407  -3.858   5.730  0.00  0.00    -0.275 OA
ATOM     26  N   UNL     1       7.864  -2.503   6.569  0.00  0.00    -0.285 N 
ATOM     27  H   UNL     1       7.055  -1.988   6.426  0.00  0.00    +0.155 HD
BRANCH  26  28
ATOM     28  C   UNL     1       8.523  -2.439   7.796  0.00  0.00    +0.033 A 
ATOM     29  C   UNL     1       9.913  -2.500   7.842  0.00  0.00    +0.024 A 
ATOM     30  C   UNL     1      10.566  -2.438   9.052  0.00  0.00    +0.015 A 
ATOM     31  C   UNL     1       9.833  -2.313  10.235  0.00  0.00    +0.037 A 
ATOM     32  C   UNL     1       8.438  -2.251  10.185  0.00  0.00    +0.015 A 
ATOM     33  C   UNL     1       7.791  -2.309   8.972  0.00  0.00    +0.024 A 
BRANCH  31  34
ATOM     34  C   UNL     1      10.531  -2.246  11.534  0.00  0.00    +0.242 C 
ATOM     35  O   UNL     1      11.745  -2.300  11.575  0.00  0.00    -0.270 OA
ATOM     36  N   UNL     1       9.822  -2.125  12.674  0.00  0.00    -0.325 N 
ATOM     37  H   UNL     1       8.854  -2.082  12.641  0.00  0.00    +0.145 HD
ATOM     38  H   UNL     1      10.281  -2.081  13.527  0.00  0.00    +0.145 HD
ENDBRANCH  31  34
ENDBRANCH  26  28
ENDBRANCH  23  24
ENDBRANCH  22  23
ENDBRANCH   4  22
TORSDOF 8
