REMARK  Name = ZINC38604767
REMARK  10 active torsions:
REMARK  status: ('A' for Active; 'I' for Inactive)
REMARK    1  A    between atoms: C_1  and  C_2
REMARK    2  A    between atoms: C_7  and  C_34
REMARK    3  A    between atoms: C_9  and  N_12
REMARK    4  A    between atoms: C_13  and  C_15
REMARK    5  A    between atoms: C_15  and  C_17
REMARK    6  A    between atoms: C_15  and  N_18
REMARK    7  A    between atoms: N_21  and  C_24
REMARK    8  A    between atoms: C_24  and  C_25
REMARK    9  A    between atoms: C_34  and  O_36
REMARK   10  A    between atoms: O_36  and  C_37
REMARK                            x       y       z     vdW  Elec       q    Type
REMARK                         _______ _______ _______ _____ _____    ______ ____
ROOT
ATOM      1  N   UNL     1       0.084  -2.970   4.084  0.00  0.00    -0.288 N 
ATOM      2  C   UNL     1      -0.314  -1.790   4.599  0.00  0.00    +0.203 C 
ATOM      3  O   UNL     1      -0.762  -0.931   3.871  0.00  0.00    -0.277 OA
ATOM      4  H   UNL     1       0.360  -3.689   4.674  0.00  0.00    +0.155 HD
ENDROOT
BRANCH   1  12
ATOM      5  C   UNL     1       1.073  -8.043   2.070  0.00  0.00    +0.044 C 
ATOM      6  C   UNL     1       0.782  -6.645   1.587  0.00  0.00    -0.050 A 
ATOM      7  C   UNL     1       0.709  -6.400   0.213  0.00  0.00    +0.005 A 
ATOM      8  C   UNL     1       0.450  -5.165  -0.281  0.00  0.00    +0.026 A 
ATOM      9  C   UNL     1       0.245  -4.078   0.607  0.00  0.00    +0.045 A 
ATOM     10  N   UNL     1      -0.016  -2.806   0.383  0.00  0.00    -0.367 N 
ATOM     11  C   UNL     1      -0.134  -2.107   1.667  0.00  0.00    +0.234 C 
ATOM     12  C   UNL     1       0.097  -3.155   2.734  0.00  0.00    +0.053 C 
ATOM     13  C   UNL     1       0.324  -4.339   2.055  0.00  0.00    +0.018 A 
ATOM     14  C   UNL     1       0.593  -5.657   2.496  0.00  0.00    +0.015 A 
ATOM     15  H   UNL     1      -0.114  -2.397  -0.491  0.00  0.00    +0.161 HD
BRANCH  11  16
ATOM     16  C   UNL     1       0.909  -1.024   1.767  0.00  0.00    +0.335 C 
ATOM     17  O   UNL     1       1.941  -1.120   1.146  0.00  0.00    -0.248 OA
BRANCH  16  18
ATOM     18  O   UNL     1       0.692   0.046   2.547  0.00  0.00    -0.466 OA
ATOM     19  C   UNL     1       1.724   1.034   2.595  0.00  0.00    +0.280 C 
ENDBRANCH  16  18
ENDBRANCH  11  16
ENDBRANCH   1  12
BRANCH   2  20
ATOM     20  C   UNL     1      -0.200  -1.538   6.080  0.00  0.00    +0.016 C 
ATOM     21  C   UNL     1      -1.137  -2.486   6.832  0.00  0.00    -0.004 C 
BRANCH  20  22
ATOM     22  N   UNL     1      -0.574  -0.147   6.371  0.00  0.00    +0.389 N 
ATOM     23  C   UNL     1      -1.999   0.049   6.074  0.00  0.00    -0.062 C 
ATOM     24  C   UNL     1      -2.384   1.502   6.358  0.00  0.00    +0.066 C 
ATOM     25  N   UNL     1      -2.113   1.811   7.769  0.00  0.00    -0.302 NA
ATOM     26  C   UNL     1      -0.695   1.595   8.088  0.00  0.00    +0.066 C 
ATOM     27  C   UNL     1      -0.323   0.141   7.789  0.00  0.00    -0.062 C 
ATOM     28  H   UNL     1      -0.023   0.475   5.799  0.00  0.00    -0.081 HD
BRANCH  25  29
ATOM     29  C   UNL     1      -2.523   3.183   8.096  0.00  0.00    +0.119 C 
BRANCH  29  30
ATOM     30  C   UNL     1      -2.462   3.383   9.588  0.00  0.00    -0.030 A 
ATOM     31  C   UNL     1      -3.570   3.107  10.368  0.00  0.00    +0.009 A 
ATOM     32  C   UNL     1      -3.518   3.288  11.737  0.00  0.00    +0.050 A 
ATOM     33  C   UNL     1      -2.355   3.749  12.332  0.00  0.00    +0.166 A 
ATOM     34  C   UNL     1      -1.239   4.028  11.547  0.00  0.00    +0.167 A 
ATOM     35  C   UNL     1      -1.296   3.838  10.176  0.00  0.00    +0.054 A 
ATOM     36  O   UNL     1      -0.232   4.463  12.359  0.00  0.00    -0.453 OA
ATOM     37  C   UNL     1      -0.869   4.836  13.595  0.00  0.00    +0.466 C 
ATOM     38  O   UNL     1      -2.047   4.010  13.636  0.00  0.00    -0.453 OA
ENDBRANCH  29  30
ENDBRANCH  25  29
ENDBRANCH  20  22
ENDBRANCH   2  20
TORSDOF 7
