REMARK  Name = ZINC14950590
REMARK  10 active torsions:
REMARK  status: ('A' for Active; 'I' for Inactive)
REMARK    1  A    between atoms: C_1  and  C_2
REMARK    2  A    between atoms: C_2  and  C_3
REMARK    3  A    between atoms: C_6  and  N_9
REMARK    4  A    between atoms: C_12  and  C_14
REMARK    5  A    between atoms: N_20  and  C_23
REMARK    6  A    between atoms: C_26  and  C_29
REMARK    7  A    between atoms: C_34  and  C_35
REMARK    8  A    between atoms: C_35  and  N_67
REMARK    9  A    between atoms: C_36  and  N_67
REMARK   10  A    between atoms: C_37  and  N_67
REMARK                            x       y       z     vdW  Elec       q    Type
REMARK                         _______ _______ _______ _____ _____    ______ ____
ROOT
ATOM      1  N   UNL     1      -3.166   3.252   0.227  0.00  0.00    -0.227 N 
ATOM      2  C   UNL     1      -2.300   2.493  -0.482  0.00  0.00    +0.133 A 
ATOM      3  C   UNL     1      -1.825   3.275  -1.532  0.00  0.00    +0.016 A 
ATOM      4  C   UNL     1      -2.415   4.517  -1.428  0.00  0.00    +0.170 A 
ATOM      5  N   UNL     1      -3.216   4.517  -0.384  0.00  0.00    -0.161 NA
ATOM      6  C   UNL     1      -0.842   2.730  -2.535  0.00  0.00    +0.059 C 
ATOM      7  C   UNL     1       0.002   1.648  -1.860  0.00  0.00    +0.119 C 
ATOM      8  N   UNL     1      -0.800   0.711  -1.083  0.00  0.00    -0.266 N 
ATOM      9  C   UNL     1      -1.838   1.108  -0.311  0.00  0.00    +0.270 C 
ATOM     10  O   UNL     1      -2.361   0.357   0.490  0.00  0.00    -0.268 OA
ENDROOT
BRANCH   1  14
ATOM     11  C   UNL     1      -5.296   2.060   3.605  0.00  0.00    -0.047 A 
ATOM     12  C   UNL     1      -3.961   1.725   3.478  0.00  0.00    +0.006 A 
ATOM     13  C   UNL     1      -3.252   2.119   2.360  0.00  0.00    +0.028 A 
ATOM     14  C   UNL     1      -3.882   2.851   1.362  0.00  0.00    +0.066 A 
ATOM     15  C   UNL     1      -5.222   3.190   1.495  0.00  0.00    +0.028 A 
ATOM     16  C   UNL     1      -5.926   2.790   2.613  0.00  0.00    +0.006 A 
BRANCH  11  18
ATOM     17  C   UNL     1      -5.957   2.709   5.905  0.00  0.00    +0.009 C 
ATOM     18  C   UNL     1      -6.066   1.630   4.827  0.00  0.00    +0.032 C 
ENDBRANCH  11  18
ENDBRANCH   1  14
BRANCH   8  19
ATOM     19  C   UNL     1      -0.489  -0.649  -1.142  0.00  0.00    +0.037 A 
ATOM     20  C   UNL     1       0.440  -1.188  -0.260  0.00  0.00    +0.024 A 
ATOM     21  C   UNL     1       0.744  -2.532  -0.312  0.00  0.00    +0.010 A 
ATOM     22  C   UNL     1       0.128  -3.348  -1.260  0.00  0.00    -0.018 A 
ATOM     23  C   UNL     1      -0.799  -2.805  -2.148  0.00  0.00    +0.010 A 
ATOM     24  C   UNL     1      -1.105  -1.462  -2.087  0.00  0.00    +0.024 A 
BRANCH  22  25
ATOM     25  C   UNL     1       0.458  -4.793  -1.322  0.00  0.00    -0.017 A 
ATOM     26  C   UNL     1       0.936  -5.351  -2.507  0.00  0.00    +0.009 A 
ATOM     27  C   UNL     1       1.241  -6.695  -2.559  0.00  0.00    +0.001 A 
ATOM     28  C   UNL     1       1.073  -7.490  -1.439  0.00  0.00    +0.000 A 
ATOM     29  C   UNL     1       0.599  -6.942  -0.261  0.00  0.00    +0.002 A 
ATOM     30  C   UNL     1       0.295  -5.597  -0.196  0.00  0.00    -0.056 A 
BRANCH  30  31
ATOM     31  C   UNL     1      -0.215  -5.000   1.090  0.00  0.00    -0.043 C 
BRANCH  31  34
ATOM     32  C   UNL     1      -2.418  -5.970   0.830  0.00  0.00    -0.096 C 
ATOM     33  C   UNL     1      -2.137  -3.929   2.102  0.00  0.00    -0.096 C 
ATOM     34  N   UNL     1      -1.657  -4.708   0.941  0.00  0.00    +0.379 N 
ATOM     35  H   UNL     1      -1.799  -4.156   0.087  0.00  0.00    -0.082 HD
ENDBRANCH  31  34
ENDBRANCH  30  31
ENDBRANCH  22  25
ENDBRANCH   8  19
BRANCH   4  36
ATOM     36  C   UNL     1      -2.180   5.682  -2.355  0.00  0.00    +0.436 C 
ATOM     37  F   UNL     1      -3.102   5.634  -3.406  0.00  0.00    -0.164 F 
ATOM     38  F   UNL     1      -2.339   6.879  -1.649  0.00  0.00    -0.164 F 
ATOM     39  F   UNL     1      -0.881   5.613  -2.870  0.00  0.00    -0.164 F 
ENDBRANCH   4  36
TORSDOF 7
