REMARK  Name = ZINC09395584
REMARK  10 active torsions:
REMARK  status: ('A' for Active; 'I' for Inactive)
REMARK    1  A    between atoms: C_1  and  C_2
REMARK    2  A    between atoms: C_2  and  C_3
REMARK    3  A    between atoms: C_3  and  N_4
REMARK    4  A    between atoms: C_17  and  S_18
REMARK    5  A    between atoms: S_18  and  C_19
REMARK    6  A    between atoms: C_19  and  C_20
REMARK    7  A    between atoms: C_20  and  C_22
REMARK    8  A    between atoms: C_22  and  C_32
REMARK    9  A    between atoms: C_32  and  O_34
REMARK   10  A    between atoms: O_34  and  C_35
REMARK                            x       y       z     vdW  Elec       q    Type
REMARK                         _______ _______ _______ _____ _____    ______ ____
ROOT
ATOM      1  C   UNL     1      -1.330   1.947   0.019  0.00  0.00    +0.157 C 
ENDROOT
BRANCH   1   2
ATOM      2  C   UNL     1      -0.014   1.211   0.009  0.00  0.00    +0.183 C 
ATOM      3  O   UNL     1       0.002  -0.004   0.002  0.00  0.00    -0.291 OA
BRANCH   2   4
ATOM      4  C   UNL     1       1.194   1.931   0.001  0.00  0.00    +0.138 C 
ATOM      5  C   UNL     1       2.423   1.244  -0.014  0.00  0.00    +0.110 C 
ATOM      6  N   UNL     1       2.568  -0.106  -0.017  0.00  0.00    -0.301 N 
ATOM      7  C   UNL     1       3.927  -0.398  -0.038  0.00  0.00    +0.054 A 
ATOM      8  C   UNL     1       4.641  -1.588  -0.050  0.00  0.00    +0.025 A 
ATOM      9  C   UNL     1       6.021  -1.562  -0.063  0.00  0.00    +0.002 A 
ATOM     10  C   UNL     1       6.697  -0.354  -0.064  0.00  0.00    +0.002 A 
ATOM     11  C   UNL     1       5.997   0.836  -0.051  0.00  0.00    +0.025 A 
ATOM     12  C   UNL     1       4.609   0.821  -0.038  0.00  0.00    +0.054 A 
ATOM     13  N   UNL     1       3.648   1.826  -0.023  0.00  0.00    -0.301 N 
ATOM     14  H   UNL     1       1.847  -0.755  -0.008  0.00  0.00    +0.153 HD
ATOM     15  H   UNL     1       3.824   2.780  -0.019  0.00  0.00    +0.153 HD
BRANCH   4  16
ATOM     16  C   UNL     1       1.174   3.392   0.009  0.00  0.00    +0.345 C 
ATOM     17  O   UNL     1       2.220   4.015   0.002  0.00  0.00    -0.245 OA
BRANCH  16  18
ATOM     18  O   UNL     1      -0.003   4.051   0.024  0.00  0.00    -0.464 OA
ATOM     19  C   UNL     1       0.052   5.479   0.031  0.00  0.00    +0.280 C 
ENDBRANCH  16  18
ENDBRANCH   4  16
ENDBRANCH   2   4
ENDBRANCH   1   2
BRANCH   1  20
ATOM     20  S   UNL     1      -2.692   0.749   0.019  0.00  0.00    -0.078 S 
BRANCH  20  34
ATOM     21  N   UNL     1      -7.642   2.245   0.052  0.00  0.00    -0.277 N 
ATOM     22  C   UNL     1      -8.216   1.025   0.031  0.00  0.00    +0.263 A 
ATOM     23  O   UNL     1      -9.427   0.910   0.032  0.00  0.00    -0.267 OA
ATOM     24  C   UNL     1      -7.349  -0.168   0.018  0.00  0.00    +0.064 A 
ATOM     25  C   UNL     1      -7.888  -1.454   0.006  0.00  0.00    +0.015 A 
ATOM     26  C   UNL     1      -7.045  -2.545  -0.007  0.00  0.00    +0.001 A 
ATOM     27  C   UNL     1      -5.670  -2.369  -0.007  0.00  0.00    +0.002 A 
ATOM     28  C   UNL     1      -5.125  -1.100   0.005  0.00  0.00    +0.027 A 
ATOM     29  C   UNL     1      -5.957   0.009   0.018  0.00  0.00    +0.064 A 
ATOM     30  N   UNL     1      -5.433   1.300   0.029  0.00  0.00    -0.256 N 
ATOM     31  C   UNL     1      -6.263   2.387   0.045  0.00  0.00    +0.240 A 
ATOM     32  N   UNL     1      -5.512   3.466   0.047  0.00  0.00    -0.109 NA
ATOM     33  N   UNL     1      -4.171   3.062   0.038  0.00  0.00    -0.120 NA
ATOM     34  C   UNL     1      -4.141   1.752   0.031  0.00  0.00    +0.198 A 
BRANCH  21  35
ATOM     35  C   UNL     1      -8.490   3.440   0.063  0.00  0.00    +0.128 C 
BRANCH  35  37
ATOM     36  C   UNL     1      -9.679   5.111  -1.364  0.00  0.00    +0.005 C 
ATOM     37  C   UNL     1      -8.793   3.863  -1.376  0.00  0.00    +0.018 C 
ENDBRANCH  35  37
ENDBRANCH  21  35
ENDBRANCH  20  34
ENDBRANCH   1  20
TORSDOF 8
