REMARK  Name = ZINC65301337
REMARK  11 active torsions:
REMARK  status: ('A' for Active; 'I' for Inactive)
REMARK    1  A    between atoms: C_1  and  C_2
REMARK    2  A    between atoms: C_2  and  N_3
REMARK    3  A    between atoms: N_3  and  C_4
REMARK    4  A    between atoms: C_4  and  C_5
REMARK    5  A    between atoms: C_6  and  C_8
REMARK    6  A    between atoms: C_13  and  N_14
REMARK    7  A    between atoms: C_17  and  C_20
REMARK    8  A    between atoms: N_22  and  C_23
REMARK    9  A    between atoms: C_25  and  C_30
REMARK   10  A    between atoms: C_28  and  C_29
REMARK   11  A    between atoms: C_31  and  C_34
REMARK                            x       y       z     vdW  Elec       q    Type
REMARK                         _______ _______ _______ _____ _____    ______ ____
ROOT
ATOM      1  C   UNL     1      -5.481  -2.088   2.819  0.00  0.00    +0.074 A 
ATOM      2  C   UNL     1      -6.066  -2.138   1.547  0.00  0.00    +0.098 A 
ATOM      3  N   UNL     1      -5.327  -2.007   0.466  0.00  0.00    -0.353 N 
ATOM      4  C   UNL     1      -4.025  -1.826   0.537  0.00  0.00    +0.107 A 
ATOM      5  C   UNL     1      -3.324  -1.758   1.763  0.00  0.00    +0.050 A 
ATOM      6  C   UNL     1      -4.099  -1.891   2.946  0.00  0.00    +0.055 A 
ATOM      7  C   UNL     1      -1.943  -1.560   1.594  0.00  0.00    +0.058 A 
ATOM      8  N   UNL     1      -1.429  -1.459   0.407  0.00  0.00    -0.213 NA
ATOM      9  S   UNL     1      -2.721  -1.614  -0.649  0.00  0.00    +0.030 S 
ATOM     10  C   UNL     1      -1.050  -1.465   2.804  0.00  0.00    +0.067 C 
ATOM     11  H   UNL     1      -5.753  -2.045  -0.405  0.00  0.00    +0.166 HD
ENDROOT
BRANCH   6  12
ATOM     12  N   UNL     1      -3.505  -1.833   4.190  0.00  0.00    -0.329 N 
ATOM     13  C   UNL     1      -2.860  -3.020   4.767  0.00  0.00    +0.106 C 
ATOM     14  C   UNL     1      -3.447  -3.272   6.160  0.00  0.00    +0.031 C 
ATOM     15  C   UNL     1      -3.304  -2.006   7.006  0.00  0.00    +0.078 C 
ATOM     16  C   UNL     1      -4.085  -0.863   6.352  0.00  0.00    +0.031 C 
ATOM     17  C   UNL     1      -3.500  -0.582   4.960  0.00  0.00    +0.106 C 
BRANCH  15  18
ATOM     18  C   UNL     1      -3.850  -2.260   8.387  0.00  0.00    +0.220 C 
ATOM     19  O   UNL     1      -4.308  -3.348   8.667  0.00  0.00    -0.275 OA
ATOM     20  N   UNL     1      -3.830  -1.280   9.312  0.00  0.00    -0.285 N 
ATOM     21  H   UNL     1      -3.526  -0.391   9.069  0.00  0.00    +0.155 HD
BRANCH  20  22
ATOM     22  C   UNL     1      -4.246  -1.544  10.621  0.00  0.00    +0.037 A 
ATOM     23  C   UNL     1      -5.169  -2.552  10.868  0.00  0.00    +0.027 A 
ATOM     24  C   UNL     1      -5.578  -2.810  12.162  0.00  0.00    -0.049 A 
ATOM     25  C   UNL     1      -5.069  -2.066  13.211  0.00  0.00    +0.004 A 
ATOM     26  C   UNL     1      -4.150  -1.062  12.968  0.00  0.00    +0.005 A 
ATOM     27  C   UNL     1      -3.732  -0.803  11.677  0.00  0.00    -0.029 A 
ATOM     28  C   UNL     1      -2.725   0.287  11.415  0.00  0.00    +0.045 C 
ATOM     29  C   UNL     1      -6.580  -3.903  12.431  0.00  0.00    +0.044 C 
ENDBRANCH  20  22
ENDBRANCH  15  18
ENDBRANCH   6  12
BRANCH   1  31
ATOM     30  N   UNL     1      -7.303  -1.351   4.269  0.00  0.00    -0.298 N 
ATOM     31  C   UNL     1      -6.318  -2.236   4.021  0.00  0.00    +0.250 C 
ATOM     32  O   UNL     1      -6.120  -3.157   4.790  0.00  0.00    -0.270 OA
BRANCH  30  34
ATOM     33  C   UNL     1      -9.281  -2.341   5.312  0.00  0.00    +0.024 C 
ATOM     34  C   UNL     1      -8.066  -1.435   5.517  0.00  0.00    +0.104 C 
ENDBRANCH  30  34
BRANCH  30  35
ATOM     35  C   UNL     1      -7.612  -0.304   3.291  0.00  0.00    +0.104 C 
ATOM     36  C   UNL     1      -6.846   0.971   3.650  0.00  0.00    +0.024 C 
ENDBRANCH  30  35
ENDBRANCH   1  31
TORSDOF 6
