REMARK  Name = ZINC64649880
REMARK  5 active torsions:
REMARK  status: ('A' for Active; 'I' for Inactive)
REMARK    1  A    between atoms: C_6  and  C_7
REMARK    2  A    between atoms: C_9  and  C_12
REMARK    3  A    between atoms: N_24  and  C_25
REMARK    4  A    between atoms: C_25  and  C_26
REMARK    5  A    between atoms: C_26  and  C_27
REMARK                            x       y       z     vdW  Elec       q    Type
REMARK                         _______ _______ _______ _____ _____    ______ ____
ROOT
ATOM      1  C   UNL     1      -0.017   1.389   0.010  0.00  0.00    +0.013 A 
ATOM      2  C   UNL     1       1.168   2.098   0.002  0.00  0.00    +0.027 A 
ATOM      3  C   UNL     1       2.380   1.425  -0.013  0.00  0.00    +0.068 A 
ATOM      4  C   UNL     1       2.404   0.027  -0.021  0.00  0.00    +0.066 A 
ATOM      5  C   UNL     1       1.220  -0.684  -0.014  0.00  0.00    +0.037 A 
ATOM      6  C   UNL     1       0.002  -0.004   0.002  0.00  0.00    +0.024 A 
ATOM      7  N   UNL     1       3.748  -0.362  -0.036  0.00  0.00    -0.263 N 
ATOM      8  N   UNL     1       4.519   0.764  -0.038  0.00  0.00    -0.160 NA
ATOM      9  N   UNL     1       3.707   1.861  -0.024  0.00  0.00    -0.249 N 
ATOM     10  H   UNL     1       4.075  -1.275  -0.044  0.00  0.00    +0.168 HD
ATOM     11  H   UNL     1       5.134   0.780  -0.838  0.00  0.00    +0.168 HD
ENDROOT
BRANCH   6  12
ATOM     12  C   UNL     1      -1.272  -0.763   0.011  0.00  0.00    +0.202 A 
ATOM     13  N   UNL     1      -2.501  -0.226   0.020  0.00  0.00    -0.187 NA
ATOM     14  C   UNL     1      -3.407  -1.178   0.026  0.00  0.00    +0.259 A 
ATOM     15  O   UNL     1      -2.770  -2.363   0.020  0.00  0.00    -0.332 OA
ATOM     16  N   UNL     1      -1.381  -2.071   0.004  0.00  0.00    -0.056 NA
BRANCH  14  17
ATOM     17  C   UNL     1      -4.868  -0.982   0.038  0.00  0.00    +0.045 C 
ATOM     18  C   UNL     1      -5.473   0.279   0.038  0.00  0.00    +0.013 C 
ATOM     19  C   UNL     1      -6.878   0.386   0.053  0.00  0.00    -0.001 C 
ATOM     20  C   UNL     1      -7.716  -0.608   0.370  0.00  0.00    +0.004 C 
ATOM     21  C   UNL     1      -7.161  -1.944   0.779  0.00  0.00    +0.159 C 
ATOM     22  C   UNL     1      -5.828  -2.088   0.043  0.00  0.00    -0.006 C 
ATOM     23  C   UNL     1      -5.845  -3.302  -0.506  0.00  0.00    +0.026 C 
ATOM     24  C   UNL     1      -7.146  -3.849  -0.396  0.00  0.00    +0.106 C 
ATOM     25  N   UNL     1      -7.951  -3.086   0.334  0.00  0.00    -0.279 NA
ENDBRANCH  14  17
ENDBRANCH   6  12
BRANCH   9  26
ATOM     26  C   UNL     1       4.151   3.257  -0.022  0.00  0.00    +0.135 C 
BRANCH  26  27
ATOM     27  C   UNL     1       4.319   3.736   1.421  0.00  0.00    +0.116 C 
BRANCH  27  28
ATOM     28  C   UNL     1       4.776   5.173   1.424  0.00  0.00    +0.217 C 
ATOM     29  O   UNL     1       4.949   5.755   0.374  0.00  0.00    -0.276 OA
ATOM     30  N   UNL     1       4.991   5.809   2.592  0.00  0.00    -0.301 N 
ATOM     31  C   UNL     1       4.781   5.085   3.825  0.00  0.00    +0.108 C 
ATOM     32  C   UNL     1       3.309   5.246   4.278  0.00  0.00    +0.019 C 
ATOM     33  C   UNL     1       3.068   6.617   4.753  0.00  0.00    +0.002 C 
ATOM     34  C   UNL     1       3.256   7.693   3.689  0.00  0.00    +0.002 C 
ATOM     35  C   UNL     1       4.713   8.075   3.616  0.00  0.00    +0.019 C 
ATOM     36  C   UNL     1       5.438   7.216   2.559  0.00  0.00    +0.108 C 
ENDBRANCH  27  28
ENDBRANCH  26  27
ENDBRANCH   9  26
TORSDOF 5
