REMARK  Name = ZINC39666263
REMARK  13 active torsions:
REMARK  status: ('A' for Active; 'I' for Inactive)
REMARK    1  A    between atoms: C_1  and  C_2
REMARK    2  A    between atoms: C_5  and  O_8
REMARK    3  A    between atoms: O_8  and  C_9
REMARK    4  A    between atoms: C_9  and  C_11
REMARK    5  A    between atoms: C_9  and  C_12
REMARK    6  A    between atoms: C_12  and  N_13
REMARK    7  A    between atoms: C_14  and  C_16
REMARK    8  A    between atoms: C_27  and  C_29
REMARK    9  A    between atoms: C_29  and  C_31
REMARK   10  A    between atoms: C_29  and  O_34
REMARK   11  A    between atoms: C_31  and  C_32
REMARK   12  A    between atoms: C_31  and  C_33
REMARK   13  A    between atoms: O_34  and  C_35
REMARK                            x       y       z     vdW  Elec       q    Type
REMARK                         _______ _______ _______ _____ _____    ______ ____
ROOT
ATOM      1  C   UNL     1       4.944  -6.977  -0.169  0.00  0.00    +0.100 C 
ATOM      2  C   UNL     1       5.477  -6.244   1.083  0.00  0.00    +0.121 C 
ATOM      3  N   UNL     1       6.265  -7.268   1.808  0.00  0.00    -0.297 N 
ATOM      4  C   UNL     1       6.964  -8.021   0.739  0.00  0.00    +0.115 C 
ATOM      5  C   UNL     1       5.925  -8.140  -0.394  0.00  0.00    -0.004 C 
ATOM      6  C   UNL     1       6.607  -8.002  -1.752  0.00  0.00    -0.010 C 
ATOM      7  C   UNL     1       7.533  -9.200  -1.977  0.00  0.00    -0.082 C 
ATOM      8  N   UNL     1       6.753 -10.442  -1.922  0.00  0.00    +0.379 N 
ATOM      9  C   UNL     1       6.177 -10.613  -0.583  0.00  0.00    -0.082 C 
ATOM     10  C   UNL     1       5.193  -9.475  -0.298  0.00  0.00    -0.010 C 
ATOM     11  C   UNL     1       6.333  -7.468   3.139  0.00  0.00    +0.257 C 
ATOM     12  O   UNL     1       5.767  -6.708   3.896  0.00  0.00    -0.272 OA
ATOM     13  H   UNL     1       6.009 -10.401  -2.603  0.00  0.00    -0.086 HD
ATOM     14  H   UNL     1       7.354 -11.225  -2.131  0.00  0.00    -0.086 HD
ENDROOT
BRANCH   1  16
ATOM     15  N   UNL     1       2.745  -7.790  -0.956  0.00  0.00    -0.312 N 
ATOM     16  C   UNL     1       3.555  -7.504   0.082  0.00  0.00    +0.218 C 
ATOM     17  O   UNL     1       3.166  -7.670   1.219  0.00  0.00    -0.275 OA
ATOM     18  H   UNL     1       3.056  -7.657  -1.865  0.00  0.00    +0.149 HD
BRANCH  15  19
ATOM     19  C   UNL     1       1.394  -8.302  -0.711  0.00  0.00    +0.148 C 
BRANCH  19  20
ATOM     20  C   UNL     1       0.690  -8.543  -2.048  0.00  0.00    +0.187 C 
ATOM     21  C   UNL     1      -0.760  -8.959  -1.794  0.00  0.00    +0.053 C 
BRANCH  20  22
ATOM     22  O   UNL     1       1.365  -9.582  -2.761  0.00  0.00    -0.488 OA
BRANCH  22  27
ATOM     23  C   UNL     1       1.448  -9.188  -8.380  0.00  0.00    +0.044 C 
ATOM     24  C   UNL     1       1.426  -9.294  -6.876  0.00  0.00    -0.050 A 
ATOM     25  C   UNL     1       0.682  -8.396  -6.133  0.00  0.00    +0.007 A 
ATOM     26  C   UNL     1       0.660  -8.491  -4.755  0.00  0.00    +0.046 A 
ATOM     27  C   UNL     1       1.385  -9.487  -4.117  0.00  0.00    +0.121 A 
ATOM     28  C   UNL     1       2.130 -10.387  -4.865  0.00  0.00    +0.046 A 
ATOM     29  C   UNL     1       2.144 -10.291  -6.244  0.00  0.00    +0.007 A 
ENDBRANCH  22  27
ENDBRANCH  20  22
ENDBRANCH  19  20
ENDBRANCH  15  19
ENDBRANCH   1  16
BRANCH  11  30
ATOM     30  C   UNL     1       7.111  -8.637   3.687  0.00  0.00    +0.261 C 
BRANCH  30  31
ATOM     31  C   UNL     1       8.606  -8.407   3.458  0.00  0.00    +0.033 C 
ATOM     32  C   UNL     1       9.064  -7.192   4.268  0.00  0.00    +0.011 C 
ATOM     33  C   UNL     1       9.387  -9.643   3.908  0.00  0.00    +0.011 C 
ENDBRANCH  30  31
BRANCH  30  34
ATOM     34  O   UNL     1       6.857  -8.764   5.087  0.00  0.00    -0.479 OA
BRANCH  34  35
ATOM     35  C   UNL     1       6.811 -10.025   5.594  0.00  0.00    +0.122 A 
ATOM     36  C   UNL     1       6.594 -10.221   6.950  0.00  0.00    +0.045 A 
ATOM     37  C   UNL     1       6.547 -11.503   7.463  0.00  0.00    +0.004 A 
ATOM     38  C   UNL     1       6.717 -12.590   6.625  0.00  0.00    +0.000 A 
ATOM     39  C   UNL     1       6.933 -12.397   5.274  0.00  0.00    +0.004 A 
ATOM     40  C   UNL     1       6.975 -11.117   4.755  0.00  0.00    +0.045 A 
ENDBRANCH  34  35
ENDBRANCH  30  34
ENDBRANCH  11  30
TORSDOF 9
