REMARK  Name = ZINC12134789
REMARK  13 active torsions:
REMARK  status: ('A' for Active; 'I' for Inactive)
REMARK    1  A    between atoms: C_1  and  C_2
REMARK    2  A    between atoms: C_2  and  C_3
REMARK    3  A    between atoms: C_3  and  C_4
REMARK    4  A    between atoms: C_3  and  C_6
REMARK    5  A    between atoms: C_4  and  C_5
REMARK    6  A    between atoms: C_6  and  N_61
REMARK    7  A    between atoms: C_12  and  S_18
REMARK    8  A    between atoms: C_13  and  C_14
REMARK    9  A    between atoms: C_14  and  O_16
REMARK   10  A    between atoms: O_16  and  C_17
REMARK   11  A    between atoms: S_18  and  N_21
REMARK   12  A    between atoms: N_21  and  C_22
REMARK   13  A    between atoms: C_22  and  C_23
REMARK                            x       y       z     vdW  Elec       q    Type
REMARK                         _______ _______ _______ _____ _____    ______ ____
ROOT
ATOM      1  C   UNL     1      -2.698   3.629   4.571  0.00  0.00    -0.074 C 
ATOM      2  C   UNL     1      -1.783   2.863   3.611  0.00  0.00    +0.018 C 
ATOM      3  C   UNL     1      -2.583   2.530   2.357  0.00  0.00    -0.025 A 
ATOM      4  C   UNL     1      -3.936   2.584   2.381  0.00  0.00    -0.021 A 
ATOM      5  S   UNL     1      -4.429   2.142   0.742  0.00  0.00    -0.074 S 
ATOM      6  C   UNL     1      -2.865   1.877   0.043  0.00  0.00    +0.157 A 
ATOM      7  C   UNL     1      -2.004   2.145   1.087  0.00  0.00    +0.096 A 
ATOM      8  C   UNL     1      -4.790   2.949   3.554  0.00  0.00    -0.035 C 
ATOM      9  N   UNL     1      -3.947   2.866   4.772  0.00  0.00    +0.383 N 
ATOM     10  H   UNL     1      -3.713   1.882   4.950  0.00  0.00    -0.081 HD
ENDROOT
BRANCH   6  11
ATOM     11  S   UNL     1      -2.470   1.392  -1.604  0.00  0.00    +0.066 S 
ATOM     12  O   UNL     1      -2.569  -0.025  -1.644  0.00  0.00    -0.153 OA
ATOM     13  O   UNL     1      -1.280   2.084  -1.957  0.00  0.00    -0.153 OA
BRANCH  11  14
ATOM     14  N   UNL     1      -3.668   1.978  -2.587  0.00  0.00    -0.187 NA
ATOM     15  H   UNL     1      -4.249   1.363  -3.062  0.00  0.00    +0.148 HD
BRANCH  14  16
ATOM     16  C   UNL     1      -3.848   3.423  -2.740  0.00  0.00    +0.137 C 
BRANCH  16  17
ATOM     17  C   UNL     1      -4.738   3.700  -3.953  0.00  0.00    +0.134 C 
ATOM     18  C   UNL     1      -4.934   5.219  -4.123  0.00  0.00    +0.035 C 
ATOM     19  C   UNL     1      -4.394   5.515  -5.543  0.00  0.00    +0.031 C 
ATOM     20  C   UNL     1      -4.462   4.120  -6.214  0.00  0.00    +0.160 C 
ATOM     21  O   UNL     1      -4.102   3.216  -5.147  0.00  0.00    -0.375 OA
ENDBRANCH  16  17
ENDBRANCH  14  16
ENDBRANCH  11  14
ENDBRANCH   6  11
BRANCH   7  22
ATOM     22  C   UNL     1      -0.547   2.042   0.916  0.00  0.00    +0.342 C 
ATOM     23  O   UNL     1       0.092   3.011   0.556  0.00  0.00    -0.245 OA
BRANCH  22  24
ATOM     24  O   UNL     1       0.079   0.873   1.158  0.00  0.00    -0.464 OA
ATOM     25  C   UNL     1       1.519   0.845   0.968  0.00  0.00    +0.280 C 
ENDBRANCH  22  24
ENDBRANCH   7  22
BRANCH   9  26
ATOM     26  C   UNL     1      -4.686   3.401   5.936  0.00  0.00    -0.075 C 
BRANCH  26  27
ATOM     27  C   UNL     1      -5.849   2.461   6.259  0.00  0.00    -0.028 C 
BRANCH  27  29
ATOM     28  C   UNL     1      -4.529   1.250   8.001  0.00  0.00    +0.004 C 
ATOM     29  C   UNL     1      -5.300   1.099   6.688  0.00  0.00    -0.002 C 
ENDBRANCH  27  29
BRANCH  27  30
ATOM     30  C   UNL     1      -6.684   3.055   7.395  0.00  0.00    -0.002 C 
ATOM     31  C   UNL     1      -7.914   2.178   7.636  0.00  0.00    +0.004 C 
ENDBRANCH  27  30
ENDBRANCH  26  27
ENDBRANCH   9  26
TORSDOF 10
