REMARK  Name = ZINC39431393
REMARK  7 active torsions:
REMARK  status: ('A' for Active; 'I' for Inactive)
REMARK    1  A    between atoms: C_1  and  C_2
REMARK    2  A    between atoms: C_7  and  C_8
REMARK    3  A    between atoms: C_7  and  C_9
REMARK    4  A    between atoms: N_12  and  C_15
REMARK    5  A    between atoms: C_18  and  C_21
REMARK    6  A    between atoms: C_21  and  O_23
REMARK    7  A    between atoms: O_23  and  C_24
REMARK                            x       y       z     vdW  Elec       q    Type
REMARK                         _______ _______ _______ _____ _____    ______ ____
ROOT
ATOM      1  C   UNL     1       0.122   1.289   1.501  0.00  0.00    +0.021 C 
ATOM      2  C   UNL     1       0.024  -0.015   0.706  0.00  0.00    +0.051 C 
ATOM      3  C   UNL     1       0.461   0.139  -0.771  0.00  0.00    +0.017 C 
ATOM      4  C   UNL     1       1.035  -1.227  -1.188  0.00  0.00    +0.014 C 
ATOM      5  C   UNL     1       0.917  -2.138   0.058  0.00  0.00    +0.083 C 
ATOM      6  C   UNL     1       0.967  -1.129   1.240  0.00  0.00    -0.010 C 
ATOM      7  C   UNL     1       0.415  -1.754   2.523  0.00  0.00    +0.012 C 
ATOM      8  C   UNL     1       2.386  -0.598   1.453  0.00  0.00    +0.012 C 
ATOM      9  C   UNL     1      -0.482  -2.726   0.044  0.00  0.00    +0.230 C 
ATOM     10  O   UNL     1      -0.654  -3.887  -0.261  0.00  0.00    -0.275 OA
ATOM     11  N   UNL     1      -1.532  -1.950   0.372  0.00  0.00    -0.210 N 
ATOM     12  C   UNL     1      -1.372  -0.611   0.715  0.00  0.00    +0.233 C 
ATOM     13  O   UNL     1      -2.331   0.084   0.977  0.00  0.00    -0.274 OA
ENDROOT
BRANCH  11  14
ATOM     14  C   UNL     1      -2.809  -2.518   0.403  0.00  0.00    +0.044 A 
ATOM     15  C   UNL     1      -3.284  -3.093   1.576  0.00  0.00    +0.025 A 
ATOM     16  C   UNL     1      -4.541  -3.654   1.610  0.00  0.00    +0.017 A 
ATOM     17  C   UNL     1      -5.340  -3.645   0.463  0.00  0.00    +0.059 A 
ATOM     18  C   UNL     1      -4.859  -3.066  -0.715  0.00  0.00    +0.017 A 
ATOM     19  C   UNL     1      -3.603  -2.502  -0.739  0.00  0.00    +0.025 A 
BRANCH  17  20
ATOM     20  C   UNL     1      -6.687  -4.245   0.495  0.00  0.00    +0.339 C 
ATOM     21  O   UNL     1      -7.103  -4.749   1.519  0.00  0.00    -0.245 OA
BRANCH  20  22
ATOM     22  O   UNL     1      -7.455  -4.236  -0.612  0.00  0.00    -0.464 OA
ATOM     23  C   UNL     1      -8.748  -4.835  -0.509  0.00  0.00    +0.280 C 
ENDBRANCH  20  22
ENDBRANCH  17  20
ENDBRANCH  11  14
TORSDOF 3
