REMARK  Name = ZINC10443142
REMARK  13 active torsions:
REMARK  status: ('A' for Active; 'I' for Inactive)
REMARK    1  A    between atoms: C_1  and  C_2
REMARK    2  A    between atoms: C_2  and  C_3
REMARK    3  A    between atoms: C_3  and  C_4
REMARK    4  A    between atoms: C_4  and  N_5
REMARK    5  A    between atoms: C_6  and  N_34
REMARK    6  A    between atoms: C_7  and  N_14
REMARK    7  A    between atoms: N_14  and  C_15
REMARK    8  A    between atoms: C_15  and  C_16
REMARK    9  A    between atoms: C_16  and  C_17
REMARK   10  A    between atoms: C_16  and  C_18
REMARK   11  A    between atoms: C_19  and  C_21
REMARK   12  A    between atoms: C_21  and  N_22
REMARK   13  A    between atoms: C_24  and  C_30
REMARK                            x       y       z     vdW  Elec       q    Type
REMARK                         _______ _______ _______ _____ _____    ______ ____
ROOT
ATOM      1  N   UNL     1       0.545  -2.867  -2.248  0.00  0.00    -0.263 N 
ATOM      2  C   UNL     1       0.521  -2.427  -3.524  0.00  0.00    +0.240 C 
ATOM      3  O   UNL     1       0.236  -1.272  -3.762  0.00  0.00    -0.273 OA
ENDROOT
BRANCH   1   6
ATOM      4  N   UNL     1       1.108  -0.839   0.764  0.00  0.00    -0.280 N 
ATOM      5  C   UNL     1       1.339  -1.724  -0.263  0.00  0.00    +0.127 A 
ATOM      6  C   UNL     1       0.341  -1.961  -1.186  0.00  0.00    +0.140 A 
ATOM      7  C   UNL     1      -0.884  -1.280  -1.051  0.00  0.00    +0.277 A 
ATOM      8  O   UNL     1      -1.782  -1.468  -1.855  0.00  0.00    -0.266 OA
ATOM      9  N   UNL     1      -1.057  -0.420  -0.029  0.00  0.00    -0.273 N 
ATOM     10  H   UNL     1      -1.927   0.064   0.068  0.00  0.00    +0.173 HD
ATOM     11  C   UNL     1      -0.074  -0.205   0.863  0.00  0.00    +0.331 A 
ATOM     12  O   UNL     1      -0.257   0.577   1.776  0.00  0.00    -0.246 OA
BRANCH   5  13
ATOM     13  N   UNL     1       2.549  -2.368  -0.368  0.00  0.00    -0.343 N 
ATOM     14  H   UNL     1       3.210  -2.275   0.336  0.00  0.00    +0.144 HD
ATOM     15  H   UNL     1       2.742  -2.915  -1.145  0.00  0.00    +0.144 HD
ENDBRANCH   5  13
BRANCH   4  16
ATOM     16  C   UNL     1       2.158  -0.582   1.753  0.00  0.00    +0.128 C 
BRANCH  16  17
ATOM     17  C   UNL     1       2.016  -1.566   2.916  0.00  0.00    +0.021 C 
BRANCH  17  19
ATOM     18  C   UNL     1       2.970  -2.281   5.112  0.00  0.00    +0.004 C 
ATOM     19  C   UNL     1       3.112  -1.296   3.949  0.00  0.00    -0.002 C 
ENDBRANCH  17  19
ENDBRANCH  16  17
ENDBRANCH   4  16
ENDBRANCH   1   6
BRANCH   1  20
ATOM     20  C   UNL     1       0.784  -4.284  -1.966  0.00  0.00    +0.117 C 
BRANCH  20  21
ATOM     21  C   UNL     1      -0.534  -5.054  -2.070  0.00  0.00    +0.001 C 
ATOM     22  C   UNL     1      -0.262  -6.553  -1.927  0.00  0.00    +0.009 C 
ATOM     23  C   UNL     1      -1.479  -4.599  -0.956  0.00  0.00    +0.009 C 
ENDBRANCH  20  21
ENDBRANCH   1  20
BRANCH   2  24
ATOM     24  C   UNL     1       0.847  -3.371  -4.652  0.00  0.00    +0.221 C 
BRANCH  24  25
ATOM     25  N   UNL     1       0.751  -2.658  -5.928  0.00  0.00    -0.305 N 
ATOM     26  C   UNL     1       1.847  -2.033  -6.433  0.00  0.00    +0.102 A 
ATOM     27  C   UNL     1       1.783  -1.368  -7.609  0.00  0.00    +0.073 A 
ATOM     28  C   UNL     1       0.576  -1.319  -8.322  0.00  0.00    +0.039 A 
ATOM     29  C   UNL     1      -0.524  -1.946  -7.814  0.00  0.00    +0.106 A 
ATOM     30  C   UNL     1      -0.421  -2.633  -6.591  0.00  0.00    +0.270 A 
ATOM     31  O   UNL     1      -1.396  -3.203  -6.127  0.00  0.00    -0.266 OA
ATOM     32 CL   UNL     1      -2.032  -1.904  -8.673  0.00  0.00    -0.078 Cl
BRANCH  27  33
ATOM     33  C   UNL     1       3.009  -0.681  -8.154  0.00  0.00    +0.419 C 
ATOM     34  F   UNL     1       3.660  -1.532  -9.053  0.00  0.00    -0.166 F 
ATOM     35  F   UNL     1       2.630   0.493  -8.814  0.00  0.00    -0.166 F 
ATOM     36  F   UNL     1       3.873  -0.365  -7.100  0.00  0.00    -0.166 F 
ENDBRANCH  27  33
ENDBRANCH  24  25
ENDBRANCH   2  24
TORSDOF 10
