REMARK  Name = ZINC39469907
REMARK  7 active torsions:
REMARK  status: ('A' for Active; 'I' for Inactive)
REMARK    1  A    between atoms: C_1  and  C_2
REMARK    2  A    between atoms: C_2  and  C_3
REMARK    3  A    between atoms: C_2  and  S_4
REMARK    4  A    between atoms: S_4  and  P_7
REMARK    5  A    between atoms: C_15  and  C_26
REMARK    6  A    between atoms: C_16  and  O_25
REMARK    7  A    between atoms: C_26  and  C_27
REMARK                            x       y       z     vdW  Elec       q    Type
REMARK                         _______ _______ _______ _____ _____    ______ ____
ROOT
ATOM      1  P   UNL     1      -2.582   0.150  -1.747  0.00  0.00    +0.392 P 
ATOM      2  O   UNL     1      -1.874  -0.357  -2.943  0.00  0.00    -0.249 OA
ATOM      3  N   UNL     1      -4.182  -0.250  -1.812  0.00  0.00    -0.274 NA
ATOM      4  N   UNL     1      -5.001   0.502  -2.627  0.00  0.00    +0.398 N 
ATOM      5  C   UNL     1      -6.367   0.005  -2.403  0.00  0.00    -0.046 C 
ATOM      6  C   UNL     1      -7.370   0.753  -3.271  0.00  0.00    +0.005 C 
ATOM      7  C   UNL     1      -7.047   0.568  -4.729  0.00  0.00    -0.017 C 
ATOM      8  C   UNL     1      -7.489   1.454  -5.617  0.00  0.00    -0.006 C 
ATOM      9  C   UNL     1      -8.300   2.599  -5.157  0.00  0.00    +0.116 C 
ATOM     10  C   UNL     1      -8.231   2.989  -3.883  0.00  0.00    +0.022 C 
ATOM     11  C   UNL     1      -7.319   2.248  -2.936  0.00  0.00    +0.019 C 
ATOM     12  C   UNL     1      -5.884   2.741  -3.132  0.00  0.00    -0.002 C 
ATOM     13  C   UNL     1      -4.911   1.922  -2.277  0.00  0.00    -0.020 C 
ATOM     14  C   UNL     1      -3.505   2.477  -2.538  0.00  0.00    +0.158 C 
ATOM     15  O   UNL     1      -2.551   1.777  -1.720  0.00  0.00    -0.304 OA
ATOM     16  H   UNL     1      -4.535  -0.990  -1.294  0.00  0.00    +0.112 HD
ATOM     17  H   UNL     1      -4.732   0.372  -3.591  0.00  0.00    -0.055 HD
ENDROOT
BRANCH   1  18
ATOM     18  S   UNL     1      -1.700  -0.632   0.015  0.00  0.00    +0.056 S 
ATOM     19  O   UNL     1      -1.703  -2.041  -0.172  0.00  0.00    -0.164 OA
ATOM     20  O   UNL     1      -2.431  -0.041   1.080  0.00  0.00    -0.164 OA
BRANCH  18  22
ATOM     21  C   UNL     1      -0.019   1.526   0.010  0.00  0.00    +0.032 C 
ATOM     22  C   UNL     1       0.002  -0.004   0.002  0.00  0.00    +0.135 C 
ATOM     23  C   UNL     1       0.742  -0.511   1.242  0.00  0.00    +0.032 C 
ENDBRANCH  18  22
ENDBRANCH   1  18
BRANCH   9  24
ATOM     24  O   UNL     1      -9.114   3.252  -6.028  0.00  0.00    -0.507 OA
ATOM     25  H   UNL     1      -9.603   3.986  -5.634  0.00  0.00    +0.292 HD
ENDBRANCH   9  24
BRANCH   8  26
ATOM     26  C   UNL     1      -7.165   1.292  -7.080  0.00  0.00    +0.073 C 
BRANCH  26  27
ATOM     27  C   UNL     1      -8.298   0.576  -7.769  0.00  0.00    -0.043 A 
ATOM     28  C   UNL     1      -8.299  -0.804  -7.847  0.00  0.00    +0.004 A 
ATOM     29  C   UNL     1      -9.338  -1.460  -8.479  0.00  0.00    +0.000 A 
ATOM     30  C   UNL     1     -10.378  -0.736  -9.033  0.00  0.00    +0.000 A 
ATOM     31  C   UNL     1     -10.378   0.644  -8.954  0.00  0.00    +0.000 A 
ATOM     32  C   UNL     1      -9.340   1.300  -8.318  0.00  0.00    +0.004 A 
ENDBRANCH  26  27
ENDBRANCH   8  26
TORSDOF 5
