REMARK  Name = ZINC00927270
REMARK  18 active torsions:
REMARK  status: ('A' for Active; 'I' for Inactive)
REMARK    1  A    between atoms: C_1  and  C_2
REMARK    2  A    between atoms: C_2  and  O_3
REMARK    3  A    between atoms: O_3  and  C_4
REMARK    4  A    between atoms: C_4  and  C_6
REMARK    5  A    between atoms: C_6  and  N_7
REMARK    6  A    between atoms: C_8  and  C_12
REMARK    7  A    between atoms: C_12  and  N_13
REMARK    8  A    between atoms: N_13  and  C_14
REMARK    9  A    between atoms: N_13  and  C_26
REMARK   10  A    between atoms: C_14  and  C_15
REMARK   11  A    between atoms: C_15  and  C_16
REMARK   12  A    between atoms: C_19  and  O_24
REMARK   13  A    between atoms: C_20  and  O_22
REMARK   14  A    between atoms: O_22  and  C_23
REMARK   15  A    between atoms: O_24  and  C_25
REMARK   16  A    between atoms: C_26  and  C_27
REMARK   17  A    between atoms: C_31  and  C_40
REMARK   18  A    between atoms: C_32  and  C_39
REMARK                            x       y       z     vdW  Elec       q    Type
REMARK                         _______ _______ _______ _____ _____    ______ ____
ROOT
ATOM      1  N   UNL     1      -1.748  -3.919   2.718  0.00  0.00    +0.387 N 
ATOM      2  H   UNL     1      -1.329  -3.316   2.026  0.00  0.00    -0.081 HD
ENDROOT
BRANCH   1   3
ATOM      3  C   UNL     1      -0.752  -4.251   3.746  0.00  0.00    +0.001 C 
BRANCH   3   5
ATOM      4  N   UNL     1       1.498  -4.238   2.546  0.00  0.00    -0.220 N 
ATOM      5  C   UNL     1       0.451  -4.882   3.094  0.00  0.00    +0.136 A 
ATOM      6  N   UNL     1       0.681  -6.165   2.951  0.00  0.00    -0.115 NA
ATOM      7  N   UNL     1       1.811  -6.301   2.347  0.00  0.00    -0.023 NA
ATOM      8  N   UNL     1       2.305  -5.139   2.096  0.00  0.00    -0.043 NA
BRANCH   4   9
ATOM      9  C   UNL     1       1.684  -2.787   2.470  0.00  0.00    +0.267 C 
BRANCH   9  10
ATOM     10  C   UNL     1       1.074  -2.269   1.193  0.00  0.00    +0.329 C 
ATOM     11  O   UNL     1       0.538  -3.033   0.425  0.00  0.00    -0.249 OA
BRANCH  10  12
ATOM     12  O   UNL     1       1.125  -0.958   0.908  0.00  0.00    -0.464 OA
BRANCH  12  14
ATOM     13  C   UNL     1       0.682   0.978  -0.469  0.00  0.00    +0.048 C 
ATOM     14  C   UNL     1       0.526  -0.537  -0.319  0.00  0.00    +0.229 C 
ENDBRANCH  12  14
ENDBRANCH  10  12
ENDBRANCH   9  10
ENDBRANCH   4   9
ENDBRANCH   3   5
ENDBRANCH   1   3
BRANCH   1  15
ATOM     15  C   UNL     1      -2.217  -5.153   2.074  0.00  0.00    -0.073 C 
BRANCH  15  16
ATOM     16  C   UNL     1      -3.143  -4.799   0.907  0.00  0.00    +0.017 C 
BRANCH  16  17
ATOM     17  C   UNL     1      -3.519  -6.056   0.166  0.00  0.00    -0.045 A 
ATOM     18  C   UNL     1      -2.737  -6.498  -0.884  0.00  0.00    +0.007 A 
ATOM     19  C   UNL     1      -3.078  -7.651  -1.567  0.00  0.00    +0.049 A 
ATOM     20  C   UNL     1      -4.207  -8.365  -1.200  0.00  0.00    +0.161 A 
ATOM     21  C   UNL     1      -4.995  -7.920  -0.142  0.00  0.00    +0.162 A 
ATOM     22  C   UNL     1      -4.644  -6.767   0.541  0.00  0.00    +0.053 A 
BRANCH  21  23
ATOM     23  O   UNL     1      -6.104  -8.617   0.222  0.00  0.00    -0.491 OA
ATOM     24  C   UNL     1      -6.865  -8.101   1.316  0.00  0.00    +0.277 C 
ENDBRANCH  21  23
BRANCH  20  25
ATOM     25  O   UNL     1      -4.545  -9.499  -1.871  0.00  0.00    -0.491 OA
ATOM     26  C   UNL     1      -3.690  -9.895  -2.945  0.00  0.00    +0.277 C 
ENDBRANCH  20  25
ENDBRANCH  16  17
ENDBRANCH  15  16
ENDBRANCH   1  15
BRANCH   1  27
ATOM     27  C   UNL     1      -2.885  -3.230   3.342  0.00  0.00    -0.037 C 
BRANCH  27  28
ATOM     28  C   UNL     1      -2.427  -1.905   3.897  0.00  0.00    +0.001 A 
ATOM     29  C   UNL     1      -2.571  -0.777   3.158  0.00  0.00    +0.017 A 
ATOM     30  C   UNL     1      -2.117   0.493   3.725  0.00  0.00    -0.001 A 
ATOM     31  C   UNL     1      -2.240   1.690   3.011  0.00  0.00    +0.013 A 
ATOM     32  C   UNL     1      -1.806   2.859   3.569  0.00  0.00    -0.047 A 
ATOM     33  C   UNL     1      -1.243   2.870   4.838  0.00  0.00    -0.046 A 
ATOM     34  C   UNL     1      -1.112   1.703   5.560  0.00  0.00    +0.030 A 
ATOM     35  C   UNL     1      -1.547   0.501   5.013  0.00  0.00    +0.049 A 
ATOM     36  N   UNL     1      -1.429  -0.681   5.712  0.00  0.00    -0.322 N 
ATOM     37  H   UNL     1      -1.036  -0.674   6.599  0.00  0.00    +0.169 HD
ATOM     38  C   UNL     1      -1.854  -1.843   5.185  0.00  0.00    +0.251 A 
ATOM     39  O   UNL     1      -1.738  -2.868   5.834  0.00  0.00    -0.268 OA
ATOM     40  C   UNL     1      -0.771   4.172   5.433  0.00  0.00    +0.044 C 
ATOM     41  C   UNL     1      -1.939   4.148   2.800  0.00  0.00    +0.044 C 
ENDBRANCH  27  28
ENDBRANCH   1  27
TORSDOF 13
