REMARK  Name = ZINC39481867
REMARK  13 active torsions:
REMARK  status: ('A' for Active; 'I' for Inactive)
REMARK    1  A    between atoms: C_1  and  C_2
REMARK    2  A    between atoms: C_2  and  C_3
REMARK    3  A    between atoms: C_2  and  C_4
REMARK    4  A    between atoms: C_4  and  C_5
REMARK    5  A    between atoms: C_8  and  N_24
REMARK    6  A    between atoms: C_9  and  N_11
REMARK    7  A    between atoms: C_15  and  S_18
REMARK    8  A    between atoms: S_18  and  C_21
REMARK    9  A    between atoms: C_21  and  C_22
REMARK   10  A    between atoms: C_21  and  C_23
REMARK   11  A    between atoms: N_24  and  S_25
REMARK   12  A    between atoms: S_25  and  C_28
REMARK   13  A    between atoms: C_28  and  C_29
REMARK                            x       y       z     vdW  Elec       q    Type
REMARK                         _______ _______ _______ _____ _____    ______ ____
ROOT
ATOM      1  C   UNL     1      -1.724  -0.595  -1.513  0.00  0.00    -0.045 A 
ATOM      2  C   UNL     1      -2.405   0.602  -1.385  0.00  0.00    +0.005 A 
ATOM      3  C   UNL     1      -3.175   1.078  -2.430  0.00  0.00    +0.026 A 
ATOM      4  C   UNL     1      -3.265   0.356  -3.610  0.00  0.00    +0.069 A 
ATOM      5  C   UNL     1      -2.578  -0.851  -3.739  0.00  0.00    +0.053 A 
ATOM      6  C   UNL     1      -1.804  -1.319  -2.688  0.00  0.00    +0.028 A 
ENDROOT
BRANCH   5   7
ATOM      7  N   UNL     1      -2.665  -1.585  -4.928  0.00  0.00    -0.324 N 
ATOM      8  C   UNL     1      -1.708  -1.366  -6.023  0.00  0.00    +0.120 C 
ATOM      9  C   UNL     1      -1.130  -2.722  -6.442  0.00  0.00    +0.101 C 
ATOM     10  N   UNL     1      -2.230  -3.644  -6.755  0.00  0.00    -0.293 NA
ATOM     11  C   UNL     1      -3.060  -3.903  -5.571  0.00  0.00    +0.215 C 
ATOM     12  C   UNL     1      -3.713  -2.600  -5.113  0.00  0.00    +0.147 C 
ATOM     13  H   UNL     1      -2.789  -3.294  -7.519  0.00  0.00    +0.124 HD
BRANCH  11  14
ATOM     14  S   UNL     1      -4.345  -5.114  -5.986  0.00  0.00    -0.012 S 
ATOM     15  O   UNL     1      -5.123  -5.361  -4.823  0.00  0.00    -0.173 OA
ATOM     16  O   UNL     1      -4.997  -4.689  -7.176  0.00  0.00    -0.173 OA
BRANCH  14  17
ATOM     17  C   UNL     1      -3.384  -6.606  -6.361  0.00  0.00    +0.126 C 
ATOM     18  C   UNL     1      -2.612  -7.042  -5.114  0.00  0.00    +0.031 C 
ATOM     19  C   UNL     1      -4.330  -7.728  -6.793  0.00  0.00    +0.031 C 
ENDBRANCH  14  17
ENDBRANCH  11  14
ENDBRANCH   5   7
BRANCH   4  20
ATOM     20  N   UNL     1      -4.045   0.837  -4.670  0.00  0.00    -0.219 N 
ATOM     21  H   UNL     1      -4.531   0.216  -5.235  0.00  0.00    +0.173 HD
BRANCH  20  22
ATOM     22  S   UNL     1      -4.138   2.465  -4.957  0.00  0.00    +0.047 S 
ATOM     23  O   UNL     1      -4.923   2.580  -6.136  0.00  0.00    -0.155 OA
ATOM     24  O   UNL     1      -4.586   3.025  -3.730  0.00  0.00    -0.155 OA
BRANCH  22  25
ATOM     25  C   UNL     1      -2.430   2.978  -5.291  0.00  0.00    +0.223 C 
BRANCH  25  26
ATOM     26  C   UNL     1      -2.396   4.458  -5.569  0.00  0.00    -0.025 A 
ATOM     27  C   UNL     1      -2.549   4.922  -6.862  0.00  0.00    +0.005 A 
ATOM     28  C   UNL     1      -2.517   6.280  -7.117  0.00  0.00    +0.000 A 
ATOM     29  C   UNL     1      -2.333   7.175  -6.079  0.00  0.00    +0.000 A 
ATOM     30  C   UNL     1      -2.180   6.711  -4.786  0.00  0.00    +0.000 A 
ATOM     31  C   UNL     1      -2.217   5.353  -4.530  0.00  0.00    +0.005 A 
ENDBRANCH  25  26
ENDBRANCH  22  25
ENDBRANCH  20  22
ENDBRANCH   4  20
BRANCH   1  32
ATOM     32  C   UNL     1      -0.887  -1.108  -0.370  0.00  0.00    +0.038 C 
BRANCH  32  34
ATOM     33  C   UNL     1       0.526   0.953  -0.341  0.00  0.00    +0.007 C 
ATOM     34  C   UNL     1       0.539  -0.569  -0.500  0.00  0.00    -0.013 C 
ATOM     35  C   UNL     1       1.420  -1.188   0.588  0.00  0.00    +0.007 C 
ENDBRANCH  32  34
ENDBRANCH   1  32
TORSDOF 9
