REMARK  Name = ZINC00819612
REMARK  1 active torsions:
REMARK  status: ('A' for Active; 'I' for Inactive)
REMARK    1  A    between atoms: N_20  and  O_21
REMARK                            x       y       z     vdW  Elec       q    Type
REMARK                         _______ _______ _______ _____ _____    ______ ____
ROOT
ATOM      1  C   UNL     1       6.576   6.610  -0.233  0.00  0.00    +0.000 A 
ATOM      2  C   UNL     1       6.416   5.296  -0.636  0.00  0.00    +0.001 A 
ATOM      3  C   UNL     1       5.176   4.694  -0.548  0.00  0.00    +0.010 A 
ATOM      4  C   UNL     1       4.095   5.415  -0.052  0.00  0.00    +0.002 A 
ATOM      5  C   UNL     1       4.261   6.732   0.369  0.00  0.00    -0.037 A 
ATOM      6  C   UNL     1       5.505   7.324   0.274  0.00  0.00    +0.004 A 
ATOM      7  C   UNL     1       3.097   7.484   0.949  0.00  0.00    +0.047 C 
ATOM      8  C   UNL     1       1.778   7.107   0.272  0.00  0.00    +0.007 C 
ATOM      9  C   UNL     1       1.701   7.785  -1.106  0.00  0.00    +0.012 C 
ATOM     10  C   UNL     1       0.289   8.401  -1.188  0.00  0.00    +0.001 C 
ATOM     11  C   UNL     1      -0.025   8.796   0.274  0.00  0.00    +0.001 C 
ATOM     12  C   UNL     1       0.640   7.695   1.127  0.00  0.00    +0.012 C 
ATOM     13  C   UNL     1       1.623   5.624   0.116  0.00  0.00    +0.049 A 
ATOM     14  C   UNL     1       2.748   4.800   0.034  0.00  0.00    +0.058 A 
ATOM     15  N   UNL     1       2.604   3.480  -0.004  0.00  0.00    -0.323 N 
ATOM     16  C   UNL     1       1.400   2.933   0.004  0.00  0.00    +0.229 A 
ATOM     17  N   UNL     1       0.308   3.682  -0.006  0.00  0.00    -0.173 NA
ATOM     18  C   UNL     1       0.380   5.010   0.026  0.00  0.00    +0.279 A 
ATOM     19  O   UNL     1      -0.767   5.725  -0.093  0.00  0.00    -0.265 OA
ATOM     20  N   UNL     1       1.275   1.556  -0.002  0.00  0.00    -0.237 N 
ATOM     21  H   UNL     1       2.173   0.922  -0.014  0.00  0.00    +0.197 HD
ATOM     22  H   UNL     1       3.491   2.830  -0.043  0.00  0.00    +0.169 HD
ENDROOT
BRANCH  20  23
ATOM     23  O   UNL     1      -0.011   0.963   0.007  0.00  0.00    -0.287 OA
ATOM     24  H   UNL     1      -0.111  -0.133   0.002  0.00  0.00    +0.244 HD
ENDBRANCH  20  23
TORSDOF 1
