REMARK  Name = ZINC63821579
REMARK  8 active torsions:
REMARK  status: ('A' for Active; 'I' for Inactive)
REMARK    1  A    between atoms: C_1  and  S_2
REMARK    2  A    between atoms: S_2  and  C_3
REMARK    3  A    between atoms: C_3  and  C_4
REMARK    4  A    between atoms: C_4  and  C_5
REMARK    5  A    between atoms: C_5  and  C_7
REMARK    6  A    between atoms: C_5  and  N_19
REMARK    7  A    between atoms: N_9  and  C_10
REMARK    8  A    between atoms: C_20  and  C_22
REMARK                            x       y       z     vdW  Elec       q    Type
REMARK                         _______ _______ _______ _____ _____    ______ ____
ROOT
ATOM      1  C   UNL     1       1.701  -2.297  -2.963  0.00  0.00    +0.160 C 
ENDROOT
BRANCH   1   2
ATOM      2  C   UNL     1       1.684  -3.791  -3.158  0.00  0.00    +0.236 C 
ATOM      3  O   UNL     1       2.728  -4.406  -3.222  0.00  0.00    -0.274 OA
ATOM      4  N   UNL     1       0.510  -4.444  -3.262  0.00  0.00    -0.277 N 
ATOM      5  H   UNL     1      -0.325  -3.953  -3.211  0.00  0.00    +0.152 HD
BRANCH   4   6
ATOM      6  C   UNL     1       0.494  -5.897  -3.452  0.00  0.00    +0.269 C 
ATOM      7  N   UNL     1       0.795  -6.226  -4.851  0.00  0.00    -0.348 N 
ATOM      8  C   UNL     1      -0.234  -6.861  -5.333  0.00  0.00    +0.061 A 
ATOM      9  C   UNL     1      -0.524  -7.436  -6.654  0.00  0.00    +0.027 A 
ATOM     10  C   UNL     1      -1.704  -8.052  -6.866  0.00  0.00    +0.002 A 
ATOM     11  C   UNL     1      -2.688  -8.171  -5.868  0.00  0.00    +0.002 A 
ATOM     12  C   UNL     1      -2.523  -7.679  -4.624  0.00  0.00    +0.027 A 
ATOM     13  C   UNL     1      -1.274  -6.988  -4.276  0.00  0.00    +0.061 A 
ATOM     14  N   UNL     1      -0.849  -6.426  -3.182  0.00  0.00    -0.348 N 
ATOM     15  H   UNL     1       1.611  -6.009  -5.329  0.00  0.00    +0.163 HD
ATOM     16  H   UNL     1      -1.330  -6.368  -2.342  0.00  0.00    +0.163 HD
ENDBRANCH   4   6
ENDBRANCH   1   2
BRANCH   1  17
ATOM     17  N   UNL     1       3.087  -1.830  -2.881  0.00  0.00    -0.297 N 
ATOM     18  C   UNL     1       3.390  -0.558  -3.207  0.00  0.00    +0.280 C 
ATOM     19  O   UNL     1       2.513   0.202  -3.571  0.00  0.00    -0.267 OA
ATOM     20  H   UNL     1       3.786  -2.437  -2.591  0.00  0.00    +0.150 HD
BRANCH  18  21
ATOM     21  C   UNL     1       4.781  -0.090  -3.124  0.00  0.00    +0.190 A 
ATOM     22  C   UNL     1       5.202   1.166  -3.422  0.00  0.00    +0.063 A 
ATOM     23  C   UNL     1       6.647   1.173  -3.197  0.00  0.00    +0.021 A 
ATOM     24  C   UNL     1       7.647   2.141  -3.321  0.00  0.00    +0.011 A 
ATOM     25  C   UNL     1       8.941   1.819  -3.024  0.00  0.00    +0.001 A 
ATOM     26  C   UNL     1       9.268   0.538  -2.602  0.00  0.00    +0.004 A 
ATOM     27  C   UNL     1       8.297  -0.431  -2.474  0.00  0.00    +0.047 A 
ATOM     28  C   UNL     1       6.973  -0.127  -2.770  0.00  0.00    +0.136 A 
ATOM     29  O   UNL     1       5.832  -0.843  -2.735  0.00  0.00    -0.450 OA
ENDBRANCH  18  21
ENDBRANCH   1  17
BRANCH   1  30
ATOM     30  C   UNL     1       0.966  -1.944  -1.668  0.00  0.00    +0.042 C 
BRANCH  30  31
ATOM     31  C   UNL     1       0.873  -0.423  -1.533  0.00  0.00    +0.071 C 
BRANCH  31  33
ATOM     32  C   UNL     1      -0.022   1.810   0.012  0.00  0.00    +0.084 C 
ATOM     33  S   UNL     1       0.002  -0.004   0.002  0.00  0.00    -0.164 S 
ENDBRANCH  31  33
ENDBRANCH  30  31
ENDBRANCH   1  30
TORSDOF 7
