REMARK  Name = ZINC15134148
REMARK  6 active torsions:
REMARK  status: ('A' for Active; 'I' for Inactive)
REMARK    1  A    between atoms: C_1  and  N_2
REMARK    2  A    between atoms: C_9  and  C_21
REMARK    3  A    between atoms: C_11  and  C_17
REMARK    4  A    between atoms: C_11  and  C_19
REMARK    5  A    between atoms: C_12  and  N_16
REMARK    6  A    between atoms: C_13  and  C_14
REMARK                            x       y       z     vdW  Elec       q    Type
REMARK                         _______ _______ _______ _____ _____    ______ ____
ROOT
ATOM      1  C   UNL     1      -1.196   2.314   4.438  0.00  0.00    +0.105 C 
ATOM      2  N   UNL     1      -1.939   2.599   3.203  0.00  0.00    -0.301 NA
ATOM      3  C   UNL     1      -3.380   2.744   3.476  0.00  0.00    +0.111 C 
ATOM      4  C   UNL     1      -4.088   2.870   2.150  0.00  0.00    -0.007 C 
ATOM      5  C   UNL     1      -3.487   3.458   1.132  0.00  0.00    -0.026 C 
ATOM      6  C   UNL     1      -2.121   4.074   1.232  0.00  0.00    +0.044 C 
ATOM      7  C   UNL     1      -1.425   3.805   2.547  0.00  0.00    +0.093 C 
ATOM      8  C   UNL     1      -1.293   3.592   0.040  0.00  0.00    +0.068 C 
ATOM      9  C   UNL     1      -1.939   4.093  -1.252  0.00  0.00    +0.188 C 
ATOM     10  C   UNL     1      -3.404   3.768  -1.300  0.00  0.00    +0.054 C 
ATOM     11  C   UNL     1      -4.144   3.481  -0.199  0.00  0.00    +0.074 C 
ENDROOT
BRANCH   8  12
ATOM     12  C   UNL     1      -1.251   2.085   0.031  0.00  0.00    -0.033 A 
ATOM     13  C   UNL     1      -2.306   1.374  -0.452  0.00  0.00    +0.004 A 
ATOM     14  C   UNL     1      -2.286  -0.019  -0.468  0.00  0.00    +0.001 A 
ATOM     15  C   UNL     1      -1.208  -0.709  -0.006  0.00  0.00    +0.008 A 
ATOM     16  C   UNL     1      -0.097  -0.010   0.495  0.00  0.00    -0.018 A 
ATOM     17  C   UNL     1      -0.118   1.408   0.512  0.00  0.00    -0.014 A 
ATOM     18  C   UNL     1       0.993   2.107   1.013  0.00  0.00    +0.009 A 
ATOM     19  C   UNL     1       2.071   1.417   1.476  0.00  0.00    +0.001 A 
ATOM     20  C   UNL     1       2.091   0.024   1.460  0.00  0.00    +0.001 A 
ATOM     21  C   UNL     1       1.034  -0.688   0.982  0.00  0.00    +0.008 A 
ENDBRANCH   8  12
BRANCH  10  22
ATOM     22  N   UNL     1      -4.025   3.760  -2.517  0.00  0.00    -0.358 N 
ATOM     23  H   UNL     1      -5.097   3.526  -2.586  0.00  0.00    +0.142 HD
ATOM     24  H   UNL     1      -3.452   3.989  -3.428  0.00  0.00    +0.142 HD
ENDBRANCH  10  22
BRANCH  11  25
ATOM     25  C   UNL     1      -5.544   3.203  -0.320  0.00  0.00    +0.101 C 
ATOM     26  N   UNL     1      -6.654   2.983  -0.416  0.00  0.00    -0.191 NA
ENDBRANCH  11  25
BRANCH   9  27
ATOM     27  C   UNL     1      -1.768   5.553  -1.339  0.00  0.00    +0.091 C 
ATOM     28  N   UNL     1      -1.637   6.679  -1.406  0.00  0.00    -0.194 NA
ENDBRANCH   9  27
BRANCH   9  29
ATOM     29  C   UNL     1      -1.267   3.464  -2.401  0.00  0.00    +0.091 C 
ATOM     30  N   UNL     1      -0.748   2.979  -3.287  0.00  0.00    -0.194 NA
ENDBRANCH   9  29
TORSDOF 5
