REMARK  Name = ZINC39653957
REMARK  11 active torsions:
REMARK  status: ('A' for Active; 'I' for Inactive)
REMARK    1  A    between atoms: C_1  and  C_2
REMARK    2  A    between atoms: C_2  and  O_3
REMARK    3  A    between atoms: O_3  and  C_4
REMARK    4  A    between atoms: C_7  and  C_10
REMARK    5  A    between atoms: C_10  and  C_11
REMARK    6  A    between atoms: C_11  and  N_12
REMARK    7  A    between atoms: C_13  and  C_15
REMARK    8  A    between atoms: C_26  and  C_28
REMARK    9  A    between atoms: C_31  and  O_38
REMARK   10  A    between atoms: C_32  and  C_34
REMARK   11  A    between atoms: O_38  and  C_39
REMARK                            x       y       z     vdW  Elec       q    Type
REMARK                         _______ _______ _______ _____ _____    ______ ____
ROOT
ATOM      1  C   UNL     1      -0.552 -10.798  -3.602  0.00  0.00    +0.100 C 
ATOM      2  C   UNL     1      -0.585 -11.193  -2.108  0.00  0.00    +0.121 C 
ATOM      3  N   UNL     1      -2.005 -11.524  -1.840  0.00  0.00    -0.296 N 
ATOM      4  C   UNL     1      -2.452 -12.243  -3.056  0.00  0.00    +0.115 C 
ATOM      5  C   UNL     1      -1.777 -11.492  -4.221  0.00  0.00    -0.004 C 
ATOM      6  C   UNL     1      -1.337 -12.476  -5.300  0.00  0.00    -0.010 C 
ATOM      7  C   UNL     1      -2.574 -13.111  -5.942  0.00  0.00    -0.082 C 
ATOM      8  N   UNL     1      -3.418 -12.061  -6.524  0.00  0.00    +0.379 N 
ATOM      9  C   UNL     1      -3.913 -11.172  -5.466  0.00  0.00    -0.082 C 
ATOM     10  C   UNL     1      -2.733 -10.456  -4.804  0.00  0.00    -0.010 C 
ATOM     11  C   UNL     1      -2.725 -11.236  -0.738  0.00  0.00    +0.247 C 
ATOM     12  O   UNL     1      -2.253 -10.527   0.129  0.00  0.00    -0.270 OA
ATOM     13  H   UNL     1      -2.878 -11.525  -7.186  0.00  0.00    -0.086 HD
ATOM     14  H   UNL     1      -4.201 -12.485  -6.998  0.00  0.00    -0.086 HD
ENDROOT
BRANCH  11  15
ATOM     15  C   UNL     1      -4.088 -11.781  -0.585  0.00  0.00    +0.038 A 
ATOM     16  C   UNL     1      -4.477 -12.910  -1.311  0.00  0.00    +0.016 A 
ATOM     17  C   UNL     1      -5.749 -13.416  -1.165  0.00  0.00    +0.047 A 
ATOM     18  C   UNL     1      -6.646 -12.806  -0.296  0.00  0.00    +0.132 A 
ATOM     19  C   UNL     1      -6.264 -11.684   0.428  0.00  0.00    +0.097 A 
ATOM     20  C   UNL     1      -4.991 -11.174   0.292  0.00  0.00    +0.029 A 
BRANCH  19  21
ATOM     21  C   UNL     1      -7.240 -11.026   1.369  0.00  0.00    +0.421 C 
ATOM     22  F   UNL     1      -6.631  -9.924   1.979  0.00  0.00    -0.166 F 
ATOM     23  F   UNL     1      -8.363 -10.599   0.652  0.00  0.00    -0.166 F 
ATOM     24  F   UNL     1      -7.634 -11.943   2.349  0.00  0.00    -0.166 F 
ENDBRANCH  19  21
BRANCH  18  25
ATOM     25  O   UNL     1      -7.899 -13.308  -0.155  0.00  0.00    -0.495 OA
ATOM     26  C   UNL     1      -8.227 -14.463  -0.930  0.00  0.00    +0.277 C 
ENDBRANCH  18  25
ENDBRANCH  11  15
BRANCH   1  28
ATOM     27  N   UNL     1      -0.194  -8.699  -4.860  0.00  0.00    -0.315 N 
ATOM     28  C   UNL     1      -0.665  -9.303  -3.751  0.00  0.00    +0.218 C 
ATOM     29  O   UNL     1      -1.180  -8.643  -2.874  0.00  0.00    -0.275 OA
ATOM     30  H   UNL     1       0.218  -9.227  -5.562  0.00  0.00    +0.149 HD
BRANCH  27  31
ATOM     31  C   UNL     1      -0.304  -7.245  -5.006  0.00  0.00    +0.109 C 
BRANCH  31  32
ATOM     32  C   UNL     1       0.302  -6.819  -6.344  0.00  0.00    +0.054 C 
BRANCH  32  36
ATOM     33  C   UNL     1      -0.018  -2.579  -6.769  0.00  0.00    +0.121 A 
ATOM     34  C   UNL     1       1.105  -3.135  -6.173  0.00  0.00    +0.046 A 
ATOM     35  C   UNL     1       1.206  -4.506  -6.036  0.00  0.00    +0.007 A 
ATOM     36  C   UNL     1       0.190  -5.324  -6.494  0.00  0.00    -0.046 A 
ATOM     37  C   UNL     1      -0.930  -4.772  -7.089  0.00  0.00    +0.007 A 
ATOM     38  C   UNL     1      -1.038  -3.402  -7.222  0.00  0.00    +0.046 A 
BRANCH  33  39
ATOM     39  O   UNL     1      -0.119  -1.231  -6.904  0.00  0.00    -0.492 OA
BRANCH  39  41
ATOM     40  C   UNL     1       0.677   1.037  -6.652  0.00  0.00    +0.048 C 
ATOM     41  C   UNL     1       0.970  -0.446  -6.414  0.00  0.00    +0.225 C 
ENDBRANCH  39  41
ENDBRANCH  33  39
ENDBRANCH  32  36
ENDBRANCH  31  32
ENDBRANCH  27  31
ENDBRANCH   1  28
TORSDOF 9
