REMARK  Name = ZINC13033173
REMARK  12 active torsions:
REMARK  status: ('A' for Active; 'I' for Inactive)
REMARK    1  A    between atoms: C_1  and  C_2
REMARK    2  A    between atoms: C_2  and  C_3
REMARK    3  A    between atoms: C_10  and  C_15
REMARK    4  A    between atoms: C_15  and  N_69
REMARK    5  A    between atoms: C_16  and  C_17
REMARK    6  A    between atoms: C_16  and  N_69
REMARK    7  A    between atoms: C_17  and  C_18
REMARK    8  A    between atoms: C_24  and  C_25
REMARK    9  A    between atoms: C_24  and  N_69
REMARK   10  A    between atoms: N_29  and  C_30
REMARK   11  A    between atoms: C_30  and  C_31
REMARK   12  A    between atoms: C_31  and  C_32
REMARK                            x       y       z     vdW  Elec       q    Type
REMARK                         _______ _______ _______ _____ _____    ______ ____
ROOT
ATOM      1  N   UNL     1       3.087   1.597  -1.536  0.00  0.00    +0.387 N 
ATOM      2  H   UNL     1       2.638   0.950  -2.195  0.00  0.00    -0.081 HD
ENDROOT
BRANCH   1   3
ATOM      3  C   UNL     1       4.553   1.419  -1.613  0.00  0.00    -0.037 C 
BRANCH   3  11
ATOM      4  C   UNL     1       6.649   3.398  -7.088  0.00  0.00    -0.047 A 
ATOM      5  C   UNL     1       6.528   2.183  -7.749  0.00  0.00    +0.005 A 
ATOM      6  C   UNL     1       6.050   1.069  -7.093  0.00  0.00    +0.026 A 
ATOM      7  C   UNL     1       5.685   1.161  -5.754  0.00  0.00    +0.049 A 
ATOM      8  C   UNL     1       5.810   2.394  -5.087  0.00  0.00    -0.001 A 
ATOM      9  C   UNL     1       6.297   3.511  -5.773  0.00  0.00    +0.013 A 
ATOM     10  C   UNL     1       5.424   2.481  -3.677  0.00  0.00    +0.017 A 
ATOM     11  C   UNL     1       4.959   1.365  -3.063  0.00  0.00    +0.001 A 
ATOM     12  C   UNL     1       4.859   0.151  -3.776  0.00  0.00    +0.251 A 
ATOM     13  O   UNL     1       4.442  -0.842  -3.204  0.00  0.00    -0.268 OA
ATOM     14  N   UNL     1       5.205   0.063  -5.072  0.00  0.00    -0.322 N 
ATOM     15  H   UNL     1       5.120  -0.786  -5.533  0.00  0.00    +0.169 HD
BRANCH   4  17
ATOM     16  C   UNL     1       8.696   4.662  -7.688  0.00  0.00    +0.009 C 
ATOM     17  C   UNL     1       7.173   4.601  -7.827  0.00  0.00    +0.032 C 
ENDBRANCH   4  17
ENDBRANCH   3  11
ENDBRANCH   1   3
BRANCH   1  18
ATOM     18  C   UNL     1       2.727   2.983  -1.904  0.00  0.00    -0.073 C 
BRANCH  18  19
ATOM     19  C   UNL     1       3.269   3.970  -0.869  0.00  0.00    +0.016 C 
BRANCH  19  20
ATOM     20  C   UNL     1       2.999   5.380  -1.329  0.00  0.00    -0.049 A 
ATOM     21  C   UNL     1       3.933   6.044  -2.103  0.00  0.00    +0.003 A 
ATOM     22  C   UNL     1       3.683   7.335  -2.530  0.00  0.00    +0.000 A 
ATOM     23  C   UNL     1       2.505   7.965  -2.175  0.00  0.00    +0.000 A 
ATOM     24  C   UNL     1       1.575   7.303  -1.396  0.00  0.00    +0.000 A 
ATOM     25  C   UNL     1       1.821   6.010  -0.974  0.00  0.00    +0.003 A 
ENDBRANCH  19  20
ENDBRANCH  18  19
ENDBRANCH   1  18
BRANCH   1  26
ATOM     26  C   UNL     1       2.613   1.298  -0.169  0.00  0.00    +0.001 C 
BRANCH  26  27
ATOM     27  C   UNL     1       1.106   1.271  -0.173  0.00  0.00    +0.135 A 
ATOM     28  N   UNL     1       0.305   2.282   0.059  0.00  0.00    -0.115 NA
ATOM     29  N   UNL     1      -0.908   1.859  -0.036  0.00  0.00    -0.023 NA
ATOM     30  N   UNL     1      -0.902   0.605  -0.328  0.00  0.00    -0.044 NA
ATOM     31  N   UNL     1       0.322   0.205  -0.415  0.00  0.00    -0.231 N 
BRANCH  31  32
ATOM     32  C   UNL     1       0.772  -1.154  -0.727  0.00  0.00    +0.152 C 
BRANCH  32  33
ATOM     33  C   UNL     1       0.931  -1.949   0.571  0.00  0.00    +0.058 C 
BRANCH  33  34
ATOM     34  C   UNL     1       1.394  -3.346   0.251  0.00  0.00    -0.046 A 
ATOM     35  C   UNL     1       0.468  -4.348   0.029  0.00  0.00    +0.004 A 
ATOM     36  C   UNL     1       0.893  -5.629  -0.269  0.00  0.00    +0.000 A 
ATOM     37  C   UNL     1       2.245  -5.911  -0.336  0.00  0.00    +0.000 A 
ATOM     38  C   UNL     1       3.171  -4.910  -0.108  0.00  0.00    +0.000 A 
ATOM     39  C   UNL     1       2.746  -3.628   0.185  0.00  0.00    +0.004 A 
ENDBRANCH  33  34
ENDBRANCH  32  33
ENDBRANCH  31  32
ENDBRANCH  26  27
ENDBRANCH   1  26
TORSDOF 11
