REMARK  Name = ZINC44924228
REMARK  5 active torsions:
REMARK  status: ('A' for Active; 'I' for Inactive)
REMARK    1  A    between atoms: C_4  and  C_7
REMARK    2  A    between atoms: C_7  and  C_8
REMARK    3  A    between atoms: C_8  and  C_10
REMARK    4  A    between atoms: C_8  and  C_16
REMARK    5  A    between atoms: N_21  and  C_24
REMARK                            x       y       z     vdW  Elec       q    Type
REMARK                         _______ _______ _______ _____ _____    ______ ____
ROOT
ATOM      1  C   UNL     1       5.409  -1.796   1.392  0.00  0.00    +0.223 C 
ATOM      2  O   UNL     1       5.894  -2.143   0.336  0.00  0.00    -0.275 OA
ATOM      3  N   UNL     1       5.998  -2.149   2.552  0.00  0.00    -0.298 N 
ATOM      4  C   UNL     1       5.419  -1.742   3.840  0.00  0.00    +0.126 C 
ATOM      5  C   UNL     1       5.190  -2.995   4.693  0.00  0.00    +0.124 C 
ATOM      6  N   UNL     1       6.423  -3.795   4.692  0.00  0.00    -0.327 N 
ATOM      7  C   UNL     1       7.002  -4.203   3.405  0.00  0.00    +0.124 C 
ATOM      8  C   UNL     1       7.228  -2.954   2.551  0.00  0.00    +0.126 C 
ENDROOT
BRANCH   6   9
ATOM      9  C   UNL     1       7.034  -4.162   5.896  0.00  0.00    +0.032 A 
ATOM     10  C   UNL     1       6.542  -3.673   7.101  0.00  0.00    +0.025 A 
ATOM     11  C   UNL     1       7.141  -4.032   8.292  0.00  0.00    +0.029 A 
ATOM     12  C   UNL     1       8.237  -4.881   8.288  0.00  0.00    +0.067 A 
ATOM     13  C   UNL     1       8.733  -5.374   7.080  0.00  0.00    +0.069 A 
ATOM     14  C   UNL     1       8.127  -5.016   5.885  0.00  0.00    +0.051 A 
ATOM     15  N   UNL     1       9.819  -6.188   7.392  0.00  0.00    -0.306 N 
ATOM     16  H   UNL     1      10.369  -6.671   6.755  0.00  0.00    +0.170 HD
ATOM     17  C   UNL     1       9.977  -6.192   8.729  0.00  0.00    +0.325 A 
ATOM     18  O   UNL     1      10.838  -6.806   9.331  0.00  0.00    -0.247 OA
ATOM     19  N   UNL     1       9.038  -5.413   9.299  0.00  0.00    -0.306 N 
ATOM     20  H   UNL     1       8.936  -5.250  10.250  0.00  0.00    +0.170 HD
ENDBRANCH   6   9
BRANCH   1  21
ATOM     21  C   UNL     1       4.149  -0.971   1.408  0.00  0.00    +0.109 C 
BRANCH  21  22
ATOM     22  C   UNL     1       4.418   0.344   2.095  0.00  0.00    -0.035 A 
ATOM     23  C   UNL     1       5.370   1.207   1.587  0.00  0.00    +0.004 A 
ATOM     24  C   UNL     1       5.617   2.412   2.216  0.00  0.00    +0.000 A 
ATOM     25  C   UNL     1       4.911   2.755   3.354  0.00  0.00    +0.000 A 
ATOM     26  C   UNL     1       3.958   1.892   3.862  0.00  0.00    +0.000 A 
ATOM     27  C   UNL     1       3.708   0.689   3.230  0.00  0.00    +0.004 A 
ENDBRANCH  21  22
BRANCH  21  28
ATOM     28  C   UNL     1       3.691  -0.711  -0.028  0.00  0.00    +0.052 C 
BRANCH  28  32
ATOM     29  C   UNL     1      -0.063   1.328   0.018  0.00  0.00    +0.000 A 
ATOM     30  C   UNL     1       1.116   2.050   0.019  0.00  0.00    +0.000 A 
ATOM     31  C   UNL     1       2.331   1.390   0.004  0.00  0.00    +0.003 A 
ATOM     32  C   UNL     1       2.367   0.008  -0.011  0.00  0.00    -0.046 A 
ATOM     33  C   UNL     1       1.188  -0.714  -0.012  0.00  0.00    +0.003 A 
ATOM     34  C   UNL     1      -0.027  -0.054   0.001  0.00  0.00    +0.000 A 
ENDBRANCH  28  32
ENDBRANCH  21  28
ENDBRANCH   1  21
TORSDOF 5
