REMARK  Name = ZINC39595940
REMARK  13 active torsions:
REMARK  status: ('A' for Active; 'I' for Inactive)
REMARK    1  A    between atoms: C_1  and  C_2
REMARK    2  A    between atoms: C_2  and  C_4
REMARK    3  A    between atoms: C_2  and  O_33
REMARK    4  A    between atoms: C_4  and  N_5
REMARK    5  A    between atoms: C_6  and  C_8
REMARK    6  A    between atoms: C_19  and  C_21
REMARK    7  A    between atoms: C_23  and  O_31
REMARK    8  A    between atoms: C_24  and  O_29
REMARK    9  A    between atoms: C_25  and  O_27
REMARK   10  A    between atoms: O_27  and  C_28
REMARK   11  A    between atoms: O_29  and  C_30
REMARK   12  A    between atoms: O_31  and  C_32
REMARK   13  A    between atoms: O_33  and  C_34
REMARK                            x       y       z     vdW  Elec       q    Type
REMARK                         _______ _______ _______ _____ _____    ______ ____
ROOT
ATOM      1  C   UNL     1       0.920  -3.893  -2.315  0.00  0.00    +0.100 C 
ATOM      2  C   UNL     1       1.535  -4.514  -1.041  0.00  0.00    +0.121 C 
ATOM      3  N   UNL     1       2.195  -5.755  -1.511  0.00  0.00    -0.296 N 
ATOM      4  C   UNL     1       2.799  -5.381  -2.812  0.00  0.00    +0.115 C 
ATOM      5  C   UNL     1       1.752  -4.464  -3.475  0.00  0.00    -0.004 C 
ATOM      6  C   UNL     1       0.863  -5.272  -4.416  0.00  0.00    -0.010 C 
ATOM      7  C   UNL     1       1.702  -5.782  -5.591  0.00  0.00    -0.082 C 
ATOM      8  N   UNL     1       2.295  -4.643  -6.302  0.00  0.00    +0.379 N 
ATOM      9  C   UNL     1       3.220  -3.925  -5.417  0.00  0.00    -0.082 C 
ATOM     10  C   UNL     1       2.445  -3.337  -4.234  0.00  0.00    -0.010 C 
ATOM     11  C   UNL     1       2.236  -6.952  -0.894  0.00  0.00    +0.247 C 
ATOM     12  O   UNL     1       1.596  -7.135   0.123  0.00  0.00    -0.270 OA
ATOM     13  H   UNL     1       2.797  -4.977  -7.111  0.00  0.00    -0.086 HD
ATOM     14  H   UNL     1       1.562  -4.016  -6.600  0.00  0.00    -0.086 HD
ENDROOT
BRANCH  11  15
ATOM     15  C   UNL     1       3.059  -8.043  -1.454  0.00  0.00    +0.044 A 
ATOM     16  C   UNL     1       4.159  -7.745  -2.262  0.00  0.00    +0.062 A 
ATOM     17  C   UNL     1       4.928  -8.768  -2.785  0.00  0.00    +0.166 A 
ATOM     18  C   UNL     1       4.608 -10.094  -2.506  0.00  0.00    +0.204 A 
ATOM     19  C   UNL     1       3.512 -10.393  -1.702  0.00  0.00    +0.166 A 
ATOM     20  C   UNL     1       2.743  -9.374  -1.171  0.00  0.00    +0.062 A 
BRANCH  19  21
ATOM     21  O   UNL     1       3.201 -11.689  -1.432  0.00  0.00    -0.491 OA
ATOM     22  C   UNL     1       2.064 -11.924  -0.599  0.00  0.00    +0.277 C 
ENDBRANCH  19  21
BRANCH  18  23
ATOM     23  O   UNL     1       5.365 -11.097  -3.022  0.00  0.00    -0.488 OA
ATOM     24  C   UNL     1       6.474 -11.541  -2.237  0.00  0.00    +0.277 C 
ENDBRANCH  18  23
BRANCH  17  25
ATOM     25  O   UNL     1       5.999  -8.478  -3.572  0.00  0.00    -0.491 OA
ATOM     26  C   UNL     1       6.270  -7.097  -3.816  0.00  0.00    +0.277 C 
ENDBRANCH  17  25
ENDBRANCH  11  15
BRANCH   1  28
ATOM     27  N   UNL     1       0.107  -1.627  -2.883  0.00  0.00    -0.312 N 
ATOM     28  C   UNL     1       1.036  -2.391  -2.276  0.00  0.00    +0.218 C 
ATOM     29  O   UNL     1       1.966  -1.870  -1.697  0.00  0.00    -0.275 OA
ATOM     30  H   UNL     1      -0.637  -2.043  -3.346  0.00  0.00    +0.149 HD
BRANCH  27  31
ATOM     31  C   UNL     1       0.220  -0.166  -2.845  0.00  0.00    +0.148 C 
BRANCH  31  33
ATOM     32  C   UNL     1      -0.769   1.974  -3.671  0.00  0.00    +0.053 C 
ATOM     33  C   UNL     1      -0.953   0.456  -3.604  0.00  0.00    +0.187 C 
BRANCH  33  34
ATOM     34  O   UNL     1      -2.174   0.154  -2.925  0.00  0.00    -0.488 OA
BRANCH  34  35
ATOM     35  C   UNL     1      -3.311   0.158  -3.670  0.00  0.00    +0.121 A 
ATOM     36  C   UNL     1      -4.543  -0.022  -3.058  0.00  0.00    +0.048 A 
ATOM     37  C   UNL     1      -5.697  -0.018  -3.815  0.00  0.00    +0.042 A 
ATOM     38  C   UNL     1      -5.626   0.166  -5.186  0.00  0.00    +0.124 A 
ATOM     39  C   UNL     1      -4.398   0.346  -5.798  0.00  0.00    +0.042 A 
ATOM     40  C   UNL     1      -3.242   0.349  -5.042  0.00  0.00    +0.048 A 
ATOM     41  F   UNL     1      -6.757   0.170  -5.926  0.00  0.00    -0.205 F 
ENDBRANCH  34  35
ENDBRANCH  33  34
ENDBRANCH  31  33
ENDBRANCH  27  31
ENDBRANCH   1  28
TORSDOF 9
