REMARK  Name = ZINC56200975
REMARK  9 active torsions:
REMARK  status: ('A' for Active; 'I' for Inactive)
REMARK    1  A    between atoms: C_1  and  C_2
REMARK    2  A    between atoms: C_2  and  C_3
REMARK    3  A    between atoms: C_7  and  N_12
REMARK    4  A    between atoms: N_12  and  C_13
REMARK    5  A    between atoms: C_13  and  C_15
REMARK    6  A    between atoms: C_13  and  C_16
REMARK    7  A    between atoms: N_21  and  C_22
REMARK    8  A    between atoms: C_22  and  C_23
REMARK    9  A    between atoms: C_23  and  C_24
REMARK                            x       y       z     vdW  Elec       q    Type
REMARK                         _______ _______ _______ _____ _____    ______ ____
ROOT
ATOM      1  C   UNL     1       4.534  -2.721  -6.613  0.00  0.00    +0.154 C 
ATOM      2  C   UNL     1       4.172  -4.205  -6.699  0.00  0.00    +0.038 C 
ENDROOT
BRANCH   1   3
ATOM      3  C   UNL     1       5.884  -2.496  -7.244  0.00  0.00    +0.240 C 
ATOM      4  O   UNL     1       6.792  -2.037  -6.584  0.00  0.00    -0.273 OA
ATOM      5  N   UNL     1       6.082  -2.806  -8.540  0.00  0.00    -0.239 N 
ATOM      6  C   UNL     1       7.289  -2.604  -9.104  0.00  0.00    +0.306 C 
ATOM      7  O   UNL     1       8.199  -2.144  -8.443  0.00  0.00    -0.252 OA
ATOM      8  N   UNL     1       7.487  -2.914 -10.401  0.00  0.00    -0.299 N 
ATOM      9  H   UNL     1       5.355  -3.173  -9.068  0.00  0.00    +0.159 HD
ATOM     10  H   UNL     1       6.761  -3.281 -10.928  0.00  0.00    +0.150 HD
BRANCH   8  11
ATOM     11  C   UNL     1       8.800  -2.695 -11.014  0.00  0.00    +0.111 C 
BRANCH  11  12
ATOM     12  C   UNL     1       8.755  -3.126 -12.482  0.00  0.00    +0.061 C 
BRANCH  12  13
ATOM     13  C   UNL     1      10.105  -2.901 -13.112  0.00  0.00    -0.009 A 
ATOM     14  C   UNL     1      11.160  -3.749 -13.197  0.00  0.00    +0.011 A 
ATOM     15  C   UNL     1      12.313  -3.323 -13.830  0.00  0.00    +0.008 A 
ATOM     16  C   UNL     1      12.355  -2.070 -14.346  0.00  0.00    +0.045 A 
ATOM     17  S   UNL     1      10.729  -1.451 -13.947  0.00  0.00    -0.102 S 
ENDBRANCH  12  13
ENDBRANCH  11  12
ENDBRANCH   8  11
ENDBRANCH   1   3
BRANCH   1  18
ATOM     18  N   UNL     1       4.576  -2.309  -5.208  0.00  0.00    -0.333 N 
ATOM     19  H   UNL     1       5.420  -2.304  -4.729  0.00  0.00    +0.147 HD
BRANCH  18  24
ATOM     20  C   UNL     1       0.707  -0.490  -1.238  0.00  0.00    +0.196 A 
ATOM     21  N   UNL     1       1.982  -0.725  -1.323  0.00  0.00    -0.213 NA
ATOM     22  C   UNL     1       2.267  -1.148  -2.584  0.00  0.00    +0.111 A 
ATOM     23  C   UNL     1       3.443  -1.533  -3.230  0.00  0.00    +0.054 A 
ATOM     24  C   UNL     1       3.400  -1.922  -4.557  0.00  0.00    +0.030 A 
ATOM     25  C   UNL     1       2.190  -1.929  -5.247  0.00  0.00    +0.026 A 
ATOM     26  C   UNL     1       1.025  -1.550  -4.616  0.00  0.00    +0.050 A 
ATOM     27  C   UNL     1       1.053  -1.158  -3.286  0.00  0.00    +0.155 A 
ATOM     28  O   UNL     1       0.107  -0.748  -2.410  0.00  0.00    -0.440 OA
BRANCH  20  30
ATOM     29  C   UNL     1      -0.019   1.526   0.010  0.00  0.00    +0.013 C 
ATOM     30  C   UNL     1       0.002  -0.004   0.002  0.00  0.00    +0.093 C 
ENDBRANCH  20  30
ENDBRANCH  18  24
ENDBRANCH   1  18
TORSDOF 7
