REMARK  Name = ZINC15128630
REMARK  14 active torsions:
REMARK  status: ('A' for Active; 'I' for Inactive)
REMARK    1  A    between atoms: C_1  and  C_2
REMARK    2  A    between atoms: C_2  and  C_3
REMARK    3  A    between atoms: C_2  and  C_4
REMARK    4  A    between atoms: C_2  and  N_5
REMARK    5  A    between atoms: N_5  and  S_6
REMARK    6  A    between atoms: S_6  and  C_9
REMARK    7  A    between atoms: C_12  and  N_18
REMARK    8  A    between atoms: C_13  and  N_15
REMARK    9  A    between atoms: N_18  and  C_19
REMARK   10  A    between atoms: C_19  and  C_20
REMARK   11  A    between atoms: C_20  and  C_22
REMARK   12  A    between atoms: C_20  and  N_65
REMARK   13  A    between atoms: C_27  and  O_28
REMARK   14  A    between atoms: O_28  and  C_29
REMARK                            x       y       z     vdW  Elec       q    Type
REMARK                         _______ _______ _______ _____ _____    ______ ____
ROOT
ATOM      1  C   UNL     1      -0.873   1.899  -1.402  0.00  0.00    +0.108 A 
ATOM      2  C   UNL     1       0.171   2.796  -1.537  0.00  0.00    +0.030 A 
ATOM      3  C   UNL     1       0.042   3.887  -2.373  0.00  0.00    +0.027 A 
ATOM      4  C   UNL     1      -1.142   4.090  -3.070  0.00  0.00    +0.058 A 
ATOM      5  C   UNL     1      -2.191   3.191  -2.927  0.00  0.00    +0.149 A 
ATOM      6  C   UNL     1      -2.053   2.098  -2.094  0.00  0.00    +0.063 A 
ENDROOT
BRANCH   1   7
ATOM      7  S   UNL     1      -0.701   0.503  -0.340  0.00  0.00    +0.059 S 
ATOM      8  O   UNL     1      -2.003  -0.042  -0.172  0.00  0.00    -0.153 OA
ATOM      9  O   UNL     1       0.095   0.925   0.759  0.00  0.00    -0.153 OA
BRANCH   7  10
ATOM     10  N   UNL     1       0.185  -0.630  -1.160  0.00  0.00    -0.185 NA
ATOM     11  H   UNL     1       1.071  -0.871  -0.849  0.00  0.00    +0.149 HD
BRANCH  10  13
ATOM     12  C   UNL     1      -0.831  -0.202  -3.343  0.00  0.00    +0.029 C 
ATOM     13  C   UNL     1      -0.373  -1.273  -2.352  0.00  0.00    +0.032 C 
ATOM     14  C   UNL     1       0.698  -2.149  -3.007  0.00  0.00    +0.029 C 
ATOM     15  C   UNL     1      -1.567  -2.142  -1.952  0.00  0.00    +0.029 C 
ENDBRANCH  10  13
ENDBRANCH   7  10
ENDBRANCH   1   7
BRANCH   5  16
ATOM     16  N   UNL     1      -3.455   3.404  -3.667  0.00  0.00    +0.058 N 
ATOM     17  O   UNL     1      -4.418   2.692  -3.444  0.00  0.00    -0.126 OA
ATOM     18  O   UNL     1      -3.532   4.290  -4.498  0.00  0.00    -0.126 OA
ENDBRANCH   5  16
BRANCH   4  19
ATOM     19  N   UNL     1      -1.278   5.196  -3.912  0.00  0.00    -0.343 N 
ATOM     20  H   UNL     1      -2.135   5.391  -4.322  0.00  0.00    +0.146 HD
BRANCH  19  21
ATOM     21  C   UNL     1      -0.126   6.062  -4.176  0.00  0.00    +0.091 C 
BRANCH  21  22
ATOM     22  C   UNL     1      -0.565   7.245  -5.042  0.00  0.00    -0.017 C 
BRANCH  22  23
ATOM     23  C   UNL     1       0.628   8.113  -5.348  0.00  0.00    -0.018 A 
ATOM     24  C   UNL     1       1.364   7.898  -6.497  0.00  0.00    +0.005 A 
ATOM     25  C   UNL     1       2.456   8.697  -6.780  0.00  0.00    +0.000 A 
ATOM     26  C   UNL     1       2.821   9.707  -5.910  0.00  0.00    +0.004 A 
ATOM     27  C   UNL     1       2.092   9.923  -4.756  0.00  0.00    +0.046 A 
ATOM     28  C   UNL     1       0.993   9.126  -4.472  0.00  0.00    +0.122 A 
BRANCH  28  29
ATOM     29  O   UNL     1       0.274   9.336  -3.338  0.00  0.00    -0.495 OA
ATOM     30  C   UNL     1       0.707  10.396  -2.483  0.00  0.00    +0.277 C 
ENDBRANCH  28  29
ENDBRANCH  22  23
BRANCH  22  35
ATOM     31  C   UNL     1      -1.179   7.815  -7.327  0.00  0.00    -0.078 C 
ATOM     32  C   UNL     1      -1.294   7.024  -8.655  0.00  0.00    -0.020 C 
ATOM     33  C   UNL     1      -0.396   5.791  -8.401  0.00  0.00    -0.020 C 
ATOM     34  C   UNL     1      -0.312   5.663  -6.869  0.00  0.00    -0.078 C 
ATOM     35  N   UNL     1      -1.141   6.739  -6.324  0.00  0.00    +0.385 N 
ATOM     36  H   UNL     1      -2.091   6.391  -6.152  0.00  0.00    -0.081 HD
ENDBRANCH  22  35
ENDBRANCH  21  22
ENDBRANCH  19  21
ENDBRANCH   4  19
TORSDOF 10
