REMARK  Name = ZINC23074474
REMARK  8 active torsions:
REMARK  status: ('A' for Active; 'I' for Inactive)
REMARK    1  A    between atoms: C_4  and  C_7
REMARK    2  A    between atoms: C_7  and  N_8
REMARK    3  A    between atoms: N_8  and  C_9
REMARK    4  A    between atoms: N_8  and  S_15
REMARK    5  A    between atoms: S_15  and  C_18
REMARK    6  A    between atoms: C_22  and  C_24
REMARK    7  A    between atoms: N_26  and  C_27
REMARK    8  A    between atoms: C_27  and  C_28
REMARK                            x       y       z     vdW  Elec       q    Type
REMARK                         _______ _______ _______ _____ _____    ______ ____
ROOT
ATOM      1  S   UNL     1       5.112   0.347   2.023  0.00  0.00    +0.075 S 
ATOM      2  O   UNL     1       5.684  -0.236   3.186  0.00  0.00    -0.150 OA
ATOM      3  O   UNL     1       5.902   0.926   0.994  0.00  0.00    -0.150 OA
ENDROOT
BRANCH   1   4
ATOM      4  C   UNL     1       4.011   1.605   2.580  0.00  0.00    +0.109 A 
ATOM      5  C   UNL     1       3.583   2.586   1.703  0.00  0.00    +0.029 A 
ATOM      6  C   UNL     1       2.719   3.577   2.132  0.00  0.00    +0.003 A 
ATOM      7  C   UNL     1       2.277   3.593   3.439  0.00  0.00    +0.013 A 
ATOM      8  C   UNL     1       2.705   2.607   4.329  0.00  0.00    +0.039 A 
ATOM      9  C   UNL     1       3.573   1.606   3.888  0.00  0.00    +0.041 A 
BRANCH   8  10
ATOM     10  C   UNL     1       2.236   2.618   5.731  0.00  0.00    +0.244 C 
ATOM     11  O   UNL     1       2.610   1.758   6.504  0.00  0.00    -0.270 OA
ATOM     12  N   UNL     1       1.394   3.583   6.152  0.00  0.00    -0.309 N 
ATOM     13  H   UNL     1       1.096   4.269   5.535  0.00  0.00    +0.149 HD
BRANCH  12  14
ATOM     14  C   UNL     1       0.930   3.594   7.542  0.00  0.00    +0.136 C 
BRANCH  14  15
ATOM     15  C   UNL     1      -0.008   4.784   7.756  0.00  0.00    +0.135 C 
ATOM     16  C   UNL     1      -0.484   4.834   9.230  0.00  0.00    +0.035 C 
ATOM     17  C   UNL     1      -0.825   6.342   9.378  0.00  0.00    +0.031 C 
ATOM     18  C   UNL     1       0.234   7.008   8.473  0.00  0.00    +0.160 C 
ATOM     19  O   UNL     1       0.696   6.018   7.544  0.00  0.00    -0.375 OA
ENDBRANCH  14  15
ENDBRANCH  12  14
ENDBRANCH   8  10
ENDBRANCH   1   4
BRANCH   1  20
ATOM     20  N   UNL     1       4.191  -0.829   1.308  0.00  0.00    -0.199 N 
BRANCH  20  21
ATOM     21  C   UNL     1       3.686  -1.882   2.074  0.00  0.00    +0.052 A 
ATOM     22  C   UNL     1       3.448  -1.705   3.431  0.00  0.00    +0.025 A 
ATOM     23  C   UNL     1       2.948  -2.748   4.184  0.00  0.00    +0.002 A 
ATOM     24  C   UNL     1       2.684  -3.969   3.590  0.00  0.00    +0.000 A 
ATOM     25  C   UNL     1       2.920  -4.149   2.239  0.00  0.00    +0.002 A 
ATOM     26  C   UNL     1       3.415  -3.108   1.478  0.00  0.00    +0.025 A 
ENDBRANCH  20  21
BRANCH  20  27
ATOM     27  C   UNL     1       3.905  -0.764  -0.128  0.00  0.00    +0.166 C 
BRANCH  27  31
ATOM     28  C   UNL     1      -0.105   0.581  -0.725  0.00  0.00    +0.000 A 
ATOM     29  C   UNL     1       0.941   1.483  -0.776  0.00  0.00    +0.000 A 
ATOM     30  C   UNL     1       2.239   1.048  -0.583  0.00  0.00    +0.005 A 
ATOM     31  C   UNL     1       2.490  -0.289  -0.337  0.00  0.00    -0.028 A 
ATOM     32  C   UNL     1       1.444  -1.191  -0.285  0.00  0.00    +0.005 A 
ATOM     33  C   UNL     1       0.146  -0.756  -0.480  0.00  0.00    +0.000 A 
ENDBRANCH  27  31
ENDBRANCH  20  27
ENDBRANCH   1  20
TORSDOF 8
