REMARK  Name = ZINC08753921
REMARK  9 active torsions:
REMARK  status: ('A' for Active; 'I' for Inactive)
REMARK    1  A    between atoms: C_1  and  O_2
REMARK    2  A    between atoms: O_2  and  C_3
REMARK    3  A    between atoms: C_6  and  C_11
REMARK    4  A    between atoms: C_8  and  O_9
REMARK    5  A    between atoms: O_9  and  C_10
REMARK    6  A    between atoms: C_14  and  C_16
REMARK    7  A    between atoms: C_14  and  O_20
REMARK    8  A    between atoms: C_23  and  C_26
REMARK    9  A    between atoms: C_30  and  O_32
REMARK                            x       y       z     vdW  Elec       q    Type
REMARK                         _______ _______ _______ _____ _____    ______ ____
ROOT
ATOM      1  C   UNL     1       4.321   8.823   0.008  0.00  0.00    +0.072 C 
ATOM      2  N   UNL     1       3.499   7.830   0.016  0.00  0.00    -0.179 NA
ATOM      3  N   UNL     1       2.156   8.202   0.025  0.00  0.00    -0.160 N 
ATOM      4  C   UNL     1       2.070   9.671   0.033  0.00  0.00    +0.256 C 
ATOM      5  C   UNL     1       3.545  10.121   0.022  0.00  0.00    +0.124 C 
ATOM      6  C   UNL     1       1.079   7.332   0.030  0.00  0.00    +0.184 A 
ATOM      7  N   UNL     1       1.072   6.011   0.029  0.00  0.00    -0.223 NA
ATOM      8  C   UNL     1      -0.065   5.331   0.030  0.00  0.00    +0.080 A 
ATOM      9  C   UNL     1      -1.252   6.008   0.045  0.00  0.00    +0.077 A 
ATOM     10  S   UNL     1      -0.670   7.699   0.049  0.00  0.00    -0.058 S 
ENDROOT
BRANCH   1  14
ATOM     11  C   UNL     1       8.557   8.506  -0.034  0.00  0.00    +0.162 A 
ATOM     12  C   UNL     1       7.956   9.756  -0.021  0.00  0.00    +0.050 A 
ATOM     13  C   UNL     1       6.581   9.863  -0.013  0.00  0.00    +0.013 A 
ATOM     14  C   UNL     1       5.791   8.711  -0.006  0.00  0.00    +0.002 A 
ATOM     15  C   UNL     1       6.397   7.452  -0.019  0.00  0.00    +0.059 A 
ATOM     16  C   UNL     1       7.776   7.353  -0.032  0.00  0.00    +0.162 A 
BRANCH  11  18
ATOM     17  C   UNL     1      10.654   9.628  -0.048  0.00  0.00    +0.277 C 
ATOM     18  O   UNL     1       9.913   8.406  -0.047  0.00  0.00    -0.491 OA
ENDBRANCH  11  18
BRANCH  16  19
ATOM     19  O   UNL     1       8.369   6.129  -0.044  0.00  0.00    -0.491 OA
ATOM     20  C   UNL     1       7.507   4.990  -0.042  0.00  0.00    +0.277 C 
ENDBRANCH  16  19
ENDBRANCH   1  14
BRANCH   8  21
ATOM     21  C   UNL     1      -0.049   3.848   0.022  0.00  0.00    +0.004 A 
ATOM     22  C   UNL     1       1.165   3.161   0.007  0.00  0.00    +0.010 A 
ATOM     23  C   UNL     1       1.177   1.781   0.000  0.00  0.00    +0.004 A 
ATOM     24  C   UNL     1      -0.013   1.076   0.008  0.00  0.00    +0.045 A 
ATOM     25  C   UNL     1      -1.225   1.751   0.017  0.00  0.00    +0.117 A 
ATOM     26  C   UNL     1      -1.247   3.136   0.030  0.00  0.00    +0.055 A 
BRANCH  25  27
ATOM     27  O   UNL     1      -2.391   1.054   0.019  0.00  0.00    -0.507 OA
ATOM     28  H   UNL     1      -2.725   0.847   0.904  0.00  0.00    +0.292 HD
ENDBRANCH  25  27
ENDBRANCH   8  21
BRANCH   4  29
ATOM     29  C   UNL     1       1.367  10.162   1.301  0.00  0.00    +0.438 C 
ATOM     30  F   UNL     1       2.070   9.716   2.426  0.00  0.00    -0.166 F 
ATOM     31  F   UNL     1       1.328  11.560   1.301  0.00  0.00    -0.166 F 
ATOM     32  F   UNL     1       0.063   9.659   1.335  0.00  0.00    -0.166 F 
ENDBRANCH   4  29
BRANCH   4  33
ATOM     33  O   UNL     1       1.392  10.142  -1.133  0.00  0.00    -0.363 OA
ATOM     34  H   UNL     1       0.479   9.832  -1.210  0.00  0.00    +0.212 HD
ENDBRANCH   4  33
TORSDOF 7
