REMARK  Name = ZINC01917931
REMARK  6 active torsions:
REMARK  status: ('A' for Active; 'I' for Inactive)
REMARK    1  A    between atoms: C_9  and  O_27
REMARK    2  A    between atoms: C_10  and  C_11
REMARK    3  A    between atoms: N_12  and  N_13
REMARK    4  A    between atoms: C_17  and  S_18
REMARK    5  A    between atoms: S_18  and  C_19
REMARK    6  A    between atoms: C_19  and  C_20
REMARK                            x       y       z     vdW  Elec       q    Type
REMARK                         _______ _______ _______ _____ _____    ______ ____
ROOT
ATOM      1  C   UNL     1       4.982   0.092  -0.045  0.00  0.00    +0.145 C 
ATOM      2  N   UNL     1       6.109  -0.556  -0.059  0.00  0.00    -0.171 NA
ENDROOT
BRANCH   1  12
ATOM      3  C   UNL     1      -0.016   1.357   0.009  0.00  0.00    +0.001 A 
ATOM      4  C   UNL     1       1.167   2.091   0.002  0.00  0.00    +0.001 A 
ATOM      5  C   UNL     1       2.378   1.465  -0.013  0.00  0.00    +0.009 A 
ATOM      6  C   UNL     1       2.435   0.067  -0.021  0.00  0.00    -0.006 A 
ATOM      7  C   UNL     1       1.233  -0.683  -0.013  0.00  0.00    -0.017 A 
ATOM      8  C   UNL     1       0.002  -0.004   0.002  0.00  0.00    +0.008 A 
ATOM      9  C   UNL     1       1.291  -2.087  -0.021  0.00  0.00    +0.012 A 
ATOM     10  C   UNL     1       2.487  -2.734  -0.036  0.00  0.00    +0.046 A 
ATOM     11  C   UNL     1       3.696  -2.041  -0.043  0.00  0.00    +0.126 A 
ATOM     12  C   UNL     1       3.711  -0.645  -0.036  0.00  0.00    +0.044 A 
BRANCH  11  13
ATOM     13  O   UNL     1       4.867  -2.727  -0.057  0.00  0.00    -0.506 OA
ATOM     14  H   UNL     1       5.198  -2.922  -0.945  0.00  0.00    +0.292 HD
ENDBRANCH  11  13
ENDBRANCH   1  12
BRANCH   2  15
ATOM     15  N   UNL     1       7.321   0.147  -0.067  0.00  0.00    -0.194 N 
ATOM     16  C   UNL     1       7.489   1.506  -0.056  0.00  0.00    +0.249 A 
ATOM     17  N   UNL     1       8.772   1.738  -0.069  0.00  0.00    -0.135 NA
ATOM     18  N   UNL     1       9.422   0.630  -0.087  0.00  0.00    -0.121 NA
ATOM     19  C   UNL     1       8.583  -0.381  -0.082  0.00  0.00    +0.212 A 
BRANCH  19  20
ATOM     20  S   UNL     1       9.003  -2.092  -0.094  0.00  0.00    -0.080 S 
BRANCH  20  21
ATOM     21  C   UNL     1      10.817  -2.098  -0.111  0.00  0.00    +0.112 C 
BRANCH  21  22
ATOM     22  C   UNL     1      11.315  -3.521  -0.122  0.00  0.00    -0.037 A 
ATOM     23  C   UNL     1      11.549  -4.180   1.069  0.00  0.00    +0.006 A 
ATOM     24  C   UNL     1      12.005  -5.485   1.060  0.00  0.00    +0.020 A 
ATOM     25  C   UNL     1      12.227  -6.131  -0.144  0.00  0.00    +0.041 A 
ATOM     26  C   UNL     1      11.993  -5.470  -1.336  0.00  0.00    +0.020 A 
ATOM     27  C   UNL     1      11.531  -4.167  -1.325  0.00  0.00    +0.006 A 
ATOM     28 CL   UNL     1      12.800  -7.769  -0.157  0.00  0.00    -0.084 Cl
ENDBRANCH  21  22
ENDBRANCH  20  21
ENDBRANCH  19  20
ENDBRANCH   2  15
TORSDOF 6
