REMARK  Name = ZINC39439802
REMARK  6 active torsions:
REMARK  status: ('A' for Active; 'I' for Inactive)
REMARK    1  A    between atoms: C_1  and  C_2
REMARK    2  A    between atoms: C_2  and  C_25
REMARK    3  A    between atoms: N_3  and  N_4
REMARK    4  A    between atoms: C_7  and  S_11
REMARK    5  A    between atoms: S_11  and  C_12
REMARK    6  A    between atoms: C_12  and  C_13
REMARK                            x       y       z     vdW  Elec       q    Type
REMARK                         _______ _______ _______ _____ _____    ______ ____
ROOT
ATOM      1  N   UNL     1       0.024   0.033   2.342  0.00  0.00    -0.204 N 
ATOM      2  C   UNL     1       0.044  -0.661   3.531  0.00  0.00    +0.252 C 
ATOM      3  N   UNL     1       0.068  -1.962   3.625  0.00  0.00    -0.211 NA
ATOM      4  C   UNL     1       0.084  -2.242   5.073  0.00  0.00    +0.305 C 
ATOM      5  N   UNL     1       0.065  -0.904   5.686  0.00  0.00    -0.146 NA
ATOM      6  N   UNL     1       0.049  -0.080   4.765  0.00  0.00    -0.114 NA
ATOM      7  H   UNL     1       0.011   1.003   2.348  0.00  0.00    +0.177 HD
ENDROOT
BRANCH   1  10
ATOM      8  C   UNL     1      -0.018   1.503   0.010  0.00  0.00    +0.068 C 
ATOM      9  C   UNL     1       0.002  -0.004   0.002  0.00  0.00    +0.070 C 
ATOM     10  N   UNL     1       0.022  -0.661   1.125  0.00  0.00    -0.184 NA
BRANCH   9  11
ATOM     11  C   UNL     1      -0.000  -0.730  -1.272  0.00  0.00    +0.035 A 
ATOM     12  C   UNL     1       0.011  -2.096  -1.498  0.00  0.00    +0.017 A 
ATOM     13  C   UNL     1       0.005  -2.543  -2.799  0.00  0.00    +0.008 A 
ATOM     14  C   UNL     1      -0.010  -1.639  -3.813  0.00  0.00    +0.046 A 
ATOM     15  S   UNL     1      -0.025  -0.084  -2.936  0.00  0.00    -0.095 S 
ENDBRANCH   9  11
ENDBRANCH   1  10
BRANCH   4  16
ATOM     16  S   UNL     1      -1.385  -3.190   5.555  0.00  0.00    -0.100 S 
BRANCH  16  17
ATOM     17  C   UNL     1      -2.772  -2.114   5.096  0.00  0.00    +0.169 C 
BRANCH  17  18
ATOM     18  C   UNL     1      -4.071  -2.792   5.448  0.00  0.00    +0.229 C 
ATOM     19  O   UNL     1      -4.063  -3.892   5.958  0.00  0.00    -0.275 OA
ATOM     20  N   UNL     1      -5.243  -2.175   5.195  0.00  0.00    -0.264 N 
ATOM     21  C   UNL     1      -6.437  -2.798   5.519  0.00  0.00    +0.165 A 
ATOM     22  N   UNL     1      -6.630  -3.971   6.075  0.00  0.00    -0.225 NA
ATOM     23  C   UNL     1      -7.862  -4.457   6.336  0.00  0.00    +0.080 A 
ATOM     24  C   UNL     1      -8.206  -5.696   6.926  0.00  0.00    +0.029 A 
ATOM     25  C   UNL     1      -9.518  -6.038   7.121  0.00  0.00    +0.002 A 
ATOM     26  C   UNL     1     -10.552  -5.191   6.749  0.00  0.00    +0.001 A 
ATOM     27  C   UNL     1     -10.253  -3.971   6.170  0.00  0.00    +0.017 A 
ATOM     28  C   UNL     1      -8.941  -3.620   5.970  0.00  0.00    +0.041 A 
ATOM     29  S   UNL     1      -8.108  -2.205   5.292  0.00  0.00    -0.052 S 
ATOM     30  H   UNL     1      -5.250  -1.295   4.787  0.00  0.00    +0.157 HD
ENDBRANCH  17  18
ENDBRANCH  16  17
ENDBRANCH   4  16
TORSDOF 5
