REMARK  Name = ZINC08783445
REMARK  7 active torsions:
REMARK  status: ('A' for Active; 'I' for Inactive)
REMARK    1  A    between atoms: C_1  and  C_2
REMARK    2  A    between atoms: C_4  and  C_28
REMARK    3  A    between atoms: C_6  and  C_18
REMARK    4  A    between atoms: C_21  and  C_24
REMARK    5  A    between atoms: C_24  and  O_26
REMARK    6  A    between atoms: O_26  and  C_27
REMARK    7  A    between atoms: C_28  and  C_30
REMARK                            x       y       z     vdW  Elec       q    Type
REMARK                         _______ _______ _______ _____ _____    ______ ____
ROOT
ATOM      1  C   UNL     1       0.440   1.106   0.243  0.00  0.00    +0.028 C 
ATOM      2  C   UNL     1       0.082  -0.375   0.107  0.00  0.00    +0.083 C 
ATOM      3  C   UNL     1      -1.431  -0.523  -0.084  0.00  0.00    +0.107 C 
ATOM      4  C   UNL     1      -1.784  -2.001  -0.292  0.00  0.00    +0.133 C 
ATOM      5  N   UNL     1      -1.146  -2.794   0.762  0.00  0.00    -0.305 N 
ATOM      6  C   UNL     1      -1.444  -4.058   1.191  0.00  0.00    +0.069 A 
ATOM      7  C   UNL     1      -2.401  -4.986   0.799  0.00  0.00    +0.028 A 
ATOM      8  C   UNL     1      -2.417  -6.198   1.471  0.00  0.00    +0.002 A 
ATOM      9  C   UNL     1      -1.526  -6.483   2.490  0.00  0.00    +0.002 A 
ATOM     10  C   UNL     1      -0.565  -5.576   2.899  0.00  0.00    +0.028 A 
ATOM     11  C   UNL     1      -0.529  -4.346   2.234  0.00  0.00    +0.065 A 
ATOM     12  N   UNL     1       0.266  -3.267   2.381  0.00  0.00    -0.327 N 
ATOM     13  C   UNL     1      -0.087  -2.349   1.520  0.00  0.00    +0.175 A 
ATOM     14  N   UNL     1       0.477  -1.095   1.333  0.00  0.00    -0.313 N 
ATOM     15  H   UNL     1       1.095  -0.710   1.974  0.00  0.00    +0.149 HD
ATOM     16  H   UNL     1       0.986  -3.184   3.025  0.00  0.00    +0.169 HD
ENDROOT
BRANCH   4  17
ATOM     17  C   UNL     1      -3.279  -2.177  -0.225  0.00  0.00    -0.024 A 
ATOM     18  C   UNL     1      -4.032  -2.121  -1.384  0.00  0.00    +0.006 A 
ATOM     19  C   UNL     1      -5.401  -2.281  -1.330  0.00  0.00    +0.015 A 
ATOM     20  C   UNL     1      -6.026  -2.501  -0.101  0.00  0.00    +0.059 A 
ATOM     21  C   UNL     1      -5.261  -2.557   1.065  0.00  0.00    +0.015 A 
ATOM     22  C   UNL     1      -3.892  -2.400   0.996  0.00  0.00    +0.006 A 
BRANCH  20  23
ATOM     23  C   UNL     1      -7.492  -2.673  -0.035  0.00  0.00    +0.339 C 
ATOM     24  O   UNL     1      -8.156  -2.624  -1.052  0.00  0.00    -0.245 OA
BRANCH  23  25
ATOM     25  O   UNL     1      -8.093  -2.885   1.152  0.00  0.00    -0.464 OA
ATOM     26  C   UNL     1      -9.513  -3.043   1.141  0.00  0.00    +0.280 C 
ENDBRANCH  23  25
ENDBRANCH  20  23
ENDBRANCH   4  17
BRANCH   3  27
ATOM     27  C   UNL     1      -2.144  -0.006   1.139  0.00  0.00    +0.170 C 
ATOM     28  O   UNL     1      -2.212  -0.691   2.137  0.00  0.00    -0.292 OA
BRANCH  27  29
ATOM     29  C   UNL     1      -2.759   1.331   1.121  0.00  0.00    +0.018 A 
ATOM     30  C   UNL     1      -2.688   2.123  -0.030  0.00  0.00    +0.011 A 
ATOM     31  C   UNL     1      -3.267   3.374  -0.038  0.00  0.00    +0.001 A 
ATOM     32  C   UNL     1      -3.916   3.848   1.089  0.00  0.00    +0.000 A 
ATOM     33  C   UNL     1      -3.990   3.071   2.232  0.00  0.00    +0.001 A 
ATOM     34  C   UNL     1      -3.421   1.815   2.254  0.00  0.00    +0.011 A 
ENDBRANCH  27  29
ENDBRANCH   3  27
TORSDOF 5
