REMARK  Name = ZINC33775013
REMARK  11 active torsions:
REMARK  status: ('A' for Active; 'I' for Inactive)
REMARK    1  A    between atoms: C_1  and  C_2
REMARK    2  A    between atoms: C_3  and  C_26
REMARK    3  A    between atoms: C_5  and  C_15
REMARK    4  A    between atoms: N_6  and  C_7
REMARK    5  A    between atoms: C_7  and  C_8
REMARK    6  A    between atoms: C_8  and  C_9
REMARK    7  A    between atoms: C_18  and  C_20
REMARK    8  A    between atoms: N_28  and  C_29
REMARK    9  A    between atoms: C_29  and  C_30
REMARK   10  A    between atoms: C_30  and  C_31
REMARK   11  A    between atoms: C_30  and  C_32
REMARK                            x       y       z     vdW  Elec       q    Type
REMARK                         _______ _______ _______ _____ _____    ______ ____
ROOT
ATOM      1  C   UNL     1      -3.610  -2.478  -0.439  0.00  0.00    +0.064 C 
ATOM      2  C   UNL     1      -2.204  -2.963  -0.194  0.00  0.00    +0.028 A 
ATOM      3  C   UNL     1      -1.083  -2.169  -0.089  0.00  0.00    +0.058 A 
ATOM      4  C   UNL     1       0.017  -3.036   0.145  0.00  0.00    +0.042 A 
ATOM      5  C   UNL     1      -0.471  -4.302   0.167  0.00  0.00    +0.069 A 
ATOM      6  N   UNL     1      -1.826  -4.250  -0.045  0.00  0.00    -0.342 N 
ENDROOT
BRANCH   5   7
ATOM      7  C   UNL     1       0.324  -5.532   0.381  0.00  0.00    +0.095 A 
ATOM      8  C   UNL     1      -0.301  -6.748   0.514  0.00  0.00    +0.077 A 
ATOM      9  S   UNL     1       1.110  -7.822   0.741  0.00  0.00    -0.073 S 
ATOM     10  C   UNL     1       2.371  -6.559   0.637  0.00  0.00    +0.129 A 
ATOM     11  N   UNL     1       1.640  -5.472   0.441  0.00  0.00    -0.236 NA
BRANCH  10  12
ATOM     12  C   UNL     1       3.839  -6.693   0.738  0.00  0.00    +0.114 A 
ATOM     13  C   UNL     1       4.416  -7.948   0.948  0.00  0.00    +0.141 A 
ATOM     14  N   UNL     1       5.728  -8.062   1.031  0.00  0.00    -0.260 NA
ATOM     15  C   UNL     1       6.495  -6.989   0.927  0.00  0.00    +0.130 A 
ATOM     16  C   UNL     1       5.928  -5.743   0.724  0.00  0.00    +0.131 A 
ATOM     17  N   UNL     1       4.617  -5.618   0.633  0.00  0.00    -0.250 NA
ENDBRANCH  10  12
ENDBRANCH   5   7
BRANCH   3  18
ATOM     18  C   UNL     1      -1.036  -0.701  -0.193  0.00  0.00    +0.246 C 
ATOM     19  O   UNL     1      -2.057  -0.072  -0.397  0.00  0.00    -0.270 OA
ATOM     20  N   UNL     1       0.140  -0.054  -0.063  0.00  0.00    -0.311 N 
ATOM     21  H   UNL     1       1.063  -0.622   0.121  0.00  0.00    +0.149 HD
BRANCH  20  22
ATOM     22  C   UNL     1       0.187   1.407  -0.167  0.00  0.00    +0.107 C 
BRANCH  22  23
ATOM     23  C   UNL     1       1.628   1.885   0.018  0.00  0.00    -0.000 C 
ATOM     24  C   UNL     1       2.488   1.369  -1.138  0.00  0.00    +0.009 C 
ATOM     25  C   UNL     1       1.660   3.414   0.034  0.00  0.00    +0.009 C 
ENDBRANCH  22  23
ENDBRANCH  20  22
ENDBRANCH   3  18
BRANCH   6  26
ATOM     26  C   UNL     1      -2.722  -5.408  -0.094  0.00  0.00    +0.126 C 
BRANCH  26  27
ATOM     27  C   UNL     1      -3.135  -5.794   1.327  0.00  0.00    +0.052 C 
BRANCH  27  28
ATOM     28  C   UNL     1      -4.057  -6.986   1.277  0.00  0.00    -0.072 C 
ATOM     29  C   UNL     1      -3.537  -8.162   1.427  0.00  0.00    -0.028 C 
ATOM     30  C   UNL     1      -4.324  -9.439   1.391  0.00  0.00    +0.027 C 
ATOM     31  C   UNL     1      -5.814  -9.146   1.581  0.00  0.00    +0.004 C 
ATOM     32  C   UNL     1      -6.215  -8.024   0.616  0.00  0.00    +0.005 C 
ATOM     33  C   UNL     1      -5.520  -6.734   1.061  0.00  0.00    +0.030 C 
ENDBRANCH  27  28
ENDBRANCH  26  27
ENDBRANCH   6  26
TORSDOF 8
