REMARK  Name = ZINC21499518
REMARK  7 active torsions:
REMARK  status: ('A' for Active; 'I' for Inactive)
REMARK    1  A    between atoms: C_1  and  C_2
REMARK    2  A    between atoms: C_7  and  S_10
REMARK    3  A    between atoms: S_10  and  C_11
REMARK    4  A    between atoms: C_11  and  C_13
REMARK    5  A    between atoms: C_11  and  C_14
REMARK    6  A    between atoms: N_16  and  C_17
REMARK    7  A    between atoms: C_20  and  N_23
REMARK                            x       y       z     vdW  Elec       q    Type
REMARK                         _______ _______ _______ _____ _____    ______ ____
ROOT
ATOM      1  C   UNL     1      -4.112   1.238  -0.094  0.00  0.00    +0.230 C 
ATOM      2  O   UNL     1      -4.383   2.383   0.201  0.00  0.00    -0.274 OA
ATOM      3  N   UNL     1      -5.083   0.404  -0.517  0.00  0.00    -0.285 N 
ATOM      4  H   UNL     1      -4.827  -0.611  -0.857  0.00  0.00    +0.155 HD
ENDROOT
BRANCH   3   5
ATOM      5  C   UNL     1      -6.418   0.830  -0.524  0.00  0.00    +0.034 A 
ATOM      6  C   UNL     1      -7.436  -0.072  -0.241  0.00  0.00    +0.025 A 
ATOM      7  C   UNL     1      -8.751   0.348  -0.243  0.00  0.00    +0.024 A 
ATOM      8  C   UNL     1      -9.057   1.670  -0.538  0.00  0.00    +0.025 A 
ATOM      9  C   UNL     1      -8.040   2.571  -0.825  0.00  0.00    +0.024 A 
ATOM     10  C   UNL     1      -6.724   2.151  -0.819  0.00  0.00    +0.025 A 
BRANCH   8  11
ATOM     11  N   UNL     1     -10.390   2.095  -0.544  0.00  0.00    -0.358 N 
ATOM     12  H   UNL     1     -10.632   3.142  -0.777  0.00  0.00    +0.142 HD
ATOM     13  H   UNL     1     -11.196   1.382  -0.316  0.00  0.00    +0.142 HD
ENDBRANCH   8  11
ENDBRANCH   3   5
BRANCH   1  14
ATOM     14  C   UNL     1      -2.691   0.748   0.012  0.00  0.00    +0.137 C 
ATOM     15  C   UNL     1      -2.522  -0.046   1.309  0.00  0.00    +0.029 C 
BRANCH  14  16
ATOM     16  S   UNL     1      -1.564   2.163   0.019  0.00  0.00    -0.075 S 
BRANCH  16  23
ATOM     17  C   UNL     1       3.624   2.211  -0.053  0.00  0.00    +0.066 C 
ATOM     18  C   UNL     1       2.348   1.411  -0.033  0.00  0.00    +0.046 A 
ATOM     19  C   UNL     1       2.388   0.061  -0.039  0.00  0.00    +0.093 A 
ATOM     20  C   UNL     1       1.168  -0.662  -0.031  0.00  0.00    +0.252 A 
ATOM     21  O   UNL     1       1.177  -1.884  -0.040  0.00  0.00    -0.268 OA
ATOM     22  N   UNL     1       0.005   0.003  -0.013  0.00  0.00    -0.302 N 
ATOM     23  C   UNL     1      -0.016   1.321  -0.003  0.00  0.00    +0.170 A 
ATOM     24  N   UNL     1       1.138   2.043  -0.010  0.00  0.00    -0.228 NA
ATOM     25  H   UNL     1      -0.939  -0.562  -0.008  0.00  0.00    +0.171 HD
ENDBRANCH  16  23
ENDBRANCH  14  16
ENDBRANCH   1  14
TORSDOF 5
