REMARK  Name = ZINC32651071
REMARK  7 active torsions:
REMARK  status: ('A' for Active; 'I' for Inactive)
REMARK    1  A    between atoms: C_1  and  C_2
REMARK    2  A    between atoms: C_7  and  N_8
REMARK    3  A    between atoms: C_12  and  C_16
REMARK    4  A    between atoms: N_14  and  C_15
REMARK    5  A    between atoms: C_18  and  C_20
REMARK    6  A    between atoms: C_20  and  C_21
REMARK    7  A    between atoms: C_20  and  C_22
REMARK                            x       y       z     vdW  Elec       q    Type
REMARK                         _______ _______ _______ _____ _____    ______ ____
ROOT
ATOM      1  N   UNL     1       1.764  -2.659   0.220  0.00  0.00    -0.297 N 
ATOM      2  C   UNL     1       2.217  -1.365   0.420  0.00  0.00    +0.152 A 
ATOM      3  C   UNL     1       1.400  -0.265   0.118  0.00  0.00    +0.127 A 
ATOM      4  C   UNL     1       1.910   1.026   0.341  0.00  0.00    +0.117 A 
ATOM      5  C   UNL     1       0.901   1.936  -0.040  0.00  0.00    +0.086 A 
ATOM      6  N   UNL     1      -0.134   1.262  -0.457  0.00  0.00    -0.174 NA
ATOM      7  N   UNL     1       0.134  -0.111  -0.376  0.00  0.00    -0.262 N 
ATOM      8  C   UNL     1      -0.782  -1.190  -0.753  0.00  0.00    +0.173 C 
ATOM      9  C   UNL     1       1.003   3.438   0.025  0.00  0.00    +0.070 C 
ATOM     10  N   UNL     1       3.151   1.154   0.830  0.00  0.00    -0.228 NA
ATOM     11  C   UNL     1       3.876   0.092   1.096  0.00  0.00    +0.135 A 
ATOM     12  N   UNL     1       3.434  -1.138   0.901  0.00  0.00    -0.215 NA
ATOM     13  H   UNL     1       0.720  -2.836  -0.078  0.00  0.00    +0.154 HD
ENDROOT
BRANCH   1  20
ATOM     14  C   UNL     1       0.670  -5.285   0.175  0.00  0.00    +0.045 C 
ATOM     15  C   UNL     1       2.142  -5.037   0.382  0.00  0.00    -0.029 A 
ATOM     16  C   UNL     1       3.004  -6.102   0.557  0.00  0.00    +0.005 A 
ATOM     17  C   UNL     1       4.355  -5.876   0.747  0.00  0.00    +0.000 A 
ATOM     18  C   UNL     1       4.848  -4.584   0.761  0.00  0.00    +0.002 A 
ATOM     19  C   UNL     1       3.992  -3.515   0.582  0.00  0.00    +0.023 A 
ATOM     20  C   UNL     1       2.633  -3.738   0.397  0.00  0.00    +0.035 A 
ENDBRANCH   1  20
BRANCH  11  21
ATOM     21  C   UNL     1       5.266   0.284   1.645  0.00  0.00    +0.051 C 
ATOM     22  C   UNL     1       5.369  -0.386   3.017  0.00  0.00    +0.015 C 
ATOM     23  C   UNL     1       6.282  -0.347   0.691  0.00  0.00    +0.015 C 
ENDBRANCH  11  21
TORSDOF 2
