REMARK  Name = ZINC10751558
REMARK  9 active torsions:
REMARK  status: ('A' for Active; 'I' for Inactive)
REMARK    1  A    between atoms: C_1  and  N_60
REMARK    2  A    between atoms: C_2  and  N_60
REMARK    3  A    between atoms: C_3  and  C_4
REMARK    4  A    between atoms: C_3  and  N_60
REMARK    5  A    between atoms: C_4  and  C_5
REMARK    6  A    between atoms: C_5  and  N_6
REMARK    7  A    between atoms: C_17  and  C_19
REMARK    8  A    between atoms: N_24  and  S_26
REMARK    9  A    between atoms: S_26  and  C_29
REMARK                            x       y       z     vdW  Elec       q    Type
REMARK                         _______ _______ _______ _____ _____    ______ ____
ROOT
ATOM      1  N   UNL     1      -1.275   1.881  -0.502  0.00  0.00    -0.250 N 
ATOM      2  C   UNL     1      -2.436   1.331  -1.020  0.00  0.00    +0.168 A 
ATOM      3  N   UNL     1      -3.413   1.926  -1.663  0.00  0.00    -0.224 NA
ATOM      4  C   UNL     1      -4.495   1.257  -2.119  0.00  0.00    +0.080 A 
ATOM      5  C   UNL     1      -5.607   1.774  -2.824  0.00  0.00    +0.032 A 
ATOM      6  C   UNL     1      -6.633   0.954  -3.213  0.00  0.00    +0.040 A 
ATOM      7  C   UNL     1      -6.621  -0.407  -2.932  0.00  0.00    +0.125 A 
ATOM      8  C   UNL     1      -5.548  -0.946  -2.243  0.00  0.00    +0.055 A 
ATOM      9  C   UNL     1      -4.516  -0.130  -1.850  0.00  0.00    +0.043 A 
ATOM     10  S   UNL     1      -2.988  -0.368  -0.975  0.00  0.00    -0.052 S 
ATOM     11  F   UNL     1      -7.645  -1.195  -3.326  0.00  0.00    -0.205 F 
ATOM     12  C   UNL     1      -0.321   1.081   0.012  0.00  0.00    +0.226 C 
ATOM     13  O   UNL     1       0.650   1.565   0.555  0.00  0.00    -0.275 OA
ENDROOT
BRANCH  12  14
ATOM     14  C   UNL     1      -0.463  -0.417  -0.082  0.00  0.00    +0.091 C 
ATOM     15  C   UNL     1      -1.335  -0.920   1.070  0.00  0.00    +0.015 C 
ATOM     16  C   UNL     1      -1.507  -2.437   0.957  0.00  0.00    +0.018 C 
ATOM     17  C   UNL     1      -0.136  -3.111   1.060  0.00  0.00    +0.109 C 
ATOM     18  N   UNL     1       0.755  -2.528   0.047  0.00  0.00    -0.175 NA
ATOM     19  C   UNL     1       0.921  -1.068   0.009  0.00  0.00    +0.122 C 
BRANCH  18  20
ATOM     20  S   UNL     1       1.556  -3.496  -1.031  0.00  0.00    +0.067 S 
ATOM     21  O   UNL     1       2.696  -2.767  -1.463  0.00  0.00    -0.152 OA
ATOM     22  O   UNL     1       1.655  -4.779  -0.428  0.00  0.00    -0.152 OA
BRANCH  20  23
ATOM     23  C   UNL     1       0.513  -3.681  -2.440  0.00  0.00    +0.143 A 
ATOM     24  C   UNL     1       0.449  -2.920  -3.559  0.00  0.00    +0.036 A 
ATOM     25  C   UNL     1      -0.457  -3.257  -4.548  0.00  0.00    +0.010 A 
ATOM     26  C   UNL     1      -1.253  -4.340  -4.368  0.00  0.00    +0.047 A 
ATOM     27  S   UNL     1      -0.726  -4.924  -2.766  0.00  0.00    -0.077 S 
ENDBRANCH  20  23
ENDBRANCH  18  20
ENDBRANCH  12  14
BRANCH   1  28
ATOM     28  C   UNL     1      -1.084   3.334  -0.513  0.00  0.00    +0.114 C 
BRANCH  28  29
ATOM     29  C   UNL     1      -0.515   3.763  -1.867  0.00  0.00    +0.001 C 
BRANCH  29  30
ATOM     30  C   UNL     1      -0.361   5.285  -1.896  0.00  0.00    -0.078 C 
BRANCH  30  33
ATOM     31  C   UNL     1       0.126   7.157  -3.353  0.00  0.00    -0.097 C 
ATOM     32  C   UNL     1       1.558   5.204  -3.370  0.00  0.00    -0.097 C 
ATOM     33  N   UNL     1       0.169   5.685  -3.216  0.00  0.00    +0.376 N 
ATOM     34  H   UNL     1      -0.413   5.265  -3.951  0.00  0.00    -0.083 HD
ENDBRANCH  30  33
ENDBRANCH  29  30
ENDBRANCH  28  29
ENDBRANCH   1  28
TORSDOF 7
