REMARK  Name = ZINC09620375
REMARK  9 active torsions:
REMARK  status: ('A' for Active; 'I' for Inactive)
REMARK    1  A    between atoms: C_1  and  C_2
REMARK    2  A    between atoms: C_6  and  C_30
REMARK    3  A    between atoms: C_7  and  N_8
REMARK    4  A    between atoms: C_9  and  S_13
REMARK    5  A    between atoms: S_13  and  C_14
REMARK    6  A    between atoms: C_14  and  C_15
REMARK    7  A    between atoms: N_17  and  C_18
REMARK    8  A    between atoms: C_18  and  C_19
REMARK    9  A    between atoms: C_19  and  N_65
REMARK                            x       y       z     vdW  Elec       q    Type
REMARK                         _______ _______ _______ _____ _____    ______ ____
ROOT
ATOM      1  C   UNL     1      -6.083   3.904   0.516  0.00  0.00    +0.223 C 
ATOM      2  O   UNL     1      -5.370   4.876   0.380  0.00  0.00    -0.275 OA
ATOM      3  N   UNL     1      -7.417   4.020   0.355  0.00  0.00    -0.316 N 
ATOM      4  H   UNL     1      -7.987   3.243   0.464  0.00  0.00    +0.149 HD
ENDROOT
BRANCH   1   5
ATOM      5  C   UNL     1      -5.479   2.568   0.864  0.00  0.00    +0.173 C 
BRANCH   5   6
ATOM      6  S   UNL     1      -3.683   2.738   1.010  0.00  0.00    -0.075 S 
BRANCH   6   8
ATOM      7  N   UNL     1      -1.996   0.599   1.640  0.00  0.00    -0.187 N 
ATOM      8  C   UNL     1      -3.251   1.077   1.410  0.00  0.00    +0.214 A 
ATOM      9  N   UNL     1      -4.078   0.062   1.540  0.00  0.00    -0.101 NA
ATOM     10  N   UNL     1      -3.434  -1.007   1.842  0.00  0.00    -0.022 NA
ATOM     11  N   UNL     1      -2.171  -0.767   1.922  0.00  0.00    -0.038 NA
BRANCH   7  18
ATOM     12  C   UNL     1      -0.088  -0.060  -0.367  0.00  0.00    +0.046 C 
ATOM     13  C   UNL     1       0.166   1.026   0.647  0.00  0.00    -0.025 A 
ATOM     14  C   UNL     1       1.350   1.738   0.616  0.00  0.00    +0.005 A 
ATOM     15  C   UNL     1       1.583   2.735   1.545  0.00  0.00    +0.001 A 
ATOM     16  C   UNL     1       0.634   3.022   2.508  0.00  0.00    +0.005 A 
ATOM     17  C   UNL     1      -0.552   2.314   2.544  0.00  0.00    -0.025 A 
ATOM     18  C   UNL     1      -0.791   1.316   1.609  0.00  0.00    +0.076 A 
ATOM     19  C   UNL     1      -1.586   2.629   3.594  0.00  0.00    +0.046 C 
ENDBRANCH   7  18
ENDBRANCH   6   8
ENDBRANCH   5   6
ENDBRANCH   1   5
BRANCH   3  20
ATOM     20  C   UNL     1      -8.004   5.319   0.017  0.00  0.00    +0.092 C 
BRANCH  20  21
ATOM     21  C   UNL     1      -9.509   5.155  -0.207  0.00  0.00    -0.050 C 
ATOM     22  C   UNL     1     -10.101   6.484  -0.682  0.00  0.00    -0.010 C 
ATOM     23  C   UNL     1      -9.857   7.559   0.379  0.00  0.00    -0.001 C 
ATOM     24  C   UNL     1     -10.526   7.142   1.691  0.00  0.00    -0.000 C 
ATOM     25  C   UNL     1      -9.934   5.814   2.166  0.00  0.00    -0.001 C 
ATOM     26  C   UNL     1     -10.177   4.738   1.105  0.00  0.00    -0.010 C 
BRANCH  21  32
ATOM     27  C   UNL     1      -9.063   4.461  -2.483  0.00  0.00    -0.078 C 
ATOM     28  C   UNL     1      -9.207   3.300  -3.470  0.00  0.00    -0.019 C 
ATOM     29  C   UNL     1     -10.693   3.035  -3.726  0.00  0.00    -0.004 C 
ATOM     30  C   UNL     1     -11.386   2.733  -2.394  0.00  0.00    -0.019 C 
ATOM     31  C   UNL     1     -11.180   3.910  -1.439  0.00  0.00    -0.078 C 
ATOM     32  N   UNL     1      -9.731   4.098  -1.214  0.00  0.00    +0.384 N 
ATOM     33  H   UNL     1      -9.331   3.218  -0.868  0.00  0.00    -0.081 HD
ENDBRANCH  21  32
ENDBRANCH  20  21
ENDBRANCH   3  20
TORSDOF 7
