REMARK  Name = ZINC35706606
REMARK  11 active torsions:
REMARK  status: ('A' for Active; 'I' for Inactive)
REMARK    1  A    between atoms: C_1  and  C_2
REMARK    2  A    between atoms: C_7  and  C_8
REMARK    3  A    between atoms: C_8  and  N_9
REMARK    4  A    between atoms: N_9  and  C_10
REMARK    5  A    between atoms: N_9  and  C_34
REMARK    6  A    between atoms: C_10  and  C_11
REMARK    7  A    between atoms: C_14  and  C_16
REMARK    8  A    between atoms: N_21  and  C_24
REMARK    9  A    between atoms: C_28  and  C_30
REMARK   10  A    between atoms: C_34  and  C_35
REMARK   11  A    between atoms: C_34  and  C_36
REMARK                            x       y       z     vdW  Elec       q    Type
REMARK                         _______ _______ _______ _____ _____    ______ ____
ROOT
ATOM      1  C   UNL     1      -2.957  -0.148   5.338  0.00  0.00    +0.090 A 
ATOM      2  C   UNL     1      -3.547  -1.307   5.705  0.00  0.00    +0.043 A 
ATOM      3  C   UNL     1      -4.902  -1.024   5.937  0.00  0.00    +0.055 A 
ATOM      4  C   UNL     1      -5.072   0.310   5.697  0.00  0.00    +0.190 A 
ATOM      5  O   UNL     1      -3.877   0.824   5.338  0.00  0.00    -0.457 OA
ENDROOT
BRANCH   4   6
ATOM      6  C   UNL     1      -6.331   1.053   5.812  0.00  0.00    +0.282 C 
ATOM      7  O   UNL     1      -7.315   0.514   6.283  0.00  0.00    -0.267 OA
ATOM      8  N   UNL     1      -6.398   2.333   5.396  0.00  0.00    -0.292 N 
ATOM      9  C   UNL     1      -5.262   2.954   4.699  0.00  0.00    +0.127 C 
ATOM     10  C   UNL     1      -5.754   3.505   3.355  0.00  0.00    +0.124 C 
ATOM     11  N   UNL     1      -6.964   4.305   3.590  0.00  0.00    -0.327 N 
ATOM     12  C   UNL     1      -8.100   3.685   4.287  0.00  0.00    +0.124 C 
ATOM     13  C   UNL     1      -7.610   3.132   5.626  0.00  0.00    +0.127 C 
BRANCH  11  14
ATOM     14  C   UNL     1      -7.034   5.632   3.159  0.00  0.00    +0.030 A 
ATOM     15  C   UNL     1      -6.009   6.169   2.389  0.00  0.00    +0.023 A 
ATOM     16  C   UNL     1      -6.081   7.481   1.964  0.00  0.00    +0.002 A 
ATOM     17  C   UNL     1      -7.171   8.261   2.305  0.00  0.00    +0.012 A 
ATOM     18  C   UNL     1      -8.192   7.730   3.072  0.00  0.00    +0.057 A 
ATOM     19  C   UNL     1      -8.130   6.417   3.495  0.00  0.00    +0.035 A 
BRANCH  18  20
ATOM     20  C   UNL     1      -9.378   8.584   3.442  0.00  0.00    +0.417 C 
ATOM     21  F   UNL     1      -9.218   9.863   2.898  0.00  0.00    -0.166 F 
ATOM     22  F   UNL     1     -10.546   8.005   2.935  0.00  0.00    -0.166 F 
ATOM     23  F   UNL     1      -9.469   8.677   4.835  0.00  0.00    -0.166 F 
ENDBRANCH  18  20
ENDBRANCH  11  14
ENDBRANCH   4   6
BRANCH   1  24
ATOM     24  C   UNL     1      -1.500   0.022   4.990  0.00  0.00    -0.002 C 
BRANCH  24  25
ATOM     25  N   UNL     1      -1.332  -0.057   3.533  0.00  0.00    +0.389 N 
ATOM     26  H   UNL     1      -1.964   0.589   3.086  0.00  0.00    -0.080 HD
BRANCH  25  27
ATOM     27  C   UNL     1      -1.626  -1.423   3.080  0.00  0.00    -0.074 C 
ATOM     28  C   UNL     1      -1.854  -1.421   1.567  0.00  0.00    -0.013 C 
ATOM     29  C   UNL     1      -0.447  -2.338   3.416  0.00  0.00    -0.013 C 
ENDBRANCH  25  27
BRANCH  25  30
ATOM     30  C   UNL     1       0.052   0.288   3.180  0.00  0.00    -0.042 C 
BRANCH  30  37
ATOM     31  C   UNL     1      -1.137   2.515   1.776  0.00  0.00    +0.044 C 
ATOM     32  C   UNL     1      -0.391   1.454   1.010  0.00  0.00    -0.049 A 
ATOM     33  C   UNL     1      -0.270   1.550  -0.364  0.00  0.00    +0.003 A 
ATOM     34  C   UNL     1       0.415   0.576  -1.066  0.00  0.00    +0.000 A 
ATOM     35  C   UNL     1       0.980  -0.493  -0.395  0.00  0.00    +0.000 A 
ATOM     36  C   UNL     1       0.860  -0.587   0.979  0.00  0.00    +0.002 A 
ATOM     37  C   UNL     1       0.178   0.389   1.682  0.00  0.00    -0.061 A 
ENDBRANCH  30  37
ENDBRANCH  25  30
ENDBRANCH  24  25
ENDBRANCH   1  24
TORSDOF 8
