REMARK  Name = ZINC39658962
REMARK  6 active torsions:
REMARK  status: ('A' for Active; 'I' for Inactive)
REMARK    1  A    between atoms: C_1  and  C_2
REMARK    2  A    between atoms: C_2  and  C_33
REMARK    3  A    between atoms: C_5  and  C_8
REMARK    4  A    between atoms: C_8  and  N_9
REMARK    5  A    between atoms: C_10  and  C_12
REMARK    6  A    between atoms: C_23  and  C_25
REMARK                            x       y       z     vdW  Elec       q    Type
REMARK                         _______ _______ _______ _____ _____    ______ ____
ROOT
ATOM      1  C   UNL     1       3.020  -2.669   5.320  0.00  0.00    +0.100 C 
ATOM      2  C   UNL     1       2.231  -1.939   6.430  0.00  0.00    +0.121 C 
ATOM      3  N   UNL     1       1.909  -2.997   7.417  0.00  0.00    -0.296 N 
ATOM      4  C   UNL     1       3.129  -3.837   7.469  0.00  0.00    +0.115 C 
ATOM      5  C   UNL     1       3.611  -3.911   6.006  0.00  0.00    -0.004 C 
ATOM      6  C   UNL     1       5.135  -3.872   5.950  0.00  0.00    -0.010 C 
ATOM      7  C   UNL     1       5.698  -5.145   6.586  0.00  0.00    -0.082 C 
ATOM      8  N   UNL     1       5.192  -6.320   5.866  0.00  0.00    +0.379 N 
ATOM      9  C   UNL     1       3.733  -6.402   6.005  0.00  0.00    -0.082 C 
ATOM     10  C   UNL     1       3.087  -5.181   5.343  0.00  0.00    -0.010 C 
ATOM     11  C   UNL     1       0.764  -3.158   8.111  0.00  0.00    +0.249 C 
ATOM     12  O   UNL     1       0.652  -4.084   8.891  0.00  0.00    -0.270 OA
ATOM     13  H   UNL     1       5.432  -6.243   4.889  0.00  0.00    -0.086 HD
ATOM     14  H   UNL     1       5.612  -7.154   6.249  0.00  0.00    -0.086 HD
ENDROOT
BRANCH  11  15
ATOM     15  C   UNL     1      -0.353  -2.211   7.923  0.00  0.00    +0.073 A 
ATOM     16  C   UNL     1      -1.327  -2.457   6.951  0.00  0.00    +0.054 A 
ATOM     17  C   UNL     1      -2.369  -1.567   6.782  0.00  0.00    +0.021 A 
ATOM     18  C   UNL     1      -2.450  -0.433   7.571  0.00  0.00    +0.003 A 
ATOM     19  C   UNL     1      -1.489  -0.183   8.535  0.00  0.00    +0.021 A 
ATOM     20  C   UNL     1      -0.445  -1.067   8.720  0.00  0.00    +0.054 A 
ATOM     21 CL   UNL     1       0.755  -0.754   9.935  0.00  0.00    -0.083 Cl
ATOM     22 CL   UNL     1      -1.226  -3.878   5.959  0.00  0.00    -0.083 Cl
ENDBRANCH  11  15
BRANCH   1  24
ATOM     23  N   UNL     1       2.582  -3.254   2.957  0.00  0.00    -0.312 N 
ATOM     24  C   UNL     1       2.096  -3.077   4.201  0.00  0.00    +0.218 C 
ATOM     25  O   UNL     1       0.915  -3.246   4.421  0.00  0.00    -0.275 OA
ATOM     26  H   UNL     1       3.526  -3.119   2.781  0.00  0.00    +0.149 HD
BRANCH  23  27
ATOM     27  C   UNL     1       1.684  -3.651   1.869  0.00  0.00    +0.138 C 
BRANCH  27  32
ATOM     28  C   UNL     1       4.697  -5.592  -1.287  0.00  0.00    +0.074 C 
ATOM     29  C   UNL     1       3.290  -5.549  -0.690  0.00  0.00    +0.165 C 
ATOM     30  O   UNL     1       2.430  -4.767  -1.535  0.00  0.00    -0.347 OA
ATOM     31  C   UNL     1       1.540  -4.079  -0.623  0.00  0.00    +0.196 C 
ATOM     32  C   UNL     1       2.482  -3.783   0.571  0.00  0.00    +0.164 C 
ATOM     33  O   UNL     1       3.336  -4.944   0.609  0.00  0.00    -0.342 OA
ATOM     34  C   UNL     1       2.737  -6.971  -0.574  0.00  0.00    +0.074 C 
ENDBRANCH  27  32
ENDBRANCH  23  27
ENDBRANCH   1  24
TORSDOF 4
