REMARK  Name = ZINC01383858
REMARK  7 active torsions:
REMARK  status: ('A' for Active; 'I' for Inactive)
REMARK    1  A    between atoms: C_1  and  C_2
REMARK    2  A    between atoms: C_4  and  C_30
REMARK    3  A    between atoms: C_8  and  N_25
REMARK    4  A    between atoms: C_9  and  C_11
REMARK    5  A    between atoms: N_13  and  N_14
REMARK    6  A    between atoms: N_14  and  S_15
REMARK    7  A    between atoms: S_15  and  C_18
REMARK                            x       y       z     vdW  Elec       q    Type
REMARK                         _______ _______ _______ _____ _____    ______ ____
ROOT
ATOM      1  C   UNL     1      -0.018   1.503   0.010  0.00  0.00    +0.044 C 
ATOM      2  C   UNL     1       0.002  -0.004   0.002  0.00  0.00    -0.037 A 
ATOM      3  C   UNL     1       0.006  -0.696  -1.186  0.00  0.00    +0.027 A 
ATOM      4  C   UNL     1       0.025  -2.082  -1.192  0.00  0.00    +0.040 A 
ATOM      5  N   UNL     1       0.039  -2.755  -0.057  0.00  0.00    -0.245 NA
ATOM      6  C   UNL     1       0.036  -2.139   1.105  0.00  0.00    +0.111 A 
ATOM      7  C   UNL     1       0.024  -0.730   1.219  0.00  0.00    +0.035 A 
ATOM      8  C   UNL     1       0.029  -0.220   2.581  0.00  0.00    +0.075 A 
ATOM      9  C   UNL     1       0.051  -1.124   3.617  0.00  0.00    +0.101 A 
ATOM     10  S   UNL     1       0.051  -2.702   2.789  0.00  0.00    -0.062 S 
ATOM     11  C   UNL     1       0.028  -2.826  -2.502  0.00  0.00    +0.065 C 
ENDROOT
BRANCH   8  12
ATOM     12  N   UNL     1       0.013   1.153   2.830  0.00  0.00    -0.321 N 
ATOM     13  C   UNL     1       1.002   2.035   2.496  0.00  0.00    +0.091 A 
ATOM     14  C   UNL     1       0.623   3.264   2.900  0.00  0.00    +0.019 A 
ATOM     15  C   UNL     1      -0.644   3.140   3.504  0.00  0.00    +0.019 A 
ATOM     16  C   UNL     1      -0.997   1.840   3.443  0.00  0.00    +0.091 A 
ENDBRANCH   8  12
BRANCH   9  17
ATOM     17  C   UNL     1       0.061  -0.854   5.056  0.00  0.00    +0.267 C 
ATOM     18  O   UNL     1       0.050   0.294   5.460  0.00  0.00    -0.268 OA
ATOM     19  N   UNL     1       0.083  -1.877   5.933  0.00  0.00    -0.227 N 
ATOM     20  H   UNL     1       0.092  -2.792   5.612  0.00  0.00    +0.171 HD
BRANCH  19  21
ATOM     21  N   UNL     1       0.093  -1.619   7.310  0.00  0.00    -0.108 NA
ATOM     22  H   UNL     1       0.777  -1.047   7.692  0.00  0.00    +0.172 HD
BRANCH  21  23
ATOM     23  S   UNL     1      -1.064  -2.290   8.287  0.00  0.00    +0.074 S 
ATOM     24  O   UNL     1      -0.706  -1.966   9.623  0.00  0.00    -0.152 OA
ATOM     25  O   UNL     1      -2.322  -1.936   7.729  0.00  0.00    -0.152 OA
BRANCH  23  26
ATOM     26  C   UNL     1      -0.921  -4.040   8.137  0.00  0.00    +0.107 A 
ATOM     27  C   UNL     1      -1.638  -4.711   7.164  0.00  0.00    +0.031 A 
ATOM     28  C   UNL     1      -1.526  -6.083   7.046  0.00  0.00    +0.040 A 
ATOM     29  C   UNL     1      -0.695  -6.786   7.902  0.00  0.00    +0.124 A 
ATOM     30  C   UNL     1       0.022  -6.113   8.877  0.00  0.00    +0.040 A 
ATOM     31  C   UNL     1      -0.087  -4.740   8.990  0.00  0.00    +0.031 A 
ATOM     32  F   UNL     1      -0.585  -8.128   7.788  0.00  0.00    -0.205 F 
ENDBRANCH  23  26
ENDBRANCH  21  23
ENDBRANCH  19  21
ENDBRANCH   9  17
TORSDOF 5
