REMARK  Name = ZINC08964170
REMARK  8 active torsions:
REMARK  status: ('A' for Active; 'I' for Inactive)
REMARK    1  A    between atoms: C_1  and  N_2
REMARK    2  A    between atoms: C_9  and  C_11
REMARK    3  A    between atoms: C_11  and  C_13
REMARK    4  A    between atoms: C_11  and  N_60
REMARK    5  A    between atoms: C_13  and  N_14
REMARK    6  A    between atoms: C_15  and  C_17
REMARK    7  A    between atoms: N_19  and  C_20
REMARK    8  A    between atoms: C_25  and  C_26
REMARK                            x       y       z     vdW  Elec       q    Type
REMARK                         _______ _______ _______ _____ _____    ______ ____
ROOT
ATOM      1  C   UNL     1       1.195   1.111   0.083  0.00  0.00    +0.094 C 
ENDROOT
BRANCH   1   2
ATOM      2  N   UNL     1       0.187   0.319  -0.625  0.00  0.00    -0.309 N 
ATOM      3  C   UNL     1      -1.067   0.793  -0.764  0.00  0.00    +0.299 C 
ATOM      4  O   UNL     1      -1.362   1.874  -0.298  0.00  0.00    -0.265 OA
ATOM      5  H   UNL     1       0.423  -0.545  -0.998  0.00  0.00    +0.149 HD
BRANCH   3   6
ATOM      6  C   UNL     1      -2.094  -0.011  -1.492  0.00  0.00    +0.303 C 
ATOM      7  O   UNL     1      -1.798  -1.093  -1.958  0.00  0.00    -0.265 OA
ATOM      8  N   UNL     1      -3.347   0.463  -1.631  0.00  0.00    -0.277 N 
ATOM      9  H   UNL     1      -3.563   1.359  -1.330  0.00  0.00    +0.155 HD
BRANCH   8  10
ATOM     10  C   UNL     1      -4.337  -0.337  -2.208  0.00  0.00    +0.045 A 
ATOM     11  C   UNL     1      -4.295  -1.718  -2.053  0.00  0.00    +0.024 A 
ATOM     12  C   UNL     1      -5.277  -2.505  -2.621  0.00  0.00    +0.002 A 
ATOM     13  C   UNL     1      -6.296  -1.922  -3.352  0.00  0.00    +0.001 A 
ATOM     14  C   UNL     1      -6.338  -0.549  -3.512  0.00  0.00    +0.014 A 
ATOM     15  C   UNL     1      -5.362   0.245  -2.942  0.00  0.00    +0.076 A 
BRANCH  15  16
ATOM     16  C   UNL     1      -5.409   1.741  -3.118  0.00  0.00    +0.419 C 
ATOM     17  F   UNL     1      -6.524   2.085  -3.889  0.00  0.00    -0.166 F 
ATOM     18  F   UNL     1      -5.501   2.355  -1.865  0.00  0.00    -0.166 F 
ATOM     19  F   UNL     1      -4.245   2.171  -3.764  0.00  0.00    -0.166 F 
ENDBRANCH  15  16
ENDBRANCH   8  10
ENDBRANCH   3   6
ENDBRANCH   1   2
BRANCH   1  20
ATOM     20  C   UNL     1       2.471   0.283   0.247  0.00  0.00    -0.020 C 
BRANCH  20  29
ATOM     21  C   UNL     1       7.289   3.263   3.361  0.00  0.00    +0.129 C 
ATOM     22  N   UNL     1       6.698   3.600   2.059  0.00  0.00    -0.332 N 
ATOM     23  C   UNL     1       7.683   3.429   0.969  0.00  0.00    +0.109 C 
ATOM     24  C   UNL     1       6.794   3.030  -0.231  0.00  0.00    +0.056 C 
ATOM     25  C   UNL     1       5.584   2.409   0.439  0.00  0.00    -0.025 A 
ATOM     26  C   UNL     1       5.599   2.779   1.778  0.00  0.00    +0.033 A 
ATOM     27  C   UNL     1       4.586   2.322   2.619  0.00  0.00    +0.023 A 
ATOM     28  C   UNL     1       3.578   1.522   2.120  0.00  0.00    +0.004 A 
ATOM     29  C   UNL     1       3.573   1.159   0.786  0.00  0.00    -0.059 A 
ATOM     30  C   UNL     1       4.577   1.606  -0.054  0.00  0.00    +0.007 A 
ENDBRANCH  20  29
BRANCH  20  35
ATOM     31  C   UNL     1       1.331  -1.843   0.575  0.00  0.00    -0.078 C 
ATOM     32  C   UNL     1       1.605  -3.106   1.431  0.00  0.00    -0.020 C 
ATOM     33  C   UNL     1       3.123  -3.014   1.707  0.00  0.00    -0.020 C 
ATOM     34  C   UNL     1       3.477  -1.528   1.516  0.00  0.00    -0.078 C 
ATOM     35  N   UNL     1       2.223  -0.848   1.191  0.00  0.00    +0.385 N 
ATOM     36  H   UNL     1       1.794  -0.482   2.049  0.00  0.00    -0.081 HD
ENDBRANCH  20  35
ENDBRANCH   1  20
TORSDOF 7
