REMARK  Name = ZINC59262769
REMARK  12 active torsions:
REMARK  status: ('A' for Active; 'I' for Inactive)
REMARK    1  A    between atoms: C_1  and  C_2
REMARK    2  A    between atoms: C_2  and  C_3
REMARK    3  A    between atoms: C_2  and  C_4
REMARK    4  A    between atoms: C_2  and  N_5
REMARK    5  A    between atoms: N_5  and  S_6
REMARK    6  A    between atoms: S_6  and  C_9
REMARK    7  A    between atoms: C_12  and  N_15
REMARK    8  A    between atoms: C_16  and  C_18
REMARK    9  A    between atoms: C_18  and  S_19
REMARK   10  A    between atoms: S_19  and  C_20
REMARK   11  A    between atoms: C_23  and  C_31
REMARK   12  A    between atoms: N_24  and  C_25
REMARK                            x       y       z     vdW  Elec       q    Type
REMARK                         _______ _______ _______ _____ _____    ______ ____
ROOT
ATOM      1  N   UNL     1       4.875  -3.908   2.178  0.00  0.00    -0.285 N 
ATOM      2  C   UNL     1       5.547  -4.992   1.742  0.00  0.00    +0.227 C 
ATOM      3  O   UNL     1       5.672  -5.190   0.552  0.00  0.00    -0.275 OA
ATOM      4  H   UNL     1       4.835  -3.710   3.127  0.00  0.00    +0.155 HD
ENDROOT
BRANCH   1   8
ATOM      5  C   UNL     1       2.965  -1.405  -0.551  0.00  0.00    +0.105 A 
ATOM      6  C   UNL     1       3.057  -2.761  -0.806  0.00  0.00    +0.030 A 
ATOM      7  C   UNL     1       3.689  -3.594   0.097  0.00  0.00    +0.025 A 
ATOM      8  C   UNL     1       4.233  -3.067   1.261  0.00  0.00    +0.034 A 
ATOM      9  C   UNL     1       4.139  -1.705   1.514  0.00  0.00    +0.025 A 
ATOM     10  C   UNL     1       3.510  -0.877   0.605  0.00  0.00    +0.030 A 
BRANCH   5  11
ATOM     11  S   UNL     1       2.157  -0.347  -1.705  0.00  0.00    +0.059 S 
ATOM     12  O   UNL     1       1.928   0.885  -1.035  0.00  0.00    -0.153 OA
ATOM     13  O   UNL     1       1.104  -1.106  -2.284  0.00  0.00    -0.153 OA
BRANCH  11  14
ATOM     14  N   UNL     1       3.237  -0.032  -2.920  0.00  0.00    -0.185 NA
ATOM     15  H   UNL     1       3.083  -0.386  -3.810  0.00  0.00    +0.149 HD
BRANCH  14  17
ATOM     16  C   UNL     1       5.151   0.234  -1.421  0.00  0.00    +0.029 C 
ATOM     17  C   UNL     1       4.425   0.782  -2.651  0.00  0.00    +0.032 C 
ATOM     18  C   UNL     1       4.003   2.230  -2.392  0.00  0.00    +0.029 C 
ATOM     19  C   UNL     1       5.362   0.733  -3.860  0.00  0.00    +0.029 C 
ENDBRANCH  14  17
ENDBRANCH  11  14
ENDBRANCH   5  11
ENDBRANCH   1   8
BRANCH   2  20
ATOM     20  C   UNL     1       6.143  -5.957   2.734  0.00  0.00    +0.173 C 
BRANCH  20  21
ATOM     21  S   UNL     1       6.977  -7.300   1.844  0.00  0.00    -0.076 S 
BRANCH  21  22
ATOM     22  C   UNL     1       7.613  -8.330   3.125  0.00  0.00    +0.197 A 
ATOM     23  N   UNL     1       7.483  -8.136   4.418  0.00  0.00    -0.122 NA
ATOM     24  N   UNL     1       8.068  -9.078   5.068  0.00  0.00    -0.128 NA
ATOM     25  C   UNL     1       8.608  -9.933   4.231  0.00  0.00    +0.169 A 
ATOM     26  N   UNL     1       8.328  -9.484   2.958  0.00  0.00    -0.270 N 
BRANCH  26  27
ATOM     27  C   UNL     1       8.702 -10.082   1.747  0.00  0.00    +0.051 A 
ATOM     28  C   UNL     1       8.187 -11.323   1.397  0.00  0.00    +0.026 A 
ATOM     29  C   UNL     1       8.557 -11.911   0.203  0.00  0.00    +0.002 A 
ATOM     30  C   UNL     1       9.439 -11.264  -0.643  0.00  0.00    +0.000 A 
ATOM     31  C   UNL     1       9.953 -10.028  -0.297  0.00  0.00    +0.002 A 
ATOM     32  C   UNL     1       9.582  -9.433   0.893  0.00  0.00    +0.026 A 
ENDBRANCH  26  27
BRANCH  25  33
ATOM     33  C   UNL     1       9.367 -11.150   4.586  0.00  0.00    +0.020 A 
ATOM     34  C   UNL     1      10.151 -11.793   3.626  0.00  0.00    +0.011 A 
ATOM     35  C   UNL     1      10.857 -12.928   3.964  0.00  0.00    +0.001 A 
ATOM     36  C   UNL     1      10.790 -13.430   5.252  0.00  0.00    +0.000 A 
ATOM     37  C   UNL     1      10.015 -12.798   6.208  0.00  0.00    +0.001 A 
ATOM     38  C   UNL     1       9.309 -11.659   5.885  0.00  0.00    +0.011 A 
ENDBRANCH  25  33
ENDBRANCH  21  22
ENDBRANCH  20  21
ENDBRANCH   2  20
TORSDOF 9
