REMARK  Name = ZINC39665732
REMARK  13 active torsions:
REMARK  status: ('A' for Active; 'I' for Inactive)
REMARK    1  A    between atoms: C_1  and  C_2
REMARK    2  A    between atoms: C_3  and  C_12
REMARK    3  A    between atoms: C_7  and  O_8
REMARK    4  A    between atoms: O_8  and  C_9
REMARK    5  A    between atoms: C_9  and  C_11
REMARK    6  A    between atoms: C_16  and  C_25
REMARK    7  A    between atoms: N_27  and  C_28
REMARK    8  A    between atoms: C_28  and  C_29
REMARK    9  A    between atoms: C_29  and  C_31
REMARK   10  A    between atoms: C_29  and  O_32
REMARK   11  A    between atoms: O_32  and  C_33
REMARK   12  A    between atoms: C_36  and  O_39
REMARK   13  A    between atoms: O_39  and  C_40
REMARK                            x       y       z     vdW  Elec       q    Type
REMARK                         _______ _______ _______ _____ _____    ______ ____
ROOT
ATOM      1  C   UNL     1       0.112  -0.066  -2.556  0.00  0.00    +0.247 C 
ATOM      2  O   UNL     1       0.209   1.139  -2.677  0.00  0.00    -0.270 OA
ATOM      3  N   UNL     1      -0.176  -0.830  -3.629  0.00  0.00    -0.296 N 
ATOM      4  C   UNL     1      -0.458  -2.284  -3.660  0.00  0.00    +0.121 C 
ATOM      5  C   UNL     1      -1.597  -2.439  -4.692  0.00  0.00    +0.100 C 
ATOM      6  C   UNL     1      -1.475  -1.204  -5.600  0.00  0.00    -0.004 C 
ATOM      7  C   UNL     1      -0.289  -0.402  -5.045  0.00  0.00    +0.115 C 
ATOM      8  C   UNL     1      -1.200  -1.629  -7.038  0.00  0.00    -0.010 C 
ATOM      9  C   UNL     1      -1.141  -0.387  -7.931  0.00  0.00    -0.082 C 
ATOM     10  N   UNL     1      -2.415   0.338  -7.850  0.00  0.00    +0.379 N 
ATOM     11  C   UNL     1      -2.628   0.824  -6.481  0.00  0.00    -0.082 C 
ATOM     12  C   UNL     1      -2.749  -0.368  -5.527  0.00  0.00    -0.010 C 
ATOM     13  H   UNL     1      -2.396   1.121  -8.485  0.00  0.00    -0.086 HD
ATOM     14  H   UNL     1      -3.169  -0.281  -8.106  0.00  0.00    -0.086 HD
ENDROOT
BRANCH   1  17
ATOM     15  C   UNL     1      -0.782   1.308  -0.172  0.00  0.00    +0.048 C 
ATOM     16  C   UNL     1      -0.119  -0.042  -0.077  0.00  0.00    +0.004 A 
ATOM     17  C   UNL     1       0.309  -0.695  -1.233  0.00  0.00    +0.043 A 
ATOM     18  C   UNL     1       0.923  -1.945  -1.136  0.00  0.00    +0.013 A 
ATOM     19  C   UNL     1       1.105  -2.530   0.101  0.00  0.00    +0.004 A 
ATOM     20  C   UNL     1       0.680  -1.881   1.246  0.00  0.00    +0.047 A 
ATOM     21  C   UNL     1       0.073  -0.635   1.160  0.00  0.00    +0.135 A 
BRANCH  21  22
ATOM     22  O   UNL     1      -0.337  -0.000   2.289  0.00  0.00    -0.426 OA
BRANCH  22  23
ATOM     23  C   UNL     1       0.410   1.016   2.748  0.00  0.00    +0.309 C 
ATOM     24  O   UNL     1       1.462   1.282   2.214  0.00  0.00    -0.251 OA
ATOM     25  C   UNL     1      -0.062   1.827   3.927  0.00  0.00    +0.136 C 
ENDBRANCH  22  23
ENDBRANCH  21  22
ENDBRANCH   1  17
BRANCH   5  26
ATOM     26  C   UNL     1      -1.410  -3.702  -5.494  0.00  0.00    +0.218 C 
ATOM     27  O   UNL     1      -0.302  -4.178  -5.627  0.00  0.00    -0.275 OA
ATOM     28  N   UNL     1      -2.474  -4.303  -6.062  0.00  0.00    -0.312 N 
ATOM     29  H   UNL     1      -3.360  -3.923  -5.956  0.00  0.00    +0.149 HD
BRANCH  28  30
ATOM     30  C   UNL     1      -2.292  -5.530  -6.841  0.00  0.00    +0.148 C 
BRANCH  30  31
ATOM     31  C   UNL     1      -3.647  -6.002  -7.373  0.00  0.00    +0.187 C 
ATOM     32  C   UNL     1      -3.457  -7.284  -8.186  0.00  0.00    +0.053 C 
BRANCH  31  33
ATOM     33  O   UNL     1      -4.526  -6.260  -6.275  0.00  0.00    -0.488 OA
BRANCH  33  34
ATOM     34  C   UNL     1      -5.860  -6.176  -6.520  0.00  0.00    +0.121 A 
ATOM     35  C   UNL     1      -6.766  -6.300  -5.477  0.00  0.00    +0.049 A 
ATOM     36  C   UNL     1      -8.122  -6.215  -5.726  0.00  0.00    +0.049 A 
ATOM     37  C   UNL     1      -8.578  -6.006  -7.019  0.00  0.00    +0.120 A 
ATOM     38  C   UNL     1      -7.673  -5.882  -8.062  0.00  0.00    +0.049 A 
ATOM     39  C   UNL     1      -6.316  -5.962  -7.813  0.00  0.00    +0.049 A 
BRANCH  37  40
ATOM     40  O   UNL     1      -9.913  -5.923  -7.264  0.00  0.00    -0.495 OA
ATOM     41  C   UNL     1     -10.312  -5.707  -8.619  0.00  0.00    +0.277 C 
ENDBRANCH  37  40
ENDBRANCH  33  34
ENDBRANCH  31  33
ENDBRANCH  30  31
ENDBRANCH  28  30
ENDBRANCH   5  26
TORSDOF 9
