REMARK  Name = ZINC39937772
REMARK  7 active torsions:
REMARK  status: ('A' for Active; 'I' for Inactive)
REMARK    1  A    between atoms: C_1  and  C_2
REMARK    2  A    between atoms: C_2  and  C_4
REMARK    3  A    between atoms: C_2  and  S_15
REMARK    4  A    between atoms: N_6  and  C_7
REMARK    5  A    between atoms: S_15  and  C_16
REMARK    6  A    between atoms: C_20  and  C_25
REMARK    7  A    between atoms: N_21  and  C_22
REMARK                            x       y       z     vdW  Elec       q    Type
REMARK                         _______ _______ _______ _____ _____    ______ ____
ROOT
ATOM      1  C   UNL     1       2.372  -0.119  -0.998  0.00  0.00    +0.238 C 
ATOM      2  N   UNL     1       2.981  -0.723   0.200  0.00  0.00    -0.237 N 
ATOM      3  N   UNL     1       3.598   0.320   0.900  0.00  0.00    -0.169 NA
ATOM      4  C   UNL     1       3.441   1.463   0.286  0.00  0.00    +0.147 C 
ATOM      5  N   UNL     1       2.704   1.311  -0.894  0.00  0.00    -0.282 N 
ATOM      6  H   UNL     1       2.958  -1.659   0.453  0.00  0.00    +0.171 HD
ENDROOT
BRANCH   4   7
ATOM      7  C   UNL     1       3.949   2.686   0.750  0.00  0.00    +0.022 C 
ATOM      8  C   UNL     1       4.773   2.892   1.856  0.00  0.00    +0.006 A 
ATOM      9  C   UNL     1       5.331   2.011   2.807  0.00  0.00    +0.010 A 
ATOM     10  C   UNL     1       6.116   2.501   3.801  0.00  0.00    +0.001 A 
ATOM     11  C   UNL     1       6.389   3.866   3.911  0.00  0.00    +0.002 A 
ATOM     12  C   UNL     1       5.886   4.769   3.033  0.00  0.00    +0.026 A 
ATOM     13  C   UNL     1       5.058   4.332   1.968  0.00  0.00    +0.043 A 
ATOM     14  N   UNL     1       4.458   4.997   1.000  0.00  0.00    -0.380 N 
ATOM     15  C   UNL     1       3.721   4.056   0.150  0.00  0.00    +0.152 C 
ATOM     16  H   UNL     1       4.500   5.957   0.869  0.00  0.00    +0.160 HD
ENDBRANCH   4   7
BRANCH   5  17
ATOM     17  C   UNL     1       2.333   2.366  -1.841  0.00  0.00    +0.078 C 
ATOM     18  C   UNL     1       1.463   1.970  -3.036  0.00  0.00    +0.024 C 
ATOM     19  C   UNL     1       2.942   2.304  -3.243  0.00  0.00    +0.024 C 
ENDBRANCH   5  17
BRANCH   1  20
ATOM     20  S   UNL     1       0.574  -0.357  -0.983  0.00  0.00    -0.106 S 
BRANCH  20  22
ATOM     21  C   UNL     1       0.139   1.871   0.543  0.00  0.00    +0.029 C 
ATOM     22  C   UNL     1       0.051   0.345   0.606  0.00  0.00    +0.133 C 
BRANCH  22  23
ATOM     23  C   UNL     1      -1.370  -0.065   0.893  0.00  0.00    +0.230 C 
ATOM     24  O   UNL     1      -2.089  -0.436  -0.011  0.00  0.00    -0.274 OA
ATOM     25  N   UNL     1      -1.843  -0.019   2.154  0.00  0.00    -0.282 N 
ATOM     26  H   UNL     1      -1.292   0.341   2.866  0.00  0.00    +0.155 HD
BRANCH  25  27
ATOM     27  C   UNL     1      -3.130  -0.493   2.437  0.00  0.00    +0.072 A 
ATOM     28  C   UNL     1      -3.758  -1.367   1.560  0.00  0.00    +0.064 A 
ATOM     29  C   UNL     1      -5.030  -1.833   1.843  0.00  0.00    +0.125 A 
ATOM     30  C   UNL     1      -5.676  -1.429   2.999  0.00  0.00    +0.041 A 
ATOM     31  C   UNL     1      -5.053  -0.558   3.874  0.00  0.00    +0.043 A 
ATOM     32  C   UNL     1      -3.780  -0.093   3.600  0.00  0.00    +0.145 A 
ATOM     33  F   UNL     1      -3.170   0.753   4.458  0.00  0.00    -0.204 F 
ATOM     34  F   UNL     1      -5.642  -2.683   0.989  0.00  0.00    -0.205 F 
ENDBRANCH  25  27
ENDBRANCH  22  23
ENDBRANCH  20  22
ENDBRANCH   1  20
TORSDOF 6
