REMARK  Name = ZINC22809944
REMARK  7 active torsions:
REMARK  status: ('A' for Active; 'I' for Inactive)
REMARK    1  A    between atoms: C_3  and  C_6
REMARK    2  A    between atoms: C_6  and  C_8
REMARK    3  A    between atoms: C_6  and  N_15
REMARK    4  A    between atoms: C_16  and  C_18
REMARK    5  A    between atoms: C_18  and  N_19
REMARK    6  A    between atoms: N_22  and  C_25
REMARK    7  A    between atoms: C_25  and  C_26
REMARK                            x       y       z     vdW  Elec       q    Type
REMARK                         _______ _______ _______ _____ _____    ______ ____
ROOT
ATOM      1  C   UNL     1       5.160   0.696   3.040  0.00  0.00    +0.180 C 
ENDROOT
BRANCH   1   2
ATOM      2  N   UNL     1       5.138   1.096   4.454  0.00  0.00    -0.292 NA
ATOM      3  C   UNL     1       5.709   2.438   4.631  0.00  0.00    +0.100 C 
ATOM      4  C   UNL     1       5.595   2.848   6.101  0.00  0.00    +0.100 C 
ATOM      5  N   UNL     1       6.298   1.865   6.937  0.00  0.00    -0.294 NA
ATOM      6  C   UNL     1       5.727   0.523   6.760  0.00  0.00    +0.100 C 
ATOM      7  C   UNL     1       5.841   0.113   5.290  0.00  0.00    +0.100 C 
BRANCH   5   8
ATOM      8  C   UNL     1       6.276   2.265   8.351  0.00  0.00    +0.137 C 
BRANCH   8   9
ATOM      9  C   UNL     1       7.261   3.383   8.572  0.00  0.00    +0.037 A 
ATOM     10  C   UNL     1       6.827   4.636   8.948  0.00  0.00    +0.093 A 
ATOM     11  C   UNL     1       7.755   5.659   9.149  0.00  0.00    +0.259 A 
ATOM     12  O   UNL     1       7.376   6.771   9.482  0.00  0.00    -0.267 OA
ATOM     13  N   UNL     1       9.088   5.415   8.973  0.00  0.00    -0.264 N 
ATOM     14  C   UNL     1      10.116   6.313   9.133  0.00  0.00    +0.104 A 
ATOM     15  C   UNL     1      11.383   5.951   8.930  0.00  0.00    +0.067 A 
ATOM     16  S   UNL     1      11.204   4.232   8.478  0.00  0.00    -0.059 S 
ATOM     17  C   UNL     1       9.431   4.143   8.600  0.00  0.00    +0.158 A 
ATOM     18  N   UNL     1       8.566   3.177   8.414  0.00  0.00    -0.338 N 
ATOM     19  H   UNL     1       8.882   2.297   8.154  0.00  0.00    +0.168 HD
ENDBRANCH   8   9
ENDBRANCH   5   8
ENDBRANCH   1   2
BRANCH   1  21
ATOM     20  N   UNL     1       4.089   1.401   0.925  0.00  0.00    -0.303 N 
ATOM     21  C   UNL     1       4.231   1.584   2.253  0.00  0.00    +0.228 C 
ATOM     22  O   UNL     1       3.611   2.463   2.814  0.00  0.00    -0.274 OA
ATOM     23  H   UNL     1       4.585   0.699   0.476  0.00  0.00    +0.150 HD
BRANCH  20  24
ATOM     24  C   UNL     1       3.186   2.264   0.160  0.00  0.00    +0.140 C 
BRANCH  24  25
ATOM     25  C   UNL     1       3.629   2.304  -1.280  0.00  0.00    -0.022 A 
ATOM     26  C   UNL     1       4.073   1.150  -1.898  0.00  0.00    +0.008 A 
ATOM     27  C   UNL     1       4.480   1.185  -3.218  0.00  0.00    +0.038 A 
ATOM     28  C   UNL     1       4.441   2.376  -3.923  0.00  0.00    +0.123 A 
ATOM     29  C   UNL     1       3.996   3.531  -3.303  0.00  0.00    +0.038 A 
ATOM     30  C   UNL     1       3.585   3.493  -1.984  0.00  0.00    +0.008 A 
ATOM     31  F   UNL     1       4.838   2.411  -5.214  0.00  0.00    -0.205 F 
ENDBRANCH  24  25
BRANCH  24  34
ATOM     32  C   UNL     1      -0.568   1.674   0.425  0.00  0.00    +0.008 A 
ATOM     33  C   UNL     1       0.613   2.390   0.375  0.00  0.00    +0.013 A 
ATOM     34  C   UNL     1       1.783   1.719   0.239  0.00  0.00    +0.014 A 
ATOM     35  S   UNL     1       1.231   0.023   0.176  0.00  0.00    -0.099 S 
ATOM     36  C   UNL     1      -0.522   0.322   0.337  0.00  0.00    +0.045 A 
ENDBRANCH  24  34
ENDBRANCH  20  24
ENDBRANCH   1  21
TORSDOF 7
