REMARK  Name = ZINC34791246
REMARK  13 active torsions:
REMARK  status: ('A' for Active; 'I' for Inactive)
REMARK    1  A    between atoms: C_1  and  C_2
REMARK    2  A    between atoms: C_2  and  N_3
REMARK    3  A    between atoms: C_6  and  C_11
REMARK    4  A    between atoms: C_15  and  O_17
REMARK    5  A    between atoms: O_17  and  C_18
REMARK    6  A    between atoms: N_26  and  C_28
REMARK    7  A    between atoms: C_28  and  C_30
REMARK    8  A    between atoms: C_28  and  C_34
REMARK    9  A    between atoms: C_30  and  C_31
REMARK   10  A    between atoms: C_31  and  C_32
REMARK   11  A    between atoms: C_31  and  C_33
REMARK   12  A    between atoms: N_36  and  C_37
REMARK   13  A    between atoms: C_37  and  C_38
REMARK                            x       y       z     vdW  Elec       q    Type
REMARK                         _______ _______ _______ _____ _____    ______ ____
ROOT
ATOM      1  N   UNL     1       0.729  -1.287   1.965  0.00  0.00    -0.257 N 
ATOM      2  C   UNL     1       2.026  -1.102   1.579  0.00  0.00    +0.042 C 
ATOM      3  C   UNL     1       3.021  -1.023   2.485  0.00  0.00    +0.058 C 
ATOM      4  C   UNL     1       2.652  -1.148   3.949  0.00  0.00    +0.142 C 
ATOM      5  N   UNL     1       1.227  -1.345   4.263  0.00  0.00    -0.288 N 
ATOM      6  C   UNL     1       0.346  -1.398   3.244  0.00  0.00    +0.307 C 
ATOM      7  O   UNL     1      -0.833  -1.557   3.493  0.00  0.00    -0.252 OA
ATOM      8  C   UNL     1       4.259  -0.832   1.838  0.00  0.00    +0.247 C 
ATOM      9  O   UNL     1       5.327  -0.727   2.414  0.00  0.00    -0.270 OA
ATOM     10  N   UNL     1       4.107  -0.781   0.502  0.00  0.00    -0.281 N 
ATOM     11  C   UNL     1       2.674  -0.948   0.221  0.00  0.00    +0.160 C 
ATOM     12  H   UNL     1       0.928  -1.432   5.182  0.00  0.00    +0.151 HD
ENDROOT
BRANCH   4  13
ATOM     13  C   UNL     1       3.113   0.103   4.653  0.00  0.00    -0.019 A 
ATOM     14  C   UNL     1       2.353   1.256   4.580  0.00  0.00    +0.006 A 
ATOM     15  C   UNL     1       2.772   2.405   5.225  0.00  0.00    +0.004 A 
ATOM     16  C   UNL     1       3.953   2.404   5.943  0.00  0.00    +0.046 A 
ATOM     17  C   UNL     1       4.717   1.249   6.017  0.00  0.00    +0.129 A 
ATOM     18  C   UNL     1       4.291   0.095   5.374  0.00  0.00    +0.052 A 
BRANCH  17  19
ATOM     19  O   UNL     1       5.878   1.245   6.722  0.00  0.00    -0.456 OA
BRANCH  19  20
ATOM     20  C   UNL     1       6.562   0.075   6.820  0.00  0.00    +0.128 A 
ATOM     21  C   UNL     1       7.369  -0.348   5.773  0.00  0.00    +0.046 A 
ATOM     22  C   UNL     1       8.063  -1.538   5.875  0.00  0.00    +0.004 A 
ATOM     23  C   UNL     1       7.953  -2.308   7.018  0.00  0.00    +0.000 A 
ATOM     24  C   UNL     1       7.149  -1.890   8.062  0.00  0.00    +0.004 A 
ATOM     25  C   UNL     1       6.458  -0.697   7.968  0.00  0.00    +0.046 A 
ENDBRANCH  19  20
ENDBRANCH  17  19
ENDBRANCH   4  13
BRANCH   1  27
ATOM     26  C   UNL     1      -0.835   0.041   0.635  0.00  0.00    +0.025 C 
ATOM     27  C   UNL     1      -0.300  -1.362   0.925  0.00  0.00    +0.111 C 
ENDBRANCH   1  27
BRANCH  10  28
ATOM     28  C   UNL     1       5.171  -0.593  -0.487  0.00  0.00    +0.163 C 
BRANCH  28  29
ATOM     29  C   UNL     1       6.074  -1.800  -0.489  0.00  0.00    +0.234 C 
ATOM     30  O   UNL     1       5.850  -2.725   0.262  0.00  0.00    -0.274 OA
ATOM     31  N   UNL     1       7.129  -1.850  -1.325  0.00  0.00    -0.303 N 
ATOM     32  H   UNL     1       7.308  -1.110  -1.926  0.00  0.00    +0.150 HD
BRANCH  31  33
ATOM     33  C   UNL     1       8.007  -3.024  -1.327  0.00  0.00    +0.193 C 
BRANCH  33  34
ATOM     34  C   UNL     1       9.076  -2.835  -2.321  0.00  0.00    -0.087 C 
ATOM     35  C   UNL     1       9.928  -2.685  -3.114  0.00  0.00    +0.005 C 
ENDBRANCH  33  34
ENDBRANCH  31  33
ENDBRANCH  28  29
BRANCH  28  36
ATOM     36  C   UNL     1       5.986   0.652  -0.130  0.00  0.00    +0.035 C 
BRANCH  36  37
ATOM     37  C   UNL     1       5.113   1.898  -0.298  0.00  0.00    -0.015 C 
ATOM     38  C   UNL     1       3.999   1.885   0.751  0.00  0.00    +0.007 C 
ATOM     39  C   UNL     1       5.971   3.151  -0.115  0.00  0.00    +0.007 C 
ENDBRANCH  36  37
ENDBRANCH  28  36
ENDBRANCH  10  28
TORSDOF 10
