REMARK  Name = ZINC33058926
REMARK  6 active torsions:
REMARK  status: ('A' for Active; 'I' for Inactive)
REMARK    1  A    between atoms: C_1  and  C_2
REMARK    2  A    between atoms: C_3  and  S_16
REMARK    3  A    between atoms: C_4  and  C_7
REMARK    4  A    between atoms: C_8  and  C_9
REMARK    5  A    between atoms: S_16  and  N_19
REMARK    6  A    between atoms: C_22  and  C_25
REMARK                            x       y       z     vdW  Elec       q    Type
REMARK                         _______ _______ _______ _____ _____    ______ ____
ROOT
ATOM      1  N   UNL     1      -6.112   2.425   1.934  0.00  0.00    -0.176 NA
ATOM      2  C   UNL     1      -5.431   2.757   3.193  0.00  0.00    +0.110 C 
ATOM      3  C   UNL     1      -4.195   3.606   2.877  0.00  0.00    +0.030 C 
ATOM      4  C   UNL     1      -3.319   2.866   1.863  0.00  0.00    +0.078 C 
ATOM      5  C   UNL     1      -4.103   2.654   0.567  0.00  0.00    +0.030 C 
ATOM      6  C   UNL     1      -5.338   1.793   0.857  0.00  0.00    +0.110 C 
ENDROOT
BRANCH   4   7
ATOM      7  C   UNL     1      -2.086   3.684   1.576  0.00  0.00    +0.223 C 
ATOM      8  O   UNL     1      -1.924   4.752   2.126  0.00  0.00    -0.275 OA
ATOM      9  N   UNL     1      -1.163   3.227   0.706  0.00  0.00    -0.261 N 
ATOM     10  C   UNL     1      -1.335   1.935   0.019  0.00  0.00    +0.209 C 
ATOM     11  C   UNL     1      -0.014   1.209   0.009  0.00  0.00    +0.235 C 
ATOM     12  O   UNL     1       0.002  -0.004   0.002  0.00  0.00    -0.274 OA
ATOM     13  N   UNL     1       1.147   1.890   0.001  0.00  0.00    -0.283 N 
ATOM     14  C   UNL     1       1.157   3.288   0.059  0.00  0.00    +0.055 A 
ATOM     15  C   UNL     1      -0.006   3.970   0.421  0.00  0.00    +0.058 A 
ATOM     16  C   UNL     1      -0.009   5.351   0.489  0.00  0.00    +0.025 A 
ATOM     17  C   UNL     1       1.144   6.056   0.192  0.00  0.00    +0.002 A 
ATOM     18  C   UNL     1       2.296   5.383  -0.172  0.00  0.00    +0.002 A 
ATOM     19  C   UNL     1       2.306   4.001  -0.238  0.00  0.00    +0.025 A 
ATOM     20  H   UNL     1       2.103   1.347  -0.050  0.00  0.00    +0.155 HD
ENDBRANCH   4   7
BRANCH   1  21
ATOM     21  S   UNL     1      -7.721   2.758   1.733  0.00  0.00    +0.066 S 
ATOM     22  O   UNL     1      -8.198   1.868   0.733  0.00  0.00    -0.153 OA
ATOM     23  O   UNL     1      -8.290   2.818   3.034  0.00  0.00    -0.153 OA
BRANCH  21  26
ATOM     24  C   UNL     1      -7.977   5.792   3.244  0.00  0.00    +0.071 C 
ATOM     25  C   UNL     1      -7.941   5.604   1.749  0.00  0.00    +0.107 A 
ATOM     26  C   UNL     1      -7.837   4.382   1.058  0.00  0.00    +0.174 A 
ATOM     27  C   UNL     1      -7.853   4.751  -0.266  0.00  0.00    +0.187 A 
ATOM     28  O   UNL     1      -7.954   6.093  -0.277  0.00  0.00    -0.353 OA
ATOM     29  N   UNL     1      -7.998   6.542   0.845  0.00  0.00    -0.081 NA
BRANCH  27  30
ATOM     30  C   UNL     1      -7.775   3.863  -1.429  0.00  0.00    +0.052 C 
ATOM     31  C   UNL     1      -7.803   4.379  -2.673  0.00  0.00    +0.014 C 
BRANCH  31  32
ATOM     32  C   UNL     1      -7.724   3.487  -3.842  0.00  0.00    +0.010 A 
ATOM     33  C   UNL     1      -7.621   2.104  -3.665  0.00  0.00    +0.011 A 
ATOM     34  C   UNL     1      -7.548   1.275  -4.764  0.00  0.00    +0.001 A 
ATOM     35  C   UNL     1      -7.577   1.808  -6.042  0.00  0.00    +0.003 A 
ATOM     36  C   UNL     1      -7.679   3.174  -6.227  0.00  0.00    +0.039 A 
ATOM     37  C   UNL     1      -7.759   4.019  -5.136  0.00  0.00    +0.131 A 
ATOM     38  F   UNL     1      -7.864   5.353  -5.318  0.00  0.00    -0.205 F 
ENDBRANCH  31  32
ENDBRANCH  27  30
ENDBRANCH  21  26
ENDBRANCH   1  21
TORSDOF 5
