REMARK  Name = ZINC59200651
REMARK  6 active torsions:
REMARK  status: ('A' for Active; 'I' for Inactive)
REMARK    1  A    between atoms: C_5  and  C_7
REMARK    2  A    between atoms: C_10  and  S_12
REMARK    3  A    between atoms: S_12  and  C_13
REMARK    4  A    between atoms: C_13  and  C_14
REMARK    5  A    between atoms: N_16  and  C_17
REMARK    6  A    between atoms: C_22  and  O_23
REMARK                            x       y       z     vdW  Elec       q    Type
REMARK                         _______ _______ _______ _____ _____    ______ ____
ROOT
ATOM      1  S   UNL     1      -0.293  -5.721  -0.061  0.00  0.00    -0.056 S 
ENDROOT
BRANCH   1   5
ATOM      2  C   UNL     1       1.246  -2.159  -0.081  0.00  0.00    +0.250 A 
ATOM      3  N   UNL     1       2.317  -2.915  -0.087  0.00  0.00    -0.106 NA
ATOM      4  N   UNL     1       1.967  -4.153  -0.082  0.00  0.00    -0.101 NA
ATOM      5  C   UNL     1       0.657  -4.237  -0.072  0.00  0.00    +0.278 A 
ATOM      6  O   UNL     1       0.173  -2.980  -0.066  0.00  0.00    -0.411 OA
BRANCH   2  11
ATOM      7  C   UNL     1      -0.022   1.375  -0.075  0.00  0.00    +0.001 A 
ATOM      8  C   UNL     1       1.165   2.087  -0.091  0.00  0.00    +0.001 A 
ATOM      9  C   UNL     1       2.377   1.423  -0.104  0.00  0.00    +0.016 A 
ATOM     10  C   UNL     1       2.412   0.042  -0.101  0.00  0.00    +0.030 A 
ATOM     11  C   UNL     1       1.218  -0.682  -0.085  0.00  0.00    +0.052 A 
ATOM     12  C   UNL     1      -0.003  -0.004  -0.072  0.00  0.00    +0.014 A 
ATOM     13 BR   UNL     1       4.071  -0.865  -0.120  0.00  0.00    -0.050 Br
ENDBRANCH   2  11
ENDBRANCH   1   5
BRANCH   1  14
ATOM     14  C   UNL     1       0.953  -7.039  -0.066  0.00  0.00    +0.175 C 
BRANCH  14  15
ATOM     15  C   UNL     1       0.265  -8.380  -0.057  0.00  0.00    +0.228 C 
ATOM     16  O   UNL     1      -0.946  -8.441  -0.049  0.00  0.00    -0.275 OA
ATOM     17  N   UNL     1       0.996  -9.513  -0.059  0.00  0.00    -0.282 N 
ATOM     18  H   UNL     1       1.962  -9.466  -0.131  0.00  0.00    +0.155 HD
BRANCH  17  19
ATOM     19  C   UNL     1       0.360 -10.757   0.043  0.00  0.00    +0.075 A 
ATOM     20  C   UNL     1      -0.882 -10.954  -0.543  0.00  0.00    +0.027 A 
ATOM     21  C   UNL     1      -1.507 -12.182  -0.441  0.00  0.00    +0.002 A 
ATOM     22  C   UNL     1      -0.897 -13.217   0.244  0.00  0.00    +0.004 A 
ATOM     23  C   UNL     1       0.341 -13.029   0.830  0.00  0.00    +0.047 A 
ATOM     24  C   UNL     1       0.976 -11.802   0.728  0.00  0.00    +0.138 A 
BRANCH  24  25
ATOM     25  O   UNL     1       2.196 -11.617   1.300  0.00  0.00    -0.505 OA
ATOM     26  H   UNL     1       2.159 -11.302   2.213  0.00  0.00    +0.292 HD
ENDBRANCH  24  25
ENDBRANCH  17  19
ENDBRANCH  14  15
ENDBRANCH   1  14
TORSDOF 6
