REMARK  Name = ZINC12320289
REMARK  5 active torsions:
REMARK  status: ('A' for Active; 'I' for Inactive)
REMARK    1  A    between atoms: C_1  and  C_2
REMARK    2  A    between atoms: C_6  and  C_8
REMARK    3  A    between atoms: C_22  and  C_23
REMARK    4  A    between atoms: C_22  and  N_57
REMARK    5  A    between atoms: N_26  and  C_28
REMARK                            x       y       z     vdW  Elec       q    Type
REMARK                         _______ _______ _______ _____ _____    ______ ____
ROOT
ATOM      1  C   UNL     1       0.077   5.302   0.031  0.00  0.00    +0.030 C 
ATOM      2  C   UNL     1      -0.019   5.804   1.452  0.00  0.00    +0.012 A 
ATOM      3  C   UNL     1       0.759   6.800   1.935  0.00  0.00    -0.022 A 
ATOM      4  C   UNL     1       0.386   7.000   3.318  0.00  0.00    +0.003 A 
ATOM      5  C   UNL     1       0.840   7.878   4.308  0.00  0.00    +0.010 A 
ATOM      6  C   UNL     1       0.240   7.788   5.540  0.00  0.00    +0.001 A 
ATOM      7  C   UNL     1      -0.768   6.876   5.803  0.00  0.00    +0.002 A 
ATOM      8  C   UNL     1      -1.237   5.996   4.843  0.00  0.00    +0.026 A 
ATOM      9  C   UNL     1      -0.647   6.064   3.583  0.00  0.00    +0.047 A 
ATOM     10  N   UNL     1      -0.863   5.359   2.432  0.00  0.00    -0.359 N 
ATOM     11  H   UNL     1      -1.517   4.651   2.326  0.00  0.00    +0.166 HD
ATOM     12  C   UNL     1       1.799   7.517   1.112  0.00  0.00    +0.019 C 
ATOM     13  C   UNL     1       1.527   7.211  -0.367  0.00  0.00    -0.072 C 
ATOM     14  N   UNL     1       1.376   5.747  -0.528  0.00  0.00    +0.392 N 
ATOM     15  H   UNL     1       2.135   5.277  -0.021  0.00  0.00    -0.080 HD
ENDROOT
BRANCH   1  21
ATOM     16  C   UNL     1       2.485   1.057  -0.016  0.00  0.00    +0.065 C 
ATOM     17  C   UNL     1       1.170   1.792   0.001  0.00  0.00    +0.038 A 
ATOM     18  C   UNL     1      -0.013   1.076   0.008  0.00  0.00    +0.023 A 
ATOM     19  C   UNL     1      -1.217   1.761   0.017  0.00  0.00    +0.003 A 
ATOM     20  C   UNL     1      -1.188   3.148   0.031  0.00  0.00    +0.022 A 
ATOM     21  C   UNL     1       0.033   3.795   0.023  0.00  0.00    +0.034 A 
ATOM     22  N   UNL     1       1.160   3.110   0.008  0.00  0.00    -0.258 NA
ENDBRANCH   1  21
BRANCH  14  23
ATOM     23  C   UNL     1       1.459   5.387  -1.958  0.00  0.00    -0.038 C 
BRANCH  23  24
ATOM     24  C   UNL     1       2.648   6.078  -2.573  0.00  0.00    -0.026 A 
ATOM     25  C   UNL     1       2.641   7.330  -3.196  0.00  0.00    +0.136 A 
ATOM     26  N   UNL     1       3.858   7.594  -3.599  0.00  0.00    -0.175 NA
ATOM     27  N   UNL     1       4.678   6.512  -3.254  0.00  0.00    -0.240 N 
ATOM     28  C   UNL     1       3.911   5.594  -2.625  0.00  0.00    +0.116 A 
BRANCH  27  29
ATOM     29  C   UNL     1       6.052   6.401  -3.515  0.00  0.00    +0.066 A 
ATOM     30  C   UNL     1       6.747   5.270  -3.111  0.00  0.00    +0.030 A 
ATOM     31  C   UNL     1       8.098   5.160  -3.373  0.00  0.00    +0.040 A 
ATOM     32  C   UNL     1       8.762   6.183  -4.030  0.00  0.00    +0.124 A 
ATOM     33  C   UNL     1       8.072   7.314  -4.430  0.00  0.00    +0.040 A 
ATOM     34  C   UNL     1       6.719   7.425  -4.174  0.00  0.00    +0.030 A 
ATOM     35  F   UNL     1      10.086   6.076  -4.281  0.00  0.00    -0.205 F 
ENDBRANCH  27  29
ENDBRANCH  23  24
ENDBRANCH  14  23
TORSDOF 4
