REMARK  Name = ZINC20347782
REMARK  11 active torsions:
REMARK  status: ('A' for Active; 'I' for Inactive)
REMARK    1  A    between atoms: C_1  and  C_2
REMARK    2  A    between atoms: C_6  and  N_8
REMARK    3  A    between atoms: C_9  and  C_11
REMARK    4  A    between atoms: C_11  and  S_12
REMARK    5  A    between atoms: S_12  and  C_13
REMARK    6  A    between atoms: C_14  and  C_36
REMARK    7  A    between atoms: C_15  and  C_31
REMARK    8  A    between atoms: C_17  and  C_21
REMARK    9  A    between atoms: C_18  and  C_20
REMARK   10  A    between atoms: N_23  and  C_24
REMARK   11  A    between atoms: C_29  and  C_30
REMARK                            x       y       z     vdW  Elec       q    Type
REMARK                         _______ _______ _______ _____ _____    ______ ____
ROOT
ATOM      1  C   UNL     1       2.427   9.794   0.451  0.00  0.00    +0.080 C 
ATOM      2  C   UNL     1       3.465  10.665   0.564  0.00  0.00    +0.072 C 
ATOM      3  C   UNL     1       3.232  12.145   0.671  0.00  0.00    +0.134 C 
ATOM      4  C   UNL     1       1.804  12.435   1.034  0.00  0.00    +0.047 C 
ATOM      5  C   UNL     1       0.841  11.508   0.908  0.00  0.00    +0.015 C 
ATOM      6  N   UNL     1       1.128  10.251   0.450  0.00  0.00    -0.312 N 
ATOM      7  C   UNL     1      -0.577  11.857   1.278  0.00  0.00    +0.061 C 
ATOM      8  H   UNL     1       0.318   9.606   0.080  0.00  0.00    +0.152 HD
ENDROOT
BRANCH   3   9
ATOM      9  C   UNL     1       3.551  12.799  -0.649  0.00  0.00    +0.118 A 
ATOM     10  C   UNL     1       4.497  13.732  -0.857  0.00  0.00    +0.045 A 
ATOM     11  C   UNL     1       4.453  14.061  -2.232  0.00  0.00    +0.041 A 
ATOM     12  C   UNL     1       3.478  13.314  -2.780  0.00  0.00    +0.195 A 
ATOM     13  O   UNL     1       2.935  12.552  -1.817  0.00  0.00    -0.467 OA
ENDBRANCH   3   9
BRANCH   4  14
ATOM     14  C   UNL     1       1.464  13.720   1.520  0.00  0.00    +0.247 C 
ATOM     15  O   UNL     1       0.311  13.973   1.819  0.00  0.00    -0.270 OA
ATOM     16  N   UNL     1       2.417  14.665   1.653  0.00  0.00    -0.281 N 
ATOM     17  H   UNL     1       3.443  14.462   1.313  0.00  0.00    +0.155 HD
BRANCH  16  18
ATOM     18  C   UNL     1       2.101  15.901   2.224  0.00  0.00    +0.037 A 
ATOM     19  C   UNL     1       0.851  16.469   2.008  0.00  0.00    +0.023 A 
ATOM     20  C   UNL     1       0.542  17.691   2.573  0.00  0.00    +0.002 A 
ATOM     21  C   UNL     1       1.475  18.348   3.354  0.00  0.00    +0.000 A 
ATOM     22  C   UNL     1       2.719  17.786   3.571  0.00  0.00    +0.005 A 
ATOM     23  C   UNL     1       3.033  16.562   3.014  0.00  0.00    -0.029 A 
ATOM     24  C   UNL     1       4.387  15.947   3.256  0.00  0.00    +0.045 C 
ENDBRANCH  16  18
ENDBRANCH   4  14
BRANCH   2  25
ATOM     25  C   UNL     1       4.806  10.162   0.578  0.00  0.00    +0.098 C 
ATOM     26  N   UNL     1       5.870   9.763   0.589  0.00  0.00    -0.191 NA
ENDBRANCH   2  25
BRANCH   1  27
ATOM     27  S   UNL     1       2.746   8.066   0.312  0.00  0.00    -0.100 S 
BRANCH  27  28
ATOM     28  C   UNL     1       1.051   7.441   0.205  0.00  0.00    +0.171 C 
BRANCH  28  30
ATOM     29  N   UNL     1      -0.079   5.252  -0.018  0.00  0.00    -0.285 N 
ATOM     30  C   UNL     1       1.076   5.940   0.077  0.00  0.00    +0.227 C 
ATOM     31  O   UNL     1       2.136   5.351   0.059  0.00  0.00    -0.275 OA
ATOM     32  H   UNL     1      -1.034   5.791  -0.099  0.00  0.00    +0.155 HD
BRANCH  29  38
ATOM     33  C   UNL     1      -2.172   0.992  -1.299  0.00  0.00    +0.044 C 
ATOM     34  C   UNL     1      -1.064   1.763  -0.628  0.00  0.00    -0.049 A 
ATOM     35  C   UNL     1      -0.029   1.086  -0.009  0.00  0.00    +0.003 A 
ATOM     36  C   UNL     1       0.992   1.790   0.603  0.00  0.00    +0.002 A 
ATOM     37  C   UNL     1       0.979   3.171   0.602  0.00  0.00    +0.023 A 
ATOM     38  C   UNL     1      -0.062   3.853  -0.015  0.00  0.00    +0.034 A 
ATOM     39  C   UNL     1      -1.086   3.143  -0.628  0.00  0.00    +0.026 A 
ENDBRANCH  29  38
ENDBRANCH  28  30
ENDBRANCH  27  28
ENDBRANCH   1  27
TORSDOF 8
