REMARK  Name = ZINC51041955
REMARK  2 active torsions:
REMARK  status: ('A' for Active; 'I' for Inactive)
REMARK    1  A    between atoms: CA_3  and  C_16
REMARK    2  A    between atoms: N_7  and  C_8
REMARK                            x       y       z     vdW  Elec       q    Type
REMARK                         _______ _______ _______ _____ _____    ______ ____
ROOT
ATOM      1  C   UNL     1      -0.017   1.378   0.010  0.00  0.00    +0.006 A 
ATOM      2  C   UNL     1       1.194   2.059   0.002  0.00  0.00    +0.033 A 
ATOM      3  CA  UNL     1       2.381   1.333  -0.013  0.00  0.00    +0.130 A 
ATOM      4  N   UNL     1       2.363   0.004  -0.021  0.00  0.00    -0.338 N 
ATOM      5  C   UNL     1       1.228  -0.671  -0.014  0.00  0.00    +0.097 A 
ATOM      6  C   UNL     1       0.002  -0.004   0.002  0.00  0.00    +0.041 A 
ATOM      7  N   UNL     1       1.255  -2.060  -0.023  0.00  0.00    -0.328 N 
ATOM      8  H   UNL     1       2.104  -2.529  -0.035  0.00  0.00    +0.148 HD
ATOM      9  H   UNL     1       3.203  -0.481  -0.032  0.00  0.00    +0.167 HD
ENDROOT
BRANCH   7  10
ATOM     10  C   UNL     1       0.001  -2.817  -0.016  0.00  0.00    +0.072 C 
ATOM     11  C   UNL     1      -0.487  -2.982   1.425  0.00  0.00    +0.022 C 
ATOM     12  C   UNL     1      -1.957  -3.406   1.420  0.00  0.00    +0.002 C 
ATOM     13  C   UNL     1      -2.727  -2.568   0.398  0.00  0.00    +0.000 C 
ATOM     14  C   UNL     1      -3.193  -3.465  -0.750  0.00  0.00    +0.000 C 
ATOM     15  C   UNL     1      -2.006  -3.781  -1.663  0.00  0.00    +0.000 C 
ATOM     16  C   UNL     1      -1.113  -4.828  -0.994  0.00  0.00    +0.002 C 
ATOM     17  C   UNL     1       0.234  -4.196  -0.637  0.00  0.00    +0.022 C 
ENDBRANCH   7  10
BRANCH   3  18
ATOM     18  C   UNL     1       3.676   2.048  -0.022  0.00  0.00    +0.402 C 
ATOM     19  O   UNL     1       4.723   1.417  -0.035  0.00  0.00    -0.239 OA
ATOM     20  OXT UNL     1       3.700   3.271  -0.016  0.00  0.00    -0.239 OA
ENDBRANCH   3  18
TORSDOF 2
