REMARK  Name = ZINC21463255
REMARK  8 active torsions:
REMARK  status: ('A' for Active; 'I' for Inactive)
REMARK    1  A    between atoms: C_1  and  C_2
REMARK    2  A    between atoms: C_2  and  C_3
REMARK    3  A    between atoms: C_3  and  N_4
REMARK    4  A    between atoms: C_8  and  S_9
REMARK    5  A    between atoms: S_9  and  C_10
REMARK    6  A    between atoms: C_10  and  C_11
REMARK    7  A    between atoms: C_19  and  C_23
REMARK    8  A    between atoms: C_20  and  C_22
REMARK                            x       y       z     vdW  Elec       q    Type
REMARK                         _______ _______ _______ _____ _____    ______ ____
ROOT
ATOM      1  C   UNL     1       4.438   4.761  -0.016  0.00  0.00    -0.020 A 
ATOM      2  C   UNL     1       4.954   5.235   1.146  0.00  0.00    +0.097 A 
ATOM      3  C   UNL     1       5.976   6.210   1.114  0.00  0.00    +0.338 A 
ATOM      4  O   UNL     1       6.430   6.628   2.163  0.00  0.00    -0.245 OA
ATOM      5  O   UNL     1       6.458   6.687  -0.044  0.00  0.00    -0.422 OA
ATOM      6  C   UNL     1       5.989   6.256  -1.234  0.00  0.00    +0.140 A 
ATOM      7  C   UNL     1       4.976   5.282  -1.276  0.00  0.00    +0.022 A 
ATOM      8  C   UNL     1       4.492   4.831  -2.508  0.00  0.00    +0.015 A 
ATOM      9  C   UNL     1       5.017   5.341  -3.674  0.00  0.00    -0.047 A 
ATOM     10  C   UNL     1       6.021   6.298  -3.630  0.00  0.00    -0.044 A 
ATOM     11  C   UNL     1       6.500   6.761  -2.423  0.00  0.00    +0.050 A 
ATOM     12  C   UNL     1       6.585   6.846  -4.916  0.00  0.00    +0.044 C 
ATOM     13  C   UNL     1       4.500   4.857  -5.003  0.00  0.00    +0.044 C 
ENDROOT
BRANCH   1  14
ATOM     14  C   UNL     1       3.348   3.721  -0.011  0.00  0.00    +0.113 C 
BRANCH  14  15
ATOM     15  S   UNL     1       1.734   4.539   0.009  0.00  0.00    -0.083 S 
BRANCH  15  20
ATOM     16  N   UNL     1      -0.685   3.156   0.025  0.00  0.00    -0.326 N 
ATOM     17  C   UNL     1      -1.113   1.848   0.017  0.00  0.00    +0.108 A 
ATOM     18  C   UNL     1      -0.013   1.076   0.008  0.00  0.00    +0.131 A 
ATOM     19  N   UNL     1       1.066   1.877   0.002  0.00  0.00    -0.230 NA
ATOM     20  C   UNL     1       0.676   3.130   0.012  0.00  0.00    +0.169 A 
BRANCH  16  21
ATOM     21  C   UNL     1      -1.534   4.350   0.039  0.00  0.00    +0.123 C 
BRANCH  21  23
ATOM     22  C   UNL     1      -2.627   6.093  -1.379  0.00  0.00    +0.005 C 
ATOM     23  C   UNL     1      -1.740   4.846  -1.394  0.00  0.00    +0.018 C 
ENDBRANCH  21  23
ENDBRANCH  16  21
ENDBRANCH  15  20
ENDBRANCH  14  15
ENDBRANCH   1  14
TORSDOF 5
