REMARK  Name = ZINC35893226
REMARK  9 active torsions:
REMARK  status: ('A' for Active; 'I' for Inactive)
REMARK    1  A    between atoms: C_1  and  C_2
REMARK    2  A    between atoms: C_2  and  C_3
REMARK    3  A    between atoms: C_6  and  C_9
REMARK    4  A    between atoms: C_13  and  C_23
REMARK    5  A    between atoms: N_19  and  C_20
REMARK    6  A    between atoms: C_20  and  C_21
REMARK    7  A    between atoms: C_20  and  C_22
REMARK    8  A    between atoms: N_25  and  C_26
REMARK    9  A    between atoms: C_26  and  C_27
REMARK                            x       y       z     vdW  Elec       q    Type
REMARK                         _______ _______ _______ _____ _____    ______ ____
ROOT
ATOM      1  C   UNL     1       2.716  -1.857  -4.750  0.00  0.00    +0.108 C 
ATOM      2  C   UNL     1       3.306  -0.671  -5.520  0.00  0.00    +0.028 C 
ATOM      3  C   UNL     1       4.126  -1.192  -6.702  0.00  0.00    +0.016 C 
ATOM      4  C   UNL     1       5.280  -2.054  -6.184  0.00  0.00    +0.092 C 
ATOM      5  C   UNL     1       4.712  -3.256  -5.421  0.00  0.00    +0.122 C 
ATOM      6  N   UNL     1       3.804  -2.768  -4.373  0.00  0.00    -0.278 N 
ATOM      7  C   UNL     1       3.970  -3.147  -3.090  0.00  0.00    +0.303 C 
ATOM      8  O   UNL     1       3.155  -2.820  -2.250  0.00  0.00    -0.253 OA
ATOM      9  N   UNL     1       5.038  -3.890  -2.739  0.00  0.00    -0.297 N 
ATOM     10  H   UNL     1       5.726  -4.090  -3.394  0.00  0.00    +0.150 HD
ENDROOT
BRANCH   1  14
ATOM     11  C   UNL     1       0.749  -0.446  -1.230  0.00  0.00    -0.048 A 
ATOM     12  C   UNL     1       0.030  -1.119  -2.201  0.00  0.00    +0.004 A 
ATOM     13  C   UNL     1       0.667  -1.575  -3.340  0.00  0.00    +0.006 A 
ATOM     14  C   UNL     1       2.022  -1.358  -3.509  0.00  0.00    -0.027 A 
ATOM     15  C   UNL     1       2.740  -0.684  -2.539  0.00  0.00    +0.006 A 
ATOM     16  C   UNL     1       2.103  -0.224  -1.402  0.00  0.00    +0.004 A 
BRANCH  11  18
ATOM     17  C   UNL     1      -0.468   1.469  -0.230  0.00  0.00    +0.009 C 
ATOM     18  C   UNL     1       0.055   0.052   0.011  0.00  0.00    +0.032 C 
ENDBRANCH  11  18
ENDBRANCH   1  14
BRANCH   4  19
ATOM     19  C   UNL     1       6.106  -2.540  -7.346  0.00  0.00    +0.218 C 
ATOM     20  O   UNL     1       5.803  -2.228  -8.478  0.00  0.00    -0.275 OA
ATOM     21  N   UNL     1       7.183  -3.321  -7.128  0.00  0.00    -0.311 N 
ATOM     22  H   UNL     1       7.426  -3.571  -6.222  0.00  0.00    +0.149 HD
BRANCH  21  23
ATOM     23  C   UNL     1       7.986  -3.793  -8.258  0.00  0.00    +0.139 C 
BRANCH  23  24
ATOM     24  C   UNL     1       9.122  -4.642  -7.747  0.00  0.00    -0.027 A 
ATOM     25  C   UNL     1      10.331  -4.054  -7.424  0.00  0.00    +0.009 A 
ATOM     26  C   UNL     1      11.376  -4.828  -6.955  0.00  0.00    +0.050 A 
ATOM     27  C   UNL     1      11.214  -6.196  -6.807  0.00  0.00    +0.166 A 
ATOM     28  C   UNL     1       9.996  -6.788  -7.132  0.00  0.00    +0.167 A 
ATOM     29  C   UNL     1       8.951  -6.005  -7.597  0.00  0.00    +0.054 A 
ATOM     30  O   UNL     1      10.088  -8.130  -6.902  0.00  0.00    -0.453 OA
ATOM     31  C   UNL     1      11.498  -8.410  -6.821  0.00  0.00    +0.466 C 
ATOM     32  O   UNL     1      12.069  -7.167  -6.373  0.00  0.00    -0.453 OA
ENDBRANCH  23  24
ENDBRANCH  21  23
ENDBRANCH   4  19
BRANCH   9  33
ATOM     33  C   UNL     1       5.161  -4.395  -1.370  0.00  0.00    +0.068 C 
ATOM     34  C   UNL     1       4.389  -5.710  -1.240  0.00  0.00    +0.027 C 
ATOM     35  C   UNL     1       6.637  -4.636  -1.046  0.00  0.00    +0.027 C 
ENDBRANCH   9  33
TORSDOF 6
