REMARK  Name = ZINC63372992
REMARK  12 active torsions:
REMARK  status: ('A' for Active; 'I' for Inactive)
REMARK    1  A    between atoms: C_1  and  C_2
REMARK    2  A    between atoms: C_2  and  C_3
REMARK    3  A    between atoms: C_3  and  C_4
REMARK    4  A    between atoms: C_4  and  N_5
REMARK    5  A    between atoms: C_11  and  C_27
REMARK    6  A    between atoms: C_23  and  C_26
REMARK    7  A    between atoms: C_30  and  O_35
REMARK    8  A    between atoms: C_31  and  O_33
REMARK    9  A    between atoms: O_33  and  C_34
REMARK   10  A    between atoms: O_35  and  C_36
REMARK   11  A    between atoms: C_36  and  C_37
REMARK   12  A    between atoms: C_36  and  C_38
REMARK                            x       y       z     vdW  Elec       q    Type
REMARK                         _______ _______ _______ _____ _____    ______ ____
ROOT
ATOM      1  N   UNL     1       0.856  -3.034  -2.962  0.00  0.00    -0.291 N 
ATOM      2  C   UNL     1       0.266  -3.217  -4.278  0.00  0.00    +0.203 C 
ATOM      3  C   UNL     1       1.288  -3.565  -5.309  0.00  0.00    +0.234 C 
ATOM      4  O   UNL     1       0.901  -3.743  -6.445  0.00  0.00    -0.274 OA
ATOM      5  N   UNL     1       2.598  -3.695  -5.074  0.00  0.00    -0.283 N 
ATOM      6  C   UNL     1       3.471  -4.081  -6.199  0.00  0.00    +0.121 C 
ATOM      7  C   UNL     1       4.541  -2.996  -6.410  0.00  0.00    +0.065 C 
ATOM      8  C   UNL     1       5.100  -2.669  -5.047  0.00  0.00    -0.027 C 
ATOM      9  C   UNL     1       6.346  -2.622  -4.594  0.00  0.00    -0.000 A 
ATOM     10  C   UNL     1       7.643  -2.756  -5.276  0.00  0.00    +0.010 A 
ATOM     11  C   UNL     1       8.747  -2.676  -4.487  0.00  0.00    +0.001 A 
ATOM     12  C   UNL     1       8.691  -2.479  -3.104  0.00  0.00    +0.002 A 
ATOM     13  C   UNL     1       7.542  -2.336  -2.395  0.00  0.00    +0.026 A 
ATOM     14  C   UNL     1       6.315  -2.392  -3.117  0.00  0.00    +0.043 A 
ATOM     15  N   UNL     1       5.089  -2.263  -2.703  0.00  0.00    -0.375 N 
ATOM     16  C   UNL     1       4.201  -2.330  -3.864  0.00  0.00    +0.139 C 
ATOM     17  C   UNL     1       3.186  -3.472  -3.751  0.00  0.00    +0.135 C 
ATOM     18  C   UNL     1       2.160  -3.141  -2.718  0.00  0.00    +0.242 C 
ATOM     19  O   UNL     1       2.541  -2.961  -1.581  0.00  0.00    -0.273 OA
ATOM     20  C   UNL     1       3.918  -4.742  -3.316  0.00  0.00    +0.044 C 
ATOM     21  H   UNL     1       4.811  -2.143  -1.781  0.00  0.00    +0.160 HD
ENDROOT
BRANCH   7  22
ATOM     22  C   UNL     1       3.917  -1.768  -7.021  0.00  0.00    -0.035 A 
ATOM     23  C   UNL     1       2.908  -1.101  -6.352  0.00  0.00    +0.008 A 
ATOM     24  C   UNL     1       2.333   0.026  -6.909  0.00  0.00    +0.050 A 
ATOM     25  C   UNL     1       2.767   0.489  -8.140  0.00  0.00    +0.162 A 
ATOM     26  C   UNL     1       3.782  -0.182  -8.814  0.00  0.00    +0.162 A 
ATOM     27  C   UNL     1       4.358  -1.308  -8.248  0.00  0.00    +0.053 A 
BRANCH  26  28
ATOM     28  O   UNL     1       4.212   0.268 -10.023  0.00  0.00    -0.491 OA
ATOM     29  C   UNL     1       5.258  -0.471 -10.657  0.00  0.00    +0.277 C 
ENDBRANCH  26  28
BRANCH  25  30
ATOM     30  O   UNL     1       2.201   1.597  -8.690  0.00  0.00    -0.486 OA
BRANCH  30  31
ATOM     31  C   UNL     1       1.250   2.304  -7.891  0.00  0.00    +0.167 C 
ATOM     32  C   UNL     1       1.192   3.765  -8.341  0.00  0.00    +0.051 C 
ATOM     33  C   UNL     1      -0.130   1.665  -8.056  0.00  0.00    +0.051 C 
ENDBRANCH  30  31
ENDBRANCH  25  30
ENDBRANCH   7  22
BRANCH   1  34
ATOM     34  C   UNL     1      -0.033  -2.709  -1.844  0.00  0.00    +0.108 C 
BRANCH  34  35
ATOM     35  C   UNL     1      -0.176  -1.189  -1.731  0.00  0.00    +0.019 C 
BRANCH  35  37
ATOM     36  C   UNL     1      -1.248   0.670  -0.451  0.00  0.00    +0.004 C 
ATOM     37  C   UNL     1      -1.105  -0.850  -0.564  0.00  0.00    -0.002 C 
ENDBRANCH  35  37
ENDBRANCH  34  35
ENDBRANCH   1  34
TORSDOF 7
