REMARK  Name = ZINC19309331
REMARK  10 active torsions:
REMARK  status: ('A' for Active; 'I' for Inactive)
REMARK    1  A    between atoms: C_1  and  N_2
REMARK    2  A    between atoms: N_2  and  C_3
REMARK    3  A    between atoms: C_3  and  C_4
REMARK    4  A    between atoms: C_4  and  C_5
REMARK    5  A    between atoms: C_5  and  C_6
REMARK    6  A    between atoms: C_7  and  C_13
REMARK    7  A    between atoms: C_8  and  N_12
REMARK    8  A    between atoms: C_17  and  C_31
REMARK    9  A    between atoms: C_22  and  C_24
REMARK   10  A    between atoms: C_24  and  N_25
REMARK                            x       y       z     vdW  Elec       q    Type
REMARK                         _______ _______ _______ _____ _____    ______ ____
ROOT
ATOM      1  C   UNL     1      -3.852   4.766   0.620  0.00  0.00    +0.130 C 
ATOM      2  N   UNL     1      -3.149   4.098  -0.483  0.00  0.00    -0.318 N 
ATOM      3  C   UNL     1      -1.789   4.346  -0.427  0.00  0.00    +0.134 A 
ATOM      4  C   UNL     1      -0.865   3.271  -0.347  0.00  0.00    +0.056 A 
ATOM      5  C   UNL     1      -1.111   1.832  -0.315  0.00  0.00    +0.008 A 
ATOM      6  C   UNL     1      -0.051   0.992  -0.231  0.00  0.00    +0.057 A 
ATOM      7  S   UNL     1       1.351   2.093  -0.201  0.00  0.00    -0.076 S 
ATOM      8  C   UNL     1       0.494   3.643  -0.294  0.00  0.00    +0.114 A 
ATOM      9  N   UNL     1       0.861   4.910  -0.320  0.00  0.00    -0.223 NA
ATOM     10  C   UNL     1      -0.044   5.866  -0.395  0.00  0.00    +0.146 A 
ATOM     11  N   UNL     1      -1.334   5.589  -0.447  0.00  0.00    -0.215 NA
ENDROOT
BRANCH   5  12
ATOM     12  C   UNL     1      -2.490   1.302  -0.371  0.00  0.00    +0.021 A 
ATOM     13  C   UNL     1      -3.035   0.408  -1.253  0.00  0.00    +0.016 A 
ATOM     14  C   UNL     1      -4.361   0.058  -1.106  0.00  0.00    +0.008 A 
ATOM     15  C   UNL     1      -5.082   0.608  -0.096  0.00  0.00    +0.046 A 
ATOM     16  S   UNL     1      -3.875   1.655   0.699  0.00  0.00    -0.097 S 
ENDBRANCH   5  12
BRANCH   2  17
ATOM     17  C   UNL     1      -3.705   4.501  -1.782  0.00  0.00    +0.106 C 
BRANCH  17  18
ATOM     18  C   UNL     1      -5.141   3.989  -1.903  0.00  0.00    +0.025 C 
BRANCH  18  19
ATOM     19  C   UNL     1      -5.720   4.409  -3.256  0.00  0.00    +0.060 C 
BRANCH  19  20
ATOM     20  C   UNL     1      -7.135   3.904  -3.376  0.00  0.00    +0.082 A 
ATOM     21  C   UNL     1      -8.300   4.599  -2.975  0.00  0.00    +0.113 A 
ATOM     22  C   UNL     1      -9.384   3.776  -3.264  0.00  0.00    +0.129 A 
ATOM     23  N   UNL     1      -8.891   2.645  -3.810  0.00  0.00    -0.263 N 
ATOM     24  H   UNL     1      -9.573   1.839  -4.117  0.00  0.00    +0.190 HD
ATOM     25  N   UNL     1      -7.497   2.755  -3.872  0.00  0.00    -0.176 NA
BRANCH  22  26
ATOM     26  N   UNL     1     -10.716   4.063  -3.033  0.00  0.00    -0.342 N 
ATOM     27  H   UNL     1     -11.492   3.331  -3.304  0.00  0.00    +0.144 HD
ATOM     28  H   UNL     1     -11.002   5.023  -2.579  0.00  0.00    +0.144 HD
ENDBRANCH  22  26
BRANCH  21  29
ATOM     29  C   UNL     1      -8.353   5.903  -2.384  0.00  0.00    +0.104 C 
ATOM     30  N   UNL     1      -8.395   6.937  -1.915  0.00  0.00    -0.191 NA
ENDBRANCH  21  29
ENDBRANCH  19  20
ENDBRANCH  18  19
ENDBRANCH  17  18
ENDBRANCH   2  17
BRANCH  10  31
ATOM     31  C   UNL     1       0.404   7.304  -0.422  0.00  0.00    +0.160 C 
BRANCH  31  32
ATOM     32  N   UNL     1       0.483   7.819   0.952  0.00  0.00    -0.291 NA
ATOM     33  C   UNL     1      -0.850   7.886   1.567  0.00  0.00    +0.113 C 
ATOM     34  C   UNL     1      -0.715   8.368   3.014  0.00  0.00    +0.175 C 
ATOM     35  O   UNL     1      -0.048   9.633   3.028  0.00  0.00    -0.377 OA
ATOM     36  C   UNL     1       1.254   9.604   2.437  0.00  0.00    +0.175 C 
ATOM     37  C   UNL     1       1.139   9.134   0.985  0.00  0.00    +0.113 C 
ENDBRANCH  31  32
ENDBRANCH  10  31
TORSDOF 9
