REMARK  Name = ZINC00955951
REMARK  8 active torsions:
REMARK  status: ('A' for Active; 'I' for Inactive)
REMARK    1  A    between atoms: C_1  and  O_2
REMARK    2  A    between atoms: O_2  and  C_3
REMARK    3  A    between atoms: C_5  and  C_10
REMARK    4  A    between atoms: C_8  and  O_9
REMARK    5  A    between atoms: N_11  and  N_12
REMARK    6  A    between atoms: N_14  and  C_24
REMARK    7  A    between atoms: C_15  and  C_18
REMARK    8  A    between atoms: C_27  and  O_30
REMARK                            x       y       z     vdW  Elec       q    Type
REMARK                         _______ _______ _______ _____ _____    ______ ____
ROOT
ATOM      1  N   UNL     1       0.862   1.774   0.399  0.00  0.00    -0.124 NA
ATOM      2  C   UNL     1       1.270   2.966  -0.009  0.00  0.00    +0.199 A 
ATOM      3  N   UNL     1       0.526   4.079  -0.324  0.00  0.00    -0.287 N 
ATOM      4  C   UNL     1       1.179   5.213  -0.723  0.00  0.00    +0.063 A 
ATOM      5  C   UNL     1       2.527   5.212  -0.809  0.00  0.00    +0.075 A 
ATOM      6  S   UNL     1       2.933   3.549  -0.302  0.00  0.00    -0.055 S 
ENDROOT
BRANCH   4   7
ATOM      7  C   UNL     1       0.413   6.431  -1.065  0.00  0.00    -0.001 A 
ATOM      8  C   UNL     1      -0.748   6.336  -1.833  0.00  0.00    +0.010 A 
ATOM      9  C   UNL     1      -1.461   7.476  -2.144  0.00  0.00    +0.001 A 
ATOM     10  C   UNL     1      -1.020   8.712  -1.705  0.00  0.00    +0.000 A 
ATOM     11  C   UNL     1       0.133   8.813  -0.948  0.00  0.00    +0.001 A 
ATOM     12  C   UNL     1       0.852   7.681  -0.625  0.00  0.00    +0.010 A 
ENDBRANCH   4   7
BRANCH   3  13
ATOM     13  C   UNL     1      -0.872   4.054  -0.235  0.00  0.00    +0.049 A 
ATOM     14  C   UNL     1      -1.593   3.070  -0.898  0.00  0.00    +0.030 A 
ATOM     15  C   UNL     1      -2.970   3.042  -0.805  0.00  0.00    +0.047 A 
ATOM     16  C   UNL     1      -3.634   4.003  -0.057  0.00  0.00    +0.117 A 
ATOM     17  C   UNL     1      -2.915   4.990   0.601  0.00  0.00    +0.047 A 
ATOM     18  C   UNL     1      -1.537   5.016   0.513  0.00  0.00    +0.030 A 
BRANCH  16  19
ATOM     19  O   UNL     1      -4.991   3.979   0.029  0.00  0.00    -0.507 OA
ATOM     20  H   UNL     1      -5.438   4.488  -0.660  0.00  0.00    +0.292 HD
ENDBRANCH  16  19
ENDBRANCH   3  13
BRANCH   1  22
ATOM     21  C   UNL     1      -0.787   0.404   1.079  0.00  0.00    +0.143 C 
ATOM     22  N   UNL     1      -0.379   1.586   0.697  0.00  0.00    -0.155 NA
BRANCH  21  25
ATOM     23  C   UNL     1      -3.941  -1.229   2.291  0.00  0.00    +0.162 A 
ATOM     24  C   UNL     1      -2.644  -1.063   1.843  0.00  0.00    +0.059 A 
ATOM     25  C   UNL     1      -2.168   0.219   1.549  0.00  0.00    -0.002 A 
ATOM     26  C   UNL     1      -3.012   1.325   1.699  0.00  0.00    +0.013 A 
ATOM     27  C   UNL     1      -4.307   1.149   2.140  0.00  0.00    +0.050 A 
ATOM     28  C   UNL     1      -4.775  -0.123   2.437  0.00  0.00    +0.158 A 
BRANCH  23  30
ATOM     29  C   UNL     1      -3.496  -3.562   2.409  0.00  0.00    +0.277 C 
ATOM     30  O   UNL     1      -4.406  -2.474   2.582  0.00  0.00    -0.491 OA
ENDBRANCH  23  30
BRANCH  28  31
ATOM     31  O   UNL     1      -6.053  -0.290   2.873  0.00  0.00    -0.503 OA
ATOM     32  H   UNL     1      -6.694  -0.433   2.163  0.00  0.00    +0.292 HD
ENDBRANCH  28  31
ENDBRANCH  21  25
ENDBRANCH   1  22
TORSDOF 7
