REMARK  Name = ZINC61496754
REMARK  8 active torsions:
REMARK  status: ('A' for Active; 'I' for Inactive)
REMARK    1  A    between atoms: C_1  and  C_2
REMARK    2  A    between atoms: C_4  and  C_24
REMARK    3  A    between atoms: C_7  and  N_8
REMARK    4  A    between atoms: N_11  and  C_12
REMARK    5  A    between atoms: C_12  and  C_13
REMARK    6  A    between atoms: C_13  and  C_14
REMARK    7  A    between atoms: C_14  and  N_15
REMARK    8  A    between atoms: N_26  and  C_27
REMARK                            x       y       z     vdW  Elec       q    Type
REMARK                         _______ _______ _______ _____ _____    ______ ____
ROOT
ATOM      1  N   UNL     1       0.025  -0.012   2.413  0.00  0.00    -0.269 N 
ATOM      2  C   UNL     1      -0.057  -0.688   3.577  0.00  0.00    +0.304 C 
ATOM      3  O   UNL     1      -0.040  -1.903   3.576  0.00  0.00    -0.253 OA
ATOM      4  N   UNL     1      -0.156  -0.015   4.741  0.00  0.00    -0.299 N 
ATOM      5  H   UNL     1       0.078   0.956   2.417  0.00  0.00    +0.156 HD
ATOM      6  H   UNL     1      -0.169   0.955   4.741  0.00  0.00    +0.150 HD
ENDROOT
BRANCH   1  13
ATOM      7  C   UNL     1      -1.270   1.182   0.184  0.00  0.00    +0.045 C 
ATOM      8  C   UNL     1      -0.589  -0.159   0.086  0.00  0.00    -0.028 A 
ATOM      9  C   UNL     1      -0.579  -0.838  -1.111  0.00  0.00    +0.018 A 
ATOM     10  C   UNL     1       0.053  -2.082  -1.202  0.00  0.00    +0.037 A 
ATOM     11  C   UNL     1       0.672  -2.631  -0.075  0.00  0.00    +0.015 A 
ATOM     12  C   UNL     1       0.657  -1.946   1.119  0.00  0.00    +0.024 A 
ATOM     13  C   UNL     1       0.033  -0.706   1.204  0.00  0.00    +0.038 A 
BRANCH  10  14
ATOM     14  C   UNL     1       0.066  -2.813  -2.483  0.00  0.00    +0.244 C 
ATOM     15  O   UNL     1      -0.474  -2.334  -3.462  0.00  0.00    -0.270 OA
ATOM     16  N   UNL     1       0.675  -4.012  -2.569  0.00  0.00    -0.314 N 
ATOM     17  C   UNL     1       0.688  -4.738  -3.841  0.00  0.00    +0.128 C 
ATOM     18  H   UNL     1       1.105  -4.394  -1.788  0.00  0.00    +0.149 HD
ENDBRANCH  10  14
ENDBRANCH   1  13
BRANCH   4  19
ATOM     19  C   UNL     1      -0.245  -0.749   6.005  0.00  0.00    +0.107 C 
BRANCH  19  20
ATOM     20  C   UNL     1      -0.348   0.243   7.165  0.00  0.00    +0.038 C 
BRANCH  20  21
ATOM     21  C   UNL     1      -0.441  -0.523   8.486  0.00  0.00    +0.106 C 
BRANCH  21  22
ATOM     22  N   UNL     1      -0.540   0.427   9.596  0.00  0.00    -0.329 N 
ATOM     23  C   UNL     1       0.600   0.992  10.322  0.00  0.00    +0.110 C 
ATOM     24  C   UNL     1      -0.016   1.922  11.380  0.00  0.00    +0.056 C 
ATOM     25  C   UNL     1      -1.508   1.807  11.164  0.00  0.00    -0.025 A 
ATOM     26  C   UNL     1      -1.735   0.931  10.113  0.00  0.00    +0.033 A 
ATOM     27  C   UNL     1      -3.049   0.668   9.722  0.00  0.00    +0.023 A 
ATOM     28  C   UNL     1      -4.103   1.276  10.371  0.00  0.00    +0.002 A 
ATOM     29  C   UNL     1      -3.865   2.151  11.414  0.00  0.00    +0.000 A 
ATOM     30  C   UNL     1      -2.567   2.410  11.813  0.00  0.00    +0.005 A 
ENDBRANCH  21  22
ENDBRANCH  20  21
ENDBRANCH  19  20
ENDBRANCH   4  19
TORSDOF 6
