REMARK  Name = ZINC38669795
REMARK  9 active torsions:
REMARK  status: ('A' for Active; 'I' for Inactive)
REMARK    1  A    between atoms: C_1  and  C_2
REMARK    2  A    between atoms: C_7  and  C_9
REMARK    3  A    between atoms: C_7  and  C_10
REMARK    4  A    between atoms: N_11  and  C_13
REMARK    5  A    between atoms: C_13  and  C_14
REMARK    6  A    between atoms: N_16  and  C_17
REMARK    7  A    between atoms: C_25  and  C_27
REMARK    8  A    between atoms: C_27  and  O_29
REMARK    9  A    between atoms: O_29  and  C_30
REMARK                            x       y       z     vdW  Elec       q    Type
REMARK                         _______ _______ _______ _____ _____    ______ ____
ROOT
ATOM      1  C   UNL     1       1.364  -2.619  -3.450  0.00  0.00    +0.200 C 
ATOM      2  O   UNL     1       1.065  -1.556  -3.952  0.00  0.00    -0.278 OA
ATOM      3  N   UNL     1       2.303  -3.396  -4.025  0.00  0.00    -0.288 N 
ATOM      4  H   UNL     1       2.579  -4.221  -3.597  0.00  0.00    +0.155 HD
ENDROOT
BRANCH   3   5
ATOM      5  C   UNL     1       2.865  -3.022  -5.209  0.00  0.00    +0.053 C 
ATOM      6  C   UNL     1       3.634  -3.805  -6.053  0.00  0.00    +0.019 A 
ATOM      7  C   UNL     1       4.065  -5.151  -5.977  0.00  0.00    +0.026 A 
ATOM      8  C   UNL     1       4.830  -5.669  -6.971  0.00  0.00    +0.019 A 
ATOM      9  C   UNL     1       5.209  -4.903  -8.078  0.00  0.00    +0.017 A 
ATOM     10  C   UNL     1       4.833  -3.609  -8.216  0.00  0.00    +0.027 A 
ATOM     11  C   UNL     1       4.032  -2.996  -7.218  0.00  0.00    +0.045 A 
ATOM     12  N   UNL     1       3.545  -1.776  -7.118  0.00  0.00    -0.367 N 
ATOM     13  C   UNL     1       2.772  -1.668  -5.877  0.00  0.00    +0.234 C 
ATOM     14 BR   UNL     1       5.398  -7.469  -6.856  0.00  0.00    -0.050 Br
ATOM     15  H   UNL     1       3.673  -1.064  -7.765  0.00  0.00    +0.161 HD
BRANCH  13  16
ATOM     16  C   UNL     1       3.369  -0.609  -4.987  0.00  0.00    +0.335 C 
ATOM     17  O   UNL     1       4.480  -0.190  -5.209  0.00  0.00    -0.248 OA
BRANCH  16  18
ATOM     18  O   UNL     1       2.666  -0.130  -3.949  0.00  0.00    -0.466 OA
ATOM     19  C   UNL     1       3.294   0.873  -3.148  0.00  0.00    +0.280 C 
ENDBRANCH  16  18
ENDBRANCH  13  16
ENDBRANCH   3   5
BRANCH   1  20
ATOM     20  C   UNL     1       0.685  -3.071  -2.183  0.00  0.00    +0.019 C 
BRANCH  20  30
ATOM     21  C   UNL     1      -0.627   1.243  -0.224  0.00  0.00    +0.009 C 
ATOM     22  C   UNL     1      -0.340  -0.264  -0.149  0.00  0.00    -0.048 C 
ATOM     23  C   UNL     1      -1.640  -1.112  -0.077  0.00  0.00    -0.011 C 
ATOM     24  C   UNL     1      -1.085  -2.469  -0.593  0.00  0.00    -0.067 C 
ATOM     25  C   UNL     1      -0.236  -3.070   0.510  0.00  0.00    -0.009 C 
ATOM     26  C   UNL     1       0.696  -2.138   1.251  0.00  0.00    -0.036 C 
ATOM     27  C   UNL     1       0.495  -0.646   1.074  0.00  0.00    +0.011 C 
ATOM     28  C   UNL     1       0.533  -2.439   2.764  0.00  0.00    +0.011 C 
ATOM     29  C   UNL     1       2.155  -2.493   0.905  0.00  0.00    +0.011 C 
ATOM     30  N   UNL     1      -0.282  -2.063  -1.764  0.00  0.00    +0.388 N 
ATOM     31  C   UNL     1       0.375  -0.790  -1.415  0.00  0.00    -0.071 C 
ATOM     32  H   UNL     1      -0.921  -1.883  -2.542  0.00  0.00    -0.081 HD
ENDBRANCH  20  30
ENDBRANCH   1  20
TORSDOF 5
