REMARK  Name = ZINC08685170
REMARK  8 active torsions:
REMARK  status: ('A' for Active; 'I' for Inactive)
REMARK    1  A    between atoms: C_4  and  N_7
REMARK    2  A    between atoms: C_8  and  C_24
REMARK    3  A    between atoms: C_11  and  S_12
REMARK    4  A    between atoms: S_12  and  C_13
REMARK    5  A    between atoms: C_13  and  C_14
REMARK    6  A    between atoms: N_16  and  C_17
REMARK    7  A    between atoms: C_24  and  N_25
REMARK    8  A    between atoms: C_26  and  C_28
REMARK                            x       y       z     vdW  Elec       q    Type
REMARK                         _______ _______ _______ _____ _____    ______ ____
ROOT
ATOM      1  N   UNL     1       3.619  -0.663  -0.031  0.00  0.00    -0.273 N 
ATOM      2  C   UNL     1       4.105  -1.468  -1.027  0.00  0.00    +0.156 A 
ATOM      3  N   UNL     1       5.267  -1.909  -0.636  0.00  0.00    -0.132 NA
ATOM      4  N   UNL     1       5.548  -1.444   0.528  0.00  0.00    -0.122 NA
ATOM      5  C   UNL     1       4.575  -0.668   0.947  0.00  0.00    +0.197 A 
ENDROOT
BRANCH   1   9
ATOM      6  C   UNL     1      -0.011   1.387   0.004  0.00  0.00    +0.000 A 
ATOM      7  C   UNL     1       1.179   2.091  -0.007  0.00  0.00    +0.002 A 
ATOM      8  C   UNL     1       2.383   1.414  -0.019  0.00  0.00    +0.026 A 
ATOM      9  C   UNL     1       2.397   0.026  -0.019  0.00  0.00    +0.050 A 
ATOM     10  C   UNL     1       1.201  -0.678  -0.007  0.00  0.00    +0.026 A 
ATOM     11  C   UNL     1       0.000   0.004   0.004  0.00  0.00    +0.002 A 
ENDBRANCH   1   9
BRANCH   5  12
ATOM     12  S   UNL     1       4.511   0.198   2.480  0.00  0.00    -0.076 S 
BRANCH  12  13
ATOM     13  C   UNL     1       6.073  -0.235   3.294  0.00  0.00    +0.173 C 
BRANCH  13  14
ATOM     14  C   UNL     1       6.148   0.450   4.635  0.00  0.00    +0.227 C 
ATOM     15  O   UNL     1       5.237   1.161   5.004  0.00  0.00    -0.275 OA
ATOM     16  N   UNL     1       7.227   0.274   5.423  0.00  0.00    -0.285 N 
ATOM     17  H   UNL     1       7.924  -0.346   5.158  0.00  0.00    +0.155 HD
BRANCH  16  18
ATOM     18  C   UNL     1       7.341   0.985   6.623  0.00  0.00    +0.034 A 
ATOM     19  C   UNL     1       8.586   1.415   7.061  0.00  0.00    +0.026 A 
ATOM     20  C   UNL     1       8.696   2.117   8.246  0.00  0.00    +0.040 A 
ATOM     21  C   UNL     1       7.566   2.390   8.997  0.00  0.00    +0.124 A 
ATOM     22  C   UNL     1       6.323   1.962   8.563  0.00  0.00    +0.040 A 
ATOM     23  C   UNL     1       6.207   1.266   7.375  0.00  0.00    +0.026 A 
ATOM     24  F   UNL     1       7.676   3.075  10.156  0.00  0.00    -0.205 F 
ENDBRANCH  16  18
ENDBRANCH  13  14
ENDBRANCH  12  13
ENDBRANCH   5  12
BRANCH   2  25
ATOM     25  C   UNL     1       3.423  -1.784  -2.333  0.00  0.00    +0.181 C 
BRANCH  25  26
ATOM     26  N   UNL     1       3.812  -0.794  -3.340  0.00  0.00    -0.308 N 
ATOM     27  C   UNL     1       3.321  -0.878  -4.593  0.00  0.00    +0.220 C 
ATOM     28  O   UNL     1       2.557  -1.772  -4.886  0.00  0.00    -0.275 OA
ATOM     29  H   UNL     1       4.423  -0.078  -3.106  0.00  0.00    +0.149 HD
BRANCH  27  30
ATOM     30  C   UNL     1       3.721   0.141  -5.628  0.00  0.00    +0.048 C 
ATOM     31  C   UNL     1       3.304   1.536  -5.160  0.00  0.00    +0.019 C 
ATOM     32  C   UNL     1       3.710   2.570  -6.212  0.00  0.00    -0.009 C 
ATOM     33  C   UNL     1       3.018   2.249  -7.537  0.00  0.00    +0.007 C 
ATOM     34  C   UNL     1       3.435   0.854  -8.006  0.00  0.00    -0.009 C 
ATOM     35  C   UNL     1       3.029  -0.180  -6.954  0.00  0.00    +0.019 C 
ATOM     36  C   UNL     1       4.952   0.814  -8.201  0.00  0.00    +0.007 C 
ATOM     37  C   UNL     1       5.645   1.135  -6.875  0.00  0.00    -0.009 C 
ATOM     38  C   UNL     1       5.227   2.530  -6.406  0.00  0.00    +0.007 C 
ATOM     39  C   UNL     1       5.238   0.101  -5.823  0.00  0.00    +0.019 C 
ENDBRANCH  27  30
ENDBRANCH  25  26
ENDBRANCH   2  25
TORSDOF 8
