REMARK  Name = ZINC07209174
REMARK  2 active torsions:
REMARK  status: ('A' for Active; 'I' for Inactive)
REMARK    1  A    between atoms: C_3  and  C_6
REMARK    2  A    between atoms: N_13  and  C_14
REMARK                            x       y       z     vdW  Elec       q    Type
REMARK                         _______ _______ _______ _____ _____    ______ ____
ROOT
ATOM      1  C   UNL     1       1.668  -1.966  -0.024  0.00  0.00    +0.035 C 
ATOM      2  C   UNL     1       1.334  -0.643  -0.014  0.00  0.00    +0.080 C 
ATOM      3  C   UNL     1       0.002  -0.004   0.002  0.00  0.00    +0.276 C 
ATOM      4  O   UNL     1      -1.027  -0.662   0.008  0.00  0.00    -0.267 OA
ATOM      5  N   UNL     1      -0.016   1.312   0.009  0.00  0.00    -0.154 NA
ATOM      6  C   UNL     1       1.092   2.036   0.003  0.00  0.00    +0.152 C 
ATOM      7  S   UNL     1       2.385   0.804  -0.016  0.00  0.00    -0.052 S 
ATOM      8  N   UNL     1       1.216   3.401   0.009  0.00  0.00    -0.322 N 
ATOM      9  H   UNL     1       2.097   3.808   0.002  0.00  0.00    +0.148 HD
ENDROOT
BRANCH   8  10
ATOM     10  C   UNL     1       0.020   4.246   0.025  0.00  0.00    +0.072 C 
ATOM     11  C   UNL     1      -0.484   4.445  -1.406  0.00  0.00    +0.022 C 
ATOM     12  C   UNL     1      -1.734   5.327  -1.389  0.00  0.00    +0.002 C 
ATOM     13  C   UNL     1      -1.390   6.686  -0.775  0.00  0.00    +0.000 C 
ATOM     14  C   UNL     1      -0.887   6.487   0.656  0.00  0.00    +0.002 C 
ATOM     15  C   UNL     1       0.363   5.605   0.639  0.00  0.00    +0.022 C 
ENDBRANCH   8  10
BRANCH   1  18
ATOM     16  C   UNL     1       4.946  -3.718  -0.065  0.00  0.00    +0.008 A 
ATOM     17  C   UNL     1       3.577  -3.629  -0.045  0.00  0.00    +0.015 A 
ATOM     18  C   UNL     1       3.027  -2.351  -0.039  0.00  0.00    +0.013 A 
ATOM     19  S   UNL     1       4.487  -1.325  -0.048  0.00  0.00    -0.097 S 
ATOM     20  C   UNL     1       5.686  -2.577  -0.066  0.00  0.00    +0.046 A 
ENDBRANCH   1  18
TORSDOF 2
