REMARK  Name = ZINC64981799
REMARK  7 active torsions:
REMARK  status: ('A' for Active; 'I' for Inactive)
REMARK    1  A    between atoms: C_1  and  C_2
REMARK    2  A    between atoms: C_5  and  O_8
REMARK    3  A    between atoms: O_8  and  C_9
REMARK    4  A    between atoms: C_9  and  C_11
REMARK    5  A    between atoms: C_9  and  C_12
REMARK    6  A    between atoms: N_14  and  C_15
REMARK    7  A    between atoms: C_18  and  N_22
REMARK                            x       y       z     vdW  Elec       q    Type
REMARK                         _______ _______ _______ _____ _____    ______ ____
ROOT
ATOM      1  C   UNL     1       0.997  -6.041   1.079  0.00  0.00    +0.258 C 
ATOM      2  O   UNL     1       1.435  -6.342  -0.011  0.00  0.00    -0.271 OA
ATOM      3  N   UNL     1       1.254  -6.821   2.148  0.00  0.00    -0.282 N 
ATOM      4  H   UNL     1       0.852  -6.615   3.006  0.00  0.00    +0.155 HD
ENDROOT
BRANCH   3   5
ATOM      5  C   UNL     1       2.101  -7.927   2.019  0.00  0.00    +0.048 A 
ATOM      6  C   UNL     1       2.114  -8.661   0.840  0.00  0.00    +0.026 A 
ATOM      7  C   UNL     1       2.951  -9.752   0.716  0.00  0.00    +0.034 A 
ATOM      8  C   UNL     1       3.777 -10.116   1.765  0.00  0.00    +0.127 A 
ATOM      9  C   UNL     1       3.767  -9.388   2.941  0.00  0.00    +0.049 A 
ATOM     10  C   UNL     1       2.936  -8.291   3.069  0.00  0.00    +0.041 A 
ATOM     11 BR   UNL     1       2.928  -7.292   4.674  0.00  0.00    -0.048 Br
BRANCH   8  12
ATOM     12  N   UNL     1       4.672 -11.287   1.629  0.00  0.00    +0.056 N 
ATOM     13  O   UNL     1       4.681 -11.924   0.602  0.00  0.00    -0.126 OA
ATOM     14  O   UNL     1       5.394 -11.605   2.545  0.00  0.00    -0.126 OA
ENDBRANCH   8  12
ENDBRANCH   3   5
BRANCH   1  15
ATOM     15  C   UNL     1       0.165  -4.795   1.238  0.00  0.00    +0.256 C 
ATOM     16  C   UNL     1      -1.222  -5.171   1.764  0.00  0.00    +0.062 C 
BRANCH  15  17
ATOM     17  O   UNL     1       0.035  -4.144  -0.027  0.00  0.00    -0.480 OA
BRANCH  17  22
ATOM     18  C   UNL     1      -0.185   1.484   0.003  0.00  0.00    +0.044 C 
ATOM     19  C   UNL     1      -0.127  -0.022  -0.005  0.00  0.00    -0.050 A 
ATOM     20  C   UNL     1      -0.129  -0.719   1.189  0.00  0.00    +0.007 A 
ATOM     21  C   UNL     1      -0.075  -2.099   1.184  0.00  0.00    +0.046 A 
ATOM     22  C   UNL     1      -0.019  -2.786  -0.020  0.00  0.00    +0.122 A 
ATOM     23  C   UNL     1      -0.018  -2.084  -1.217  0.00  0.00    +0.046 A 
ATOM     24  C   UNL     1      -0.077  -0.704  -1.207  0.00  0.00    +0.007 A 
ENDBRANCH  17  22
ENDBRANCH  15  17
ENDBRANCH   1  15
TORSDOF 5
