REMARK  Name = ZINC36742905
REMARK  4 active torsions:
REMARK  status: ('A' for Active; 'I' for Inactive)
REMARK    1  A    between atoms: C_3  and  S_6
REMARK    2  A    between atoms: S_6  and  N_9
REMARK    3  A    between atoms: N_9  and  C_10
REMARK    4  A    between atoms: C_15  and  N_16
REMARK                            x       y       z     vdW  Elec       q    Type
REMARK                         _______ _______ _______ _____ _____    ______ ____
ROOT
ATOM      1  C   UNL     1       4.490   0.969   2.395  0.00  0.00    +0.071 A 
ATOM      2  C   UNL     1       4.931  -0.256   1.915  0.00  0.00    +0.053 A 
ATOM      3  C   UNL     1       4.942  -1.361   2.751  0.00  0.00    +0.078 A 
ATOM      4  C   UNL     1       4.512  -1.244   4.071  0.00  0.00    +0.144 A 
ATOM      5  C   UNL     1       4.072  -0.023   4.551  0.00  0.00    +0.072 A 
ATOM      6  C   UNL     1       4.065   1.086   3.718  0.00  0.00    +0.051 A 
ATOM      7  O   UNL     1       4.528  -2.340   4.879  0.00  0.00    -0.481 OA
ATOM      8  C   UNL     1       4.277  -3.602   4.256  0.00  0.00    +0.325 C 
ATOM      9  C   UNL     1       5.097  -3.717   2.997  0.00  0.00    +0.255 C 
ATOM     10  O   UNL     1       5.496  -4.801   2.627  0.00  0.00    -0.272 OA
ATOM     11  N   UNL     1       5.387  -2.608   2.282  0.00  0.00    -0.280 N 
ATOM     12  H   UNL     1       5.894  -2.672   1.458  0.00  0.00    +0.155 HD
ENDROOT
BRANCH   6  13
ATOM     13  N   UNL     1       3.625   2.326   4.204  0.00  0.00    -0.356 N 
ATOM     14  H   UNL     1       3.616   3.100   3.620  0.00  0.00    +0.142 HD
ATOM     15  H   UNL     1       3.329   2.408   5.124  0.00  0.00    +0.142 HD
ENDBRANCH   6  13
BRANCH   1  16
ATOM     16  N   UNL     1       4.477   2.089   1.552  0.00  0.00    -0.214 N 
ATOM     17  H   UNL     1       4.680   2.968   1.909  0.00  0.00    +0.174 HD
BRANCH  16  18
ATOM     18  S   UNL     1       4.115   1.913  -0.054  0.00  0.00    +0.079 S 
ATOM     19  O   UNL     1       4.992   0.916  -0.561  0.00  0.00    -0.149 OA
ATOM     20  O   UNL     1       4.051   3.222  -0.603  0.00  0.00    -0.149 OA
BRANCH  18  23
ATOM     21  C   UNL     1       0.133   1.160  -0.286  0.00  0.00    +0.010 A 
ATOM     22  C   UNL     1       1.300   1.897  -0.215  0.00  0.00    +0.036 A 
ATOM     23  C   UNL     1       2.487   1.246  -0.151  0.00  0.00    +0.146 A 
ATOM     24  S   UNL     1       1.972  -0.463  -0.190  0.00  0.00    -0.077 S 
ATOM     25  C   UNL     1       0.210  -0.194  -0.290  0.00  0.00    +0.047 A 
ENDBRANCH  18  23
ENDBRANCH  16  18
ENDBRANCH   1  16
TORSDOF 4
