REMARK  Name = ZINC03436899
REMARK  7 active torsions:
REMARK  status: ('A' for Active; 'I' for Inactive)
REMARK    1  A    between atoms: C_1  and  C_2
REMARK    2  A    between atoms: C_2  and  C_4
REMARK    3  A    between atoms: C_2  and  O_19
REMARK    4  A    between atoms: N_6  and  C_7
REMARK    5  A    between atoms: C_12  and  C_13
REMARK    6  A    between atoms: O_19  and  C_20
REMARK    7  A    between atoms: C_20  and  C_22
REMARK                            x       y       z     vdW  Elec       q    Type
REMARK                         _______ _______ _______ _____ _____    ______ ____
ROOT
ATOM      1  C   UNL     1       7.393  -3.257   3.218  0.00  0.00    +0.258 C 
ATOM      2  O   UNL     1       6.732  -4.131   2.697  0.00  0.00    -0.271 OA
ATOM      3  N   UNL     1       8.635  -3.526   3.665  0.00  0.00    -0.282 N 
ATOM      4  H   UNL     1       9.193  -2.811   4.008  0.00  0.00    +0.155 HD
ENDROOT
BRANCH   3   5
ATOM      5  C   UNL     1       9.120  -4.837   3.635  0.00  0.00    +0.041 A 
ATOM      6  C   UNL     1       8.236  -5.906   3.652  0.00  0.00    +0.024 A 
ATOM      7  C   UNL     1       8.717  -7.201   3.617  0.00  0.00    +0.002 A 
ATOM      8  C   UNL     1      10.080  -7.439   3.575  0.00  0.00    +0.001 A 
ATOM      9  C   UNL     1      10.970  -6.385   3.562  0.00  0.00    +0.010 A 
ATOM     10  C   UNL     1      10.498  -5.075   3.592  0.00  0.00    +0.003 A 
BRANCH  10  11
ATOM     11  C   UNL     1      11.451  -3.939   3.579  0.00  0.00    -0.016 A 
ATOM     12  C   UNL     1      11.284  -2.897   2.669  0.00  0.00    +0.008 A 
ATOM     13  C   UNL     1      12.171  -1.839   2.664  0.00  0.00    +0.001 A 
ATOM     14  C   UNL     1      13.230  -1.818   3.553  0.00  0.00    +0.000 A 
ATOM     15  C   UNL     1      13.404  -2.852   4.455  0.00  0.00    +0.001 A 
ATOM     16  C   UNL     1      12.520  -3.912   4.473  0.00  0.00    +0.008 A 
ENDBRANCH  10  11
ENDBRANCH   3   5
BRANCH   1  18
ATOM     17  C   UNL     1       6.773  -1.492   4.846  0.00  0.00    +0.062 C 
ATOM     18  C   UNL     1       6.824  -1.869   3.364  0.00  0.00    +0.259 C 
BRANCH  18  19
ATOM     19  O   UNL     1       5.482  -1.835   2.810  0.00  0.00    -0.449 OA
BRANCH  19  20
ATOM     20  C   UNL     1       5.066  -0.664   2.288  0.00  0.00    +0.340 C 
ATOM     21  O   UNL     1       5.803   0.301   2.296  0.00  0.00    -0.245 OA
BRANCH  20  22
ATOM     22  C   UNL     1       3.714  -0.555   1.707  0.00  0.00    +0.063 A 
ATOM     23  C   UNL     1       2.864  -1.665   1.698  0.00  0.00    +0.019 A 
ATOM     24  C   UNL     1       1.602  -1.561   1.155  0.00  0.00    +0.050 A 
ATOM     25  C   UNL     1       1.170  -0.356   0.616  0.00  0.00    +0.166 A 
ATOM     26  C   UNL     1       2.014   0.755   0.623  0.00  0.00    +0.167 A 
ATOM     27  C   UNL     1       3.280   0.657   1.165  0.00  0.00    +0.064 A 
ATOM     28  O   UNL     1       1.359   1.802   0.041  0.00  0.00    -0.453 OA
ATOM     29  C   UNL     1      -0.034   1.436   0.050  0.00  0.00    +0.466 C 
ATOM     30  O   UNL     1      -0.010  -0.003   0.031  0.00  0.00    -0.453 OA
ENDBRANCH  20  22
ENDBRANCH  19  20
ENDBRANCH  18  19
ENDBRANCH   1  18
TORSDOF 6
