REMARK  Name = ZINC37327700
REMARK  4 active torsions:
REMARK  status: ('A' for Active; 'I' for Inactive)
REMARK    1  A    between atoms: C_1  and  C_2
REMARK    2  A    between atoms: N_12  and  C_13
REMARK    3  A    between atoms: C_16  and  C_18
REMARK    4  A    between atoms: C_18  and  C_20
REMARK                            x       y       z     vdW  Elec       q    Type
REMARK                         _______ _______ _______ _____ _____    ______ ____
ROOT
ATOM      1  C   UNL     1       0.218   1.509  -0.008  0.00  0.00    +0.063 C 
ATOM      2  C   UNL     1       0.169   0.003  -0.010  0.00  0.00    +0.015 A 
ATOM      3  C   UNL     1       0.121  -0.644  -1.195  0.00  0.00    +0.046 A 
ATOM      4  C   UNL     1       0.075  -2.056  -1.230  0.00  0.00    +0.069 A 
ATOM      5  C   UNL     1       0.082  -2.775   0.054  0.00  0.00    +0.021 A 
ATOM      6  C   UNL     1       0.039  -4.169   0.109  0.00  0.00    +0.012 A 
ATOM      7  C   UNL     1       0.047  -4.799   1.322  0.00  0.00    +0.001 A 
ATOM      8  C   UNL     1       0.098  -4.063   2.498  0.00  0.00    +0.002 A 
ATOM      9  C   UNL     1       0.141  -2.687   2.467  0.00  0.00    +0.026 A 
ATOM     10  C   UNL     1       0.133  -2.025   1.242  0.00  0.00    +0.048 A 
ATOM     11  N   UNL     1       0.181  -0.651   1.176  0.00  0.00    -0.358 N 
ATOM     12  N   UNL     1       0.027  -2.716  -2.392  0.00  0.00    -0.163 NA
ATOM     13  H   UNL     1       0.220  -0.138   1.998  0.00  0.00    +0.166 HD
ENDROOT
BRANCH  12  14
ATOM     14  C   UNL     1      -0.090  -2.043  -3.538  0.00  0.00    +0.330 C 
ATOM     15  O   UNL     1       0.863  -1.957  -4.293  0.00  0.00    -0.250 OA
ATOM     16  N   UNL     1      -1.260  -1.458  -3.860  0.00  0.00    -0.237 N 
ATOM     17  C   UNL     1      -1.378  -0.778  -5.018  0.00  0.00    +0.238 C 
ATOM     18  O   UNL     1      -0.430  -0.692  -5.769  0.00  0.00    -0.274 OA
ATOM     19  H   UNL     1      -2.018  -1.527  -3.259  0.00  0.00    +0.159 HD
BRANCH  17  20
ATOM     20  C   UNL     1      -2.687  -0.124  -5.378  0.00  0.00    +0.163 C 
ATOM     21  C   UNL     1      -3.018  -0.418  -6.843  0.00  0.00    +0.034 C 
ATOM     22 CL   UNL     1      -2.555   1.658  -5.138  0.00  0.00    -0.112 Cl
ENDBRANCH  17  20
ENDBRANCH  12  14
TORSDOF 2
