REMARK  Name = ZINC41062320
REMARK  4 active torsions:
REMARK  status: ('A' for Active; 'I' for Inactive)
REMARK    1  A    between atoms: C_1  and  C_2
REMARK    2  A    between atoms: C_2  and  C_3
REMARK    3  A    between atoms: C_6  and  C_8
REMARK    4  A    between atoms: C_8  and  C_15
REMARK                            x       y       z     vdW  Elec       q    Type
REMARK                         _______ _______ _______ _____ _____    ______ ____
ROOT
ATOM      1  C   UNL     1       1.755  -1.809  -5.073  0.00  0.00    +0.141 C 
ATOM      2  C   UNL     1       2.197  -3.259  -5.104  0.00  0.00    +0.249 C 
ATOM      3  O   UNL     1       3.203  -3.728  -4.615  0.00  0.00    -0.273 OA
ATOM      4  N   UNL     1       1.240  -3.918  -5.786  0.00  0.00    -0.238 N 
ATOM      5  C   UNL     1       0.265  -3.094  -6.187  0.00  0.00    +0.307 C 
ATOM      6  O   UNL     1      -0.708  -3.456  -6.820  0.00  0.00    -0.252 OA
ATOM      7  N   UNL     1       0.480  -1.821  -5.811  0.00  0.00    -0.281 N 
ATOM      8  C   UNL     1       2.778  -0.916  -5.779  0.00  0.00    +0.047 C 
ATOM      9  H   UNL     1       1.256  -4.871  -5.965  0.00  0.00    +0.159 HD
ATOM     10  H   UNL     1      -0.092  -1.058  -5.991  0.00  0.00    +0.152 HD
ENDROOT
BRANCH   1  14
ATOM     11  C   UNL     1       0.707  -0.490  -1.238  0.00  0.00    -0.010 A 
ATOM     12  C   UNL     1       2.023  -0.761  -1.421  0.00  0.00    +0.011 A 
ATOM     13  C   UNL     1       2.451  -1.202  -2.659  0.00  0.00    +0.014 A 
ATOM     14  C   UNL     1       1.542  -1.350  -3.654  0.00  0.00    +0.022 A 
ATOM     15  S   UNL     1       0.026  -0.866  -2.845  0.00  0.00    -0.096 S 
BRANCH  11  17
ATOM     16  C   UNL     1      -0.019   1.526   0.010  0.00  0.00    +0.009 C 
ATOM     17  C   UNL     1       0.002  -0.004   0.002  0.00  0.00    +0.039 C 
ENDBRANCH  11  17
ENDBRANCH   1  14
TORSDOF 2
