REMARK  Name = ZINC13499677
REMARK  15 active torsions:
REMARK  status: ('A' for Active; 'I' for Inactive)
REMARK    1  A    between atoms: C_1  and  C_2
REMARK    2  A    between atoms: C_2  and  C_3
REMARK    3  A    between atoms: C_3  and  C_4
REMARK    4  A    between atoms: C_4  and  C_6
REMARK    5  A    between atoms: C_4  and  N_70
REMARK    6  A    between atoms: N_10  and  C_11
REMARK    7  A    between atoms: C_11  and  C_12
REMARK    8  A    between atoms: C_18  and  C_19
REMARK    9  A    between atoms: C_18  and  N_70
REMARK   10  A    between atoms: C_19  and  C_20
REMARK   11  A    between atoms: C_20  and  O_21
REMARK   12  A    between atoms: C_22  and  C_23
REMARK   13  A    between atoms: C_22  and  N_70
REMARK   14  A    between atoms: C_26  and  C_36
REMARK   15  A    between atoms: C_29  and  C_35
REMARK                            x       y       z     vdW  Elec       q    Type
REMARK                         _______ _______ _______ _____ _____    ______ ____
ROOT
ATOM      1  N   UNL     1       2.868   3.887  -0.244  0.00  0.00    +0.389 N 
ATOM      2  H   UNL     1       3.109   3.337  -1.077  0.00  0.00    -0.080 HD
ENDROOT
BRANCH   1   3
ATOM      3  C   UNL     1       3.304   5.284  -0.450  0.00  0.00    +0.003 C 
BRANCH   3   4
ATOM      4  C   UNL     1       3.086   6.095   0.802  0.00  0.00    +0.138 A 
ATOM      5  N   UNL     1       3.484   5.789   2.012  0.00  0.00    -0.115 NA
ATOM      6  N   UNL     1       3.107   6.731   2.806  0.00  0.00    -0.023 NA
ATOM      7  N   UNL     1       2.478   7.630   2.133  0.00  0.00    -0.044 NA
ATOM      8  N   UNL     1       2.449   7.277   0.892  0.00  0.00    -0.228 N 
BRANCH   8   9
ATOM      9  C   UNL     1       1.834   8.022  -0.210  0.00  0.00    +0.178 C 
BRANCH   9  10
ATOM     10  C   UNL     1       0.374   7.592  -0.364  0.00  0.00    +0.140 C 
ATOM     11  C   UNL     1      -0.249   8.285  -1.595  0.00  0.00    +0.035 C 
ATOM     12  C   UNL     1      -1.679   8.624  -1.094  0.00  0.00    +0.031 C 
ATOM     13  C   UNL     1      -1.403   8.924   0.401  0.00  0.00    +0.160 C 
ATOM     14  O   UNL     1      -0.376   7.997   0.787  0.00  0.00    -0.375 OA
ENDBRANCH   9  10
ENDBRANCH   8   9
ENDBRANCH   3   4
BRANCH   3  15
ATOM     15  C   UNL     1       4.791   5.291  -0.808  0.00  0.00    -0.008 C 
BRANCH  15  17
ATOM     16  C   UNL     1       6.494   4.474  -2.444  0.00  0.00    +0.004 C 
ATOM     17  C   UNL     1       4.997   4.571  -2.143  0.00  0.00    -0.005 C 
ENDBRANCH  15  17
ENDBRANCH   3  15
ENDBRANCH   1   3
BRANCH   1  18
ATOM     18  C   UNL     1       1.405   3.839  -0.043  0.00  0.00    -0.075 C 
BRANCH  18  19
ATOM     19  C   UNL     1       0.715   4.125  -1.379  0.00  0.00    +0.009 C 
BRANCH  19  20
ATOM     20  C   UNL     1      -0.795   3.932  -1.225  0.00  0.00    +0.154 C 
BRANCH  20  21
ATOM     21  O   UNL     1      -1.439   4.199  -2.472  0.00  0.00    -0.395 OA
ATOM     22  H   UNL     1      -2.400   4.096  -2.448  0.00  0.00    +0.209 HD
ENDBRANCH  20  21
ENDBRANCH  19  20
ENDBRANCH  18  19
ENDBRANCH   1  18
BRANCH   1  23
ATOM     23  C   UNL     1       3.558   3.309   0.928  0.00  0.00    -0.037 C 
BRANCH  23  24
ATOM     24  C   UNL     1       3.489   1.807   0.837  0.00  0.00    +0.001 A 
ATOM     25  C   UNL     1       4.495   1.118   0.244  0.00  0.00    +0.017 A 
ATOM     26  C   UNL     1       4.396  -0.341   0.172  0.00  0.00    +0.002 A 
ATOM     27  C   UNL     1       5.403  -1.105  -0.427  0.00  0.00    -0.041 A 
ATOM     28  C   UNL     1       5.282  -2.465  -0.478  0.00  0.00    +0.004 A 
ATOM     29  C   UNL     1       4.168  -3.095   0.060  0.00  0.00    +0.005 A 
ATOM     30  C   UNL     1       3.164  -2.362   0.656  0.00  0.00    -0.026 A 
ATOM     31  C   UNL     1       3.266  -0.976   0.719  0.00  0.00    +0.052 A 
ATOM     32  N   UNL     1       2.277  -0.218   1.309  0.00  0.00    -0.322 N 
ATOM     33  H   UNL     1       1.498  -0.658   1.685  0.00  0.00    +0.169 HD
ATOM     34  C   UNL     1       2.378   1.121   1.375  0.00  0.00    +0.251 A 
ATOM     35  O   UNL     1       1.487   1.759   1.909  0.00  0.00    -0.268 OA
ATOM     36  C   UNL     1       1.961  -3.059   1.237  0.00  0.00    +0.046 C 
ATOM     37  C   UNL     1       6.617  -0.432  -1.014  0.00  0.00    +0.044 C 
ENDBRANCH  23  24
ENDBRANCH   1  23
TORSDOF 12
