REMARK  Name = ZINC27127073
REMARK  10 active torsions:
REMARK  status: ('A' for Active; 'I' for Inactive)
REMARK    1  A    between atoms: C_1  and  C_2
REMARK    2  A    between atoms: C_4  and  C_35
REMARK    3  A    between atoms: C_5  and  N_9
REMARK    4  A    between atoms: C_6  and  C_8
REMARK    5  A    between atoms: C_10  and  C_12
REMARK    6  A    between atoms: C_12  and  N_13
REMARK    7  A    between atoms: N_13  and  C_14
REMARK    8  A    between atoms: N_13  and  C_15
REMARK    9  A    between atoms: C_15  and  C_16
REMARK   10  A    between atoms: C_29  and  C_31
REMARK                            x       y       z     vdW  Elec       q    Type
REMARK                         _______ _______ _______ _____ _____    ______ ____
ROOT
ATOM      1  C   UNL     1      -1.617   1.110  -2.551  0.00  0.00    +0.204 C 
ATOM      2  O   UNL     1      -1.676   2.143  -3.183  0.00  0.00    -0.277 OA
ATOM      3  N   UNL     1      -0.559   0.287  -2.701  0.00  0.00    -0.259 N 
ATOM      4  C   UNL     1      -0.478  -0.910  -1.977  0.00  0.00    +0.058 A 
ATOM      5  C   UNL     1      -1.305  -1.978  -2.284  0.00  0.00    +0.025 A 
ATOM      6  C   UNL     1      -1.194  -3.160  -1.573  0.00  0.00    +0.002 A 
ATOM      7  C   UNL     1      -0.261  -3.279  -0.559  0.00  0.00    +0.002 A 
ATOM      8  C   UNL     1       0.562  -2.214  -0.242  0.00  0.00    +0.025 A 
ATOM      9  C   UNL     1       0.450  -1.024  -0.941  0.00  0.00    +0.055 A 
ATOM     10  N   UNL     1       1.233   0.085  -0.601  0.00  0.00    -0.284 N 
ATOM     11  C   UNL     1       1.890   0.779  -1.556  0.00  0.00    +0.219 C 
ATOM     12  O   UNL     1       2.497   1.786  -1.259  0.00  0.00    -0.275 OA
ATOM     13  C   UNL     1       1.874   0.310  -2.987  0.00  0.00    +0.128 C 
ATOM     14  C   UNL     1       0.522   0.625  -3.629  0.00  0.00    +0.194 C 
ATOM     15  H   UNL     1       1.317   0.398   0.450  0.00  0.00    +0.155 HD
ENDROOT
BRANCH  14  16
ATOM     16  C   UNL     1       0.365  -0.193  -4.912  0.00  0.00    +0.409 C 
ATOM     17  F   UNL     1      -0.868   0.102  -5.505  0.00  0.00    -0.169 F 
ATOM     18  F   UNL     1       1.398   0.129  -5.800  0.00  0.00    -0.169 F 
ATOM     19  F   UNL     1       0.421  -1.556  -4.606  0.00  0.00    -0.169 F 
ENDBRANCH  14  16
BRANCH   1  20
ATOM     20  C   UNL     1      -2.725   0.746  -1.597  0.00  0.00    +0.019 C 
BRANCH  20  21
ATOM     21  N   UNL     1      -3.751   1.796  -1.615  0.00  0.00    +0.389 N 
ATOM     22  C   UNL     1      -3.224   3.056  -1.073  0.00  0.00    -0.095 C 
ATOM     23  H   UNL     1      -4.037   1.972  -2.662  0.00  0.00    -0.081 HD
BRANCH  21  24
ATOM     24  C   UNL     1      -4.953   1.371  -0.884  0.00  0.00    +0.019 C 
BRANCH  24  26
ATOM     25  N   UNL     1      -7.270   2.172  -0.554  0.00  0.00    -0.287 N 
ATOM     26  C   UNL     1      -6.064   2.359  -1.127  0.00  0.00    +0.201 C 
ATOM     27  O   UNL     1      -5.875   3.323  -1.839  0.00  0.00    -0.278 OA
ATOM     28  H   UNL     1      -7.460   1.268   0.043  0.00  0.00    +0.155 HD
BRANCH  25  33
ATOM     29  C   UNL     1     -11.360   6.047  -1.220  0.00  0.00    +0.044 C 
ATOM     30  C   UNL     1     -10.273   5.018  -1.043  0.00  0.00    -0.050 A 
ATOM     31  C   UNL     1     -10.529   3.688  -1.327  0.00  0.00    +0.008 A 
ATOM     32  C   UNL     1      -9.535   2.743  -1.166  0.00  0.00    -0.029 A 
ATOM     33  C   UNL     1      -8.278   3.128  -0.718  0.00  0.00    +0.039 A 
ATOM     34  C   UNL     1      -8.027   4.462  -0.428  0.00  0.00    -0.029 A 
ATOM     35  C   UNL     1      -9.023   5.404  -0.596  0.00  0.00    +0.008 A 
ATOM     36  C   UNL     1      -6.666   4.883   0.064  0.00  0.00    +0.045 C 
ATOM     37  C   UNL     1      -9.815   1.295  -1.476  0.00  0.00    +0.045 C 
ENDBRANCH  25  33
ENDBRANCH  24  26
ENDBRANCH  21  24
ENDBRANCH  20  21
ENDBRANCH   1  20
TORSDOF 6
