REMARK  Name = ZINC13959404
REMARK  7 active torsions:
REMARK  status: ('A' for Active; 'I' for Inactive)
REMARK    1  A    between atoms: C_1  and  C_2
REMARK    2  A    between atoms: C_2  and  C_37
REMARK    3  A    between atoms: C_7  and  C_36
REMARK    4  A    between atoms: N_9  and  N_10
REMARK    5  A    between atoms: C_11  and  C_13
REMARK    6  A    between atoms: C_18  and  C_31
REMARK    7  A    between atoms: C_21  and  C_24
REMARK                            x       y       z     vdW  Elec       q    Type
REMARK                         _______ _______ _______ _____ _____    ______ ____
ROOT
ATOM      1  C   UNL     1      -2.689   0.670   1.702  0.00  0.00    +0.151 A 
ATOM      2  C   UNL     1      -2.047   1.745   2.360  0.00  0.00    +0.078 A 
ATOM      3  C   UNL     1      -0.722   1.613   2.156  0.00  0.00    +0.119 A 
ATOM      4  N   UNL     1      -0.517   0.499   1.393  0.00  0.00    -0.238 N 
ATOM      5  N   UNL     1      -1.761  -0.070   1.122  0.00  0.00    -0.164 NA
ATOM      6  C   UNL     1       0.807   0.037   0.968  0.00  0.00    +0.215 C 
ATOM      7  C   UNL     1       1.868   0.668   1.877  0.00  0.00    +0.063 C 
ATOM      8  C   UNL     1       1.642   2.181   1.970  0.00  0.00    +0.104 C 
ATOM      9  N   UNL     1       0.329   2.422   2.599  0.00  0.00    -0.322 N 
ATOM     10  H   UNL     1       0.202   3.101   3.280  0.00  0.00    +0.148 HD
ENDROOT
BRANCH   8  11
ATOM     11  C   UNL     1       2.728   2.804   2.809  0.00  0.00    -0.027 A 
ATOM     12  C   UNL     1       2.651   2.750   4.188  0.00  0.00    +0.008 A 
ATOM     13  C   UNL     1       3.649   3.316   4.959  0.00  0.00    +0.038 A 
ATOM     14  C   UNL     1       4.719   3.949   4.349  0.00  0.00    +0.123 A 
ATOM     15  C   UNL     1       4.792   4.007   2.968  0.00  0.00    +0.038 A 
ATOM     16  C   UNL     1       3.796   3.435   2.199  0.00  0.00    +0.008 A 
ATOM     17  F   UNL     1       5.692   4.508   5.102  0.00  0.00    -0.205 F 
ENDBRANCH   8  11
BRANCH   1  19
ATOM     18  N   UNL     1      -4.629  -0.643   0.997  0.00  0.00    -0.202 N 
ATOM     19  C   UNL     1      -4.144   0.421   1.667  0.00  0.00    +0.283 C 
ATOM     20  O   UNL     1      -4.905   1.177   2.241  0.00  0.00    -0.267 OA
ATOM     21  H   UNL     1      -4.022  -1.246   0.539  0.00  0.00    +0.178 HD
BRANCH  18  29
ATOM     22  C   UNL     1      -6.881  -4.473   1.737  0.00  0.00    +0.012 C 
ATOM     23  C   UNL     1      -6.636  -4.327   0.234  0.00  0.00    -0.021 C 
ATOM     24  C   UNL     1      -7.874  -3.710  -0.510  0.00  0.00    +0.001 C 
ATOM     25  C   UNL     1      -7.263  -3.456  -1.922  0.00  0.00    +0.005 C 
ATOM     26  C   UNL     1      -5.790  -3.076  -1.643  0.00  0.00    +0.013 C 
ATOM     27  C   UNL     1      -5.653  -3.144  -0.098  0.00  0.00    +0.013 C 
ATOM     28  C   UNL     1      -6.463  -1.948   0.422  0.00  0.00    +0.044 C 
ATOM     29  N   UNL     1      -6.010  -0.880   0.963  0.00  0.00    -0.188 NA
ATOM     30  C   UNL     1      -7.919  -2.299   0.151  0.00  0.00    +0.057 C 
ATOM     31  C   UNL     1      -4.224  -3.263   0.434  0.00  0.00    +0.018 C 
ATOM     32  C   UNL     1      -6.182  -5.644  -0.399  0.00  0.00    +0.012 C 
ENDBRANCH  18  29
ENDBRANCH   1  19
BRANCH   6  33
ATOM     33  C   UNL     1       0.878  -1.488   1.080  0.00  0.00    +0.412 C 
ATOM     34  F   UNL     1      -0.100  -2.061   0.261  0.00  0.00    -0.168 F 
ATOM     35  F   UNL     1       2.143  -1.927   0.674  0.00  0.00    -0.168 F 
ATOM     36  F   UNL     1       0.656  -1.868   2.408  0.00  0.00    -0.168 F 
ENDBRANCH   6  33
TORSDOF 4
