REMARK  Name = ZINC66674832
REMARK  6 active torsions:
REMARK  status: ('A' for Active; 'I' for Inactive)
REMARK    1  A    between atoms: C_1  and  C_2
REMARK    2  A    between atoms: C_2  and  N_3
REMARK    3  A    between atoms: N_3  and  C_4
REMARK    4  A    between atoms: C_10  and  C_12
REMARK    5  A    between atoms: C_13  and  C_15
REMARK    6  A    between atoms: C_17  and  C_21
REMARK                            x       y       z     vdW  Elec       q    Type
REMARK                         _______ _______ _______ _____ _____    ______ ____
ROOT
ATOM      1  N   UNL     1       0.687  -0.483  -1.201  0.00  0.00    -0.293 N 
ATOM      2  C   UNL     1      -0.025  -0.801  -2.300  0.00  0.00    +0.267 C 
ATOM      3  O   UNL     1       0.535  -1.272  -3.271  0.00  0.00    -0.268 OA
ENDROOT
BRANCH   1   4
ATOM      4  C   UNL     1       2.147  -0.600  -1.214  0.00  0.00    +0.079 C 
ATOM      5  C   UNL     1       2.540  -2.050  -1.502  0.00  0.00    +0.023 C 
ATOM      6  C   UNL     1       4.065  -2.172  -1.516  0.00  0.00    +0.002 C 
ATOM      7  C   UNL     1       4.640  -1.262  -2.603  0.00  0.00    +0.000 C 
ATOM      8  C   UNL     1       4.247   0.188  -2.314  0.00  0.00    +0.005 C 
ATOM      9  C   UNL     1       2.722   0.310  -2.301  0.00  0.00    +0.006 C 
ATOM     10  C   UNL     1       2.329   1.760  -2.013  0.00  0.00    +0.009 C 
ENDBRANCH   1   4
BRANCH   2  11
ATOM     11  C   UNL     1      -1.485  -0.576  -2.327  0.00  0.00    +0.148 A 
ATOM     12  C   UNL     1      -2.371  -0.959  -3.356  0.00  0.00    +0.065 A 
ATOM     13  C   UNL     1      -3.610  -0.545  -2.942  0.00  0.00    +0.101 A 
ATOM     14  N   UNL     1      -3.439   0.051  -1.726  0.00  0.00    -0.273 N 
ATOM     15  H   UNL     1      -4.150   0.440  -1.192  0.00  0.00    +0.189 HD
ATOM     16  N   UNL     1      -2.200   0.015  -1.390  0.00  0.00    -0.169 NA
BRANCH  13  17
ATOM     17  C   UNL     1      -4.880  -0.711  -3.670  0.00  0.00    +0.152 A 
ATOM     18  C   UNL     1      -6.104  -0.289  -3.248  0.00  0.00    +0.051 A 
ATOM     19  C   UNL     1      -7.026  -0.654  -4.249  0.00  0.00    +0.042 A 
ATOM     20  C   UNL     1      -6.328  -1.273  -5.222  0.00  0.00    +0.196 A 
ATOM     21  O   UNL     1      -5.032  -1.301  -4.872  0.00  0.00    -0.461 OA
ENDBRANCH  13  17
ENDBRANCH   2  11
BRANCH   1  23
ATOM     22  C   UNL     1      -0.216   1.491  -0.075  0.00  0.00    +0.024 C 
ATOM     23  C   UNL     1      -0.000  -0.021   0.008  0.00  0.00    +0.105 C 
ENDBRANCH   1  23
TORSDOF 4
