REMARK  Name = ZINC63494551
REMARK  6 active torsions:
REMARK  status: ('A' for Active; 'I' for Inactive)
REMARK    1  A    between atoms: C_1  and  C_2
REMARK    2  A    between atoms: C_11  and  C_17
REMARK    3  A    between atoms: N_19  and  C_20
REMARK    4  A    between atoms: C_20  and  C_21
REMARK    5  A    between atoms: C_21  and  O_22
REMARK    6  A    between atoms: O_22  and  C_23
REMARK                            x       y       z     vdW  Elec       q    Type
REMARK                         _______ _______ _______ _____ _____    ______ ____
ROOT
ATOM      1  C   UNL     1      -1.150  -4.279   5.587  0.00  0.00    +0.230 C 
ATOM      2  O   UNL     1      -2.183  -4.630   5.056  0.00  0.00    -0.274 OA
ATOM      3  N   UNL     1      -1.105  -4.101   6.922  0.00  0.00    -0.312 N 
ATOM      4  H   UNL     1      -0.280  -3.820   7.347  0.00  0.00    +0.149 HD
ENDROOT
BRANCH   1  15
ATOM      5  C   UNL     1      -0.018   1.503   0.010  0.00  0.00    +0.044 C 
ATOM      6  C   UNL     1       0.002  -0.004   0.002  0.00  0.00    -0.050 A 
ATOM      7  C   UNL     1       0.006  -0.686  -1.211  0.00  0.00    +0.005 A 
ATOM      8  C   UNL     1       0.024  -2.048  -1.249  0.00  0.00    +0.024 A 
ATOM      9  C   UNL     1       0.040  -2.785  -0.054  0.00  0.00    +0.042 A 
ATOM     10  N   UNL     1       0.059  -4.124  -0.092  0.00  0.00    -0.281 N 
ATOM     11  C   UNL     1       0.074  -4.891   0.979  0.00  0.00    +0.249 C 
ATOM     12  O   UNL     1       0.090  -6.106   0.855  0.00  0.00    -0.270 OA
ATOM     13  C   UNL     1       0.073  -4.284   2.349  0.00  0.00    +0.049 C 
ATOM     14  C   UNL     1       0.088  -4.932   3.530  0.00  0.00    +0.011 C 
ATOM     15  C   UNL     1       0.083  -4.043   4.754  0.00  0.00    +0.160 C 
ATOM     16  S   UNL     1       0.056  -2.372   3.995  0.00  0.00    -0.107 S 
ATOM     17  C   UNL     1       0.053  -2.814   2.384  0.00  0.00    +0.030 C 
ATOM     18  C   UNL     1       0.037  -2.088   1.181  0.00  0.00    +0.011 A 
ATOM     19  C   UNL     1       0.022  -0.685   1.183  0.00  0.00    +0.014 A 
ATOM     20  H   UNL     1       0.060  -4.555  -0.961  0.00  0.00    +0.155 HD
ENDBRANCH   1  15
BRANCH   3  21
ATOM     21  C   UNL     1      -2.304  -4.330   7.732  0.00  0.00    +0.132 C 
BRANCH  21  22
ATOM     22  C   UNL     1      -1.985  -4.059   9.204  0.00  0.00    +0.179 C 
BRANCH  22  23
ATOM     23  O   UNL     1      -1.671  -2.675   9.376  0.00  0.00    -0.372 OA
BRANCH  23  24
ATOM     24  C   UNL     1      -1.356  -2.313  10.722  0.00  0.00    +0.070 C 
ATOM     25  C   UNL     1      -0.140  -3.114  11.194  0.00  0.00    +0.038 C 
ATOM     26  C   UNL     1       0.197  -2.727  12.635  0.00  0.00    -0.008 C 
ATOM     27  C   UNL     1       0.514  -1.231  12.700  0.00  0.00    +0.007 C 
ATOM     28  C   UNL     1      -0.701  -0.431  12.229  0.00  0.00    -0.008 C 
ATOM     29  C   UNL     1      -1.039  -0.818  10.787  0.00  0.00    +0.038 C 
ATOM     30  C   UNL     1      -1.897  -0.739  13.133  0.00  0.00    +0.007 C 
ATOM     31  C   UNL     1      -2.214  -2.234  13.067  0.00  0.00    -0.008 C 
ATOM     32  C   UNL     1      -0.998  -3.034  13.539  0.00  0.00    +0.007 C 
ATOM     33  C   UNL     1      -2.551  -2.621  11.626  0.00  0.00    +0.038 C 
ENDBRANCH  23  24
ENDBRANCH  22  23
ENDBRANCH  21  22
ENDBRANCH   3  21
TORSDOF 5
