REMARK  Name = ZINC21935905
REMARK  10 active torsions:
REMARK  status: ('A' for Active; 'I' for Inactive)
REMARK    1  A    between atoms: C_1  and  C_2
REMARK    2  A    between atoms: C_2  and  C_3
REMARK    3  A    between atoms: C_3  and  C_5
REMARK    4  A    between atoms: C_3  and  S_15
REMARK    5  A    between atoms: N_7  and  C_8
REMARK    6  A    between atoms: C_13  and  C_14
REMARK    7  A    between atoms: S_15  and  C_16
REMARK    8  A    between atoms: C_26  and  C_31
REMARK    9  A    between atoms: C_31  and  C_32
REMARK   10  A    between atoms: C_31  and  C_33
REMARK                            x       y       z     vdW  Elec       q    Type
REMARK                         _______ _______ _______ _____ _____    ______ ____
ROOT
ATOM      1  C   UNL     1      -3.549   1.632  -0.197  0.00  0.00    +0.170 C 
ATOM      2  N   UNL     1      -2.418   0.990  -0.077  0.00  0.00    -0.225 NA
ATOM      3  C   UNL     1      -1.222   1.630  -0.068  0.00  0.00    +0.077 A 
ATOM      4  C   UNL     1      -0.023   0.925   0.061  0.00  0.00    +0.028 A 
ATOM      5  C   UNL     1       1.174   1.607   0.060  0.00  0.00    +0.002 A 
ATOM      6  C   UNL     1       1.204   2.989  -0.061  0.00  0.00    +0.001 A 
ATOM      7  C   UNL     1       0.032   3.706  -0.184  0.00  0.00    +0.013 A 
ATOM      8  C   UNL     1      -1.186   3.034  -0.185  0.00  0.00    +0.041 A 
ATOM      9  C   UNL     1      -2.468   3.761  -0.313  0.00  0.00    +0.139 C 
ATOM     10  N   UNL     1      -2.708   5.036  -0.439  0.00  0.00    -0.255 NA
ATOM     11  C   UNL     1      -4.163   5.214  -0.528  0.00  0.00    +0.196 C 
ATOM     12  C   UNL     1      -4.710   3.804  -0.454  0.00  0.00    +0.252 C 
ATOM     13  O   UNL     1      -5.873   3.465  -0.488  0.00  0.00    -0.272 OA
ATOM     14  N   UNL     1      -3.628   3.003  -0.323  0.00  0.00    -0.200 N 
ENDROOT
BRANCH  11  15
ATOM     15  C   UNL     1      -4.671   6.069   0.634  0.00  0.00    +0.016 C 
ATOM     16  C   UNL     1      -4.027   7.455   0.567  0.00  0.00    +0.010 C 
ATOM     17  C   UNL     1      -6.192   6.209   0.538  0.00  0.00    +0.010 C 
ENDBRANCH  11  15
BRANCH   1  18
ATOM     18  S   UNL     1      -5.046   0.702  -0.196  0.00  0.00    -0.077 S 
BRANCH  18  19
ATOM     19  C   UNL     1      -4.373  -0.977  -0.132  0.00  0.00    +0.140 C 
BRANCH  19  20
ATOM     20  C   UNL     1      -3.610  -1.261  -1.400  0.00  0.00    +0.231 C 
ATOM     21  O   UNL     1      -3.816  -0.596  -2.393  0.00  0.00    -0.274 OA
ATOM     22  N   UNL     1      -2.699  -2.254  -1.430  0.00  0.00    -0.284 N 
ATOM     23  H   UNL     1      -2.449  -2.800  -0.508  0.00  0.00    +0.155 HD
BRANCH  22  24
ATOM     24  C   UNL     1      -2.071  -2.591  -2.634  0.00  0.00    +0.036 A 
ATOM     25  C   UNL     1      -2.649  -2.232  -3.845  0.00  0.00    +0.023 A 
ATOM     26  C   UNL     1      -2.027  -2.565  -5.032  0.00  0.00    +0.002 A 
ATOM     27  C   UNL     1      -0.829  -3.256  -5.016  0.00  0.00    +0.000 A 
ATOM     28  C   UNL     1      -0.251  -3.616  -3.812  0.00  0.00    +0.005 A 
ATOM     29  C   UNL     1      -0.866  -3.280  -2.622  0.00  0.00    -0.029 A 
ATOM     30  C   UNL     1      -0.231  -3.665  -1.310  0.00  0.00    +0.045 C 
ENDBRANCH  22  24
ENDBRANCH  19  20
BRANCH  19  32
ATOM     31  C   UNL     1      -6.216  -1.772   1.356  0.00  0.00    +0.005 C 
ATOM     32  C   UNL     1      -5.519  -1.981   0.010  0.00  0.00    +0.020 C 
ENDBRANCH  19  32
ENDBRANCH  18  19
ENDBRANCH   1  18
TORSDOF 6
