REMARK  Name = ZINC24496198
REMARK  11 active torsions:
REMARK  status: ('A' for Active; 'I' for Inactive)
REMARK    1  A    between atoms: C_1  and  C_2
REMARK    2  A    between atoms: C_5  and  C_12
REMARK    3  A    between atoms: N_9  and  C_11
REMARK    4  A    between atoms: N_14  and  C_15
REMARK    5  A    between atoms: C_15  and  C_16
REMARK    6  A    between atoms: C_16  and  N_23
REMARK    7  A    between atoms: C_24  and  O_26
REMARK    8  A    between atoms: O_26  and  C_27
REMARK    9  A    between atoms: C_27  and  C_28
REMARK   10  A    between atoms: C_27  and  C_29
REMARK   11  A    between atoms: C_27  and  C_30
REMARK                            x       y       z     vdW  Elec       q    Type
REMARK                         _______ _______ _______ _____ _____    ______ ____
ROOT
ATOM      1  C   UNL     1       0.001  -2.403  -7.144  0.00  0.00    +0.130 C 
ENDROOT
BRANCH   1   2
ATOM      2  C   UNL     1       0.142  -3.756  -7.844  0.00  0.00    +0.053 C 
ATOM      3  C   UNL     1       1.370  -4.491  -7.268  0.00  0.00    +0.027 C 
ATOM      4  C   UNL     1       1.224  -5.961  -7.551  0.00  0.00    +0.002 C 
ATOM      5  C   UNL     1       1.937  -6.385  -8.849  0.00  0.00    +0.000 C 
ATOM      6  C   UNL     1       1.740  -5.376  -9.996  0.00  0.00    +0.000 C 
ATOM      7  C   UNL     1       0.329  -4.858 -10.071  0.00  0.00    +0.002 C 
ATOM      8  C   UNL     1       0.250  -3.537  -9.278  0.00  0.00    +0.027 C 
BRANCH   2   9
ATOM      9  N   UNL     1      -1.056  -4.556  -7.575  0.00  0.00    -0.274 N 
ATOM     10  C   UNL     1      -2.253  -4.157  -8.049  0.00  0.00    +0.401 C 
ATOM     11  O   UNL     1      -2.354  -3.090  -8.622  0.00  0.00    -0.226 OA
ATOM     12  H   UNL     1      -0.987  -5.372  -7.055  0.00  0.00    +0.153 HD
BRANCH  10  13
ATOM     13  O   UNL     1      -3.336  -4.940  -7.887  0.00  0.00    -0.445 OA
BRANCH  13  14
ATOM     14  C   UNL     1      -4.572  -4.454  -8.414  0.00  0.00    +0.107 C 
ATOM     15  C   UNL     1      -4.436  -4.248  -9.924  0.00  0.00    +0.055 C 
ATOM     16  C   UNL     1      -5.680  -5.472  -8.136  0.00  0.00    +0.055 C 
ATOM     17  C   UNL     1      -4.923  -3.123  -7.747  0.00  0.00    +0.055 C 
ENDBRANCH  13  14
ENDBRANCH  10  13
ENDBRANCH   2   9
ENDBRANCH   1   2
BRANCH   1  20
ATOM     18  C   UNL     1      -0.164  -1.552  -4.867  0.00  0.00    +0.246 C 
ATOM     19  O   UNL     1      -0.075  -0.425  -5.313  0.00  0.00    -0.270 OA
ATOM     20  N   UNL     1      -0.136  -2.611  -5.701  0.00  0.00    -0.309 N 
ATOM     21  H   UNL     1      -0.206  -3.510  -5.345  0.00  0.00    +0.149 HD
BRANCH  18  26
ATOM     22  C   UNL     1      -0.472   1.417   0.047  0.00  0.00    +0.068 C 
ATOM     23  C   UNL     1      -0.535  -0.088   0.016  0.00  0.00    +0.069 A 
ATOM     24  C   UNL     1      -0.465  -0.930  -1.175  0.00  0.00    +0.042 A 
ATOM     25  C   UNL     1      -0.333  -0.672  -2.541  0.00  0.00    +0.028 A 
ATOM     26  C   UNL     1      -0.302  -1.762  -3.412  0.00  0.00    +0.056 A 
ATOM     27  C   UNL     1      -0.406  -3.058  -2.888  0.00  0.00    +0.126 A 
ATOM     28  N   UNL     1      -0.530  -3.266  -1.599  0.00  0.00    -0.235 NA
ATOM     29  C   UNL     1      -0.564  -2.264  -0.727  0.00  0.00    +0.158 A 
ATOM     30  N   UNL     1      -0.682  -2.209   0.633  0.00  0.00    -0.249 N 
ATOM     31  N   UNL     1      -0.655  -0.874   1.047  0.00  0.00    -0.174 NA
ATOM     32  C   UNL     1      -0.813  -3.369   1.520  0.00  0.00    +0.174 C 
ENDBRANCH  18  26
ENDBRANCH   1  20
TORSDOF 6
