REMARK  Name = ZINC04083642
REMARK  5 active torsions:
REMARK  status: ('A' for Active; 'I' for Inactive)
REMARK    1  A    between atoms: C_1  and  C_2
REMARK    2  A    between atoms: C_2  and  C_3
REMARK    3  A    between atoms: C_6  and  C_9
REMARK    4  A    between atoms: N_16  and  C_31
REMARK    5  A    between atoms: C_19  and  C_30
REMARK                            x       y       z     vdW  Elec       q    Type
REMARK                         _______ _______ _______ _____ _____    ______ ____
ROOT
ATOM      1  C   UNL     1       1.962  -4.401   0.730  0.00  0.00    +0.069 C 
ATOM      2  C   UNL     1       0.599  -4.231   0.048  0.00  0.00    +0.122 C 
ATOM      3  N   UNL     1       0.269  -2.797   0.035  0.00  0.00    -0.280 N 
ATOM      4  C   UNL     1       0.191  -2.162  -1.138  0.00  0.00    +0.234 C 
ATOM      5  O   UNL     1       0.251  -2.828  -2.149  0.00  0.00    -0.274 OA
ATOM      6  C   UNL     1      -0.007  -0.683  -1.283  0.00  0.00    +0.203 C 
ATOM      7  N   UNL     1       0.002  -0.004   0.002  0.00  0.00    -0.294 N 
ATOM      8  C   UNL     1       0.022  -0.639   1.174  0.00  0.00    +0.245 C 
ATOM      9  O   UNL     1       0.025   0.029   2.185  0.00  0.00    -0.273 OA
ATOM     10  C   UNL     1       0.041  -2.126   1.314  0.00  0.00    +0.151 C 
ATOM     11  C   UNL     1       1.139  -2.555   2.256  0.00  0.00    +0.054 A 
ATOM     12  C   UNL     1       1.989  -3.572   1.988  0.00  0.00    -0.008 A 
ATOM     13  C   UNL     1       2.889  -3.680   3.118  0.00  0.00    +0.004 A 
ATOM     14  C   UNL     1       3.959  -4.535   3.399  0.00  0.00    +0.010 A 
ATOM     15  C   UNL     1       4.603  -4.350   4.597  0.00  0.00    +0.001 A 
ATOM     16  C   UNL     1       4.220  -3.367   5.495  0.00  0.00    +0.002 A 
ATOM     17  C   UNL     1       3.165  -2.507   5.242  0.00  0.00    +0.026 A 
ATOM     18  C   UNL     1       2.494  -2.670   4.033  0.00  0.00    +0.047 A 
ATOM     19  N   UNL     1       1.436  -2.010   3.477  0.00  0.00    -0.356 N 
ATOM     20  H   UNL     1       0.965  -1.266   3.885  0.00  0.00    +0.166 HD
ATOM     21  C   UNL     1      -1.304  -2.586   1.880  0.00  0.00    +0.048 C 
ATOM     22  C   UNL     1      -0.018   1.461   0.010  0.00  0.00    +0.132 C 
ENDROOT
BRANCH   1  26
ATOM     23  C   UNL     1       5.055  -3.095  -1.910  0.00  0.00    -0.048 A 
ATOM     24  C   UNL     1       5.044  -4.398  -1.450  0.00  0.00    +0.004 A 
ATOM     25  C   UNL     1       4.043  -4.821  -0.595  0.00  0.00    +0.004 A 
ATOM     26  C   UNL     1       3.053  -3.940  -0.201  0.00  0.00    -0.038 A 
ATOM     27  C   UNL     1       3.061  -2.638  -0.666  0.00  0.00    +0.004 A 
ATOM     28  C   UNL     1       4.065  -2.214  -1.517  0.00  0.00    +0.004 A 
BRANCH  23  30
ATOM     29  C   UNL     1       5.714  -2.872  -4.291  0.00  0.00    +0.009 C 
ATOM     30  C   UNL     1       6.146  -2.634  -2.842  0.00  0.00    +0.032 C 
ENDBRANCH  23  30
ENDBRANCH   1  26
TORSDOF 2
