REMARK  Name = ZINC41834252
REMARK  8 active torsions:
REMARK  status: ('A' for Active; 'I' for Inactive)
REMARK    1  A    between atoms: C_1  and  C_2
REMARK    2  A    between atoms: C_2  and  C_3
REMARK    3  A    between atoms: C_2  and  C_11
REMARK    4  A    between atoms: C_2  and  N_14
REMARK    5  A    between atoms: N_14  and  C_15
REMARK    6  A    between atoms: C_15  and  C_16
REMARK    7  A    between atoms: C_15  and  C_17
REMARK    8  A    between atoms: C_15  and  C_18
REMARK                            x       y       z     vdW  Elec       q    Type
REMARK                         _______ _______ _______ _____ _____    ______ ____
ROOT
ATOM      1  C   UNL     1       0.026   0.925   0.660  0.00  0.00    +0.045 C 
ATOM      2  C   UNL     1       0.603  -0.332   0.006  0.00  0.00    +0.147 C 
ENDROOT
BRANCH   2   3
ATOM      3  C   UNL     1       1.975  -0.606   0.568  0.00  0.00    +0.021 A 
ATOM      4  C   UNL     1       3.073  -0.627  -0.271  0.00  0.00    +0.047 A 
ATOM      5  C   UNL     1       4.333  -0.878   0.245  0.00  0.00    +0.124 A 
ATOM      6  C   UNL     1       4.493  -1.108   1.601  0.00  0.00    +0.041 A 
ATOM      7  C   UNL     1       3.395  -1.087   2.439  0.00  0.00    +0.041 A 
ATOM      8  C   UNL     1       2.135  -0.831   1.924  0.00  0.00    +0.129 A 
ATOM      9  F   UNL     1       1.062  -0.805   2.745  0.00  0.00    -0.205 F 
ATOM     10  F   UNL     1       5.407  -0.899  -0.575  0.00  0.00    -0.205 F 
ENDBRANCH   2   3
BRANCH   2  11
ATOM     11  C   UNL     1      -0.299  -1.505   0.290  0.00  0.00    +0.380 C 
ATOM     12  O   UNL     1      -0.474  -2.359  -0.562  0.00  0.00    -0.244 OA
ATOM     13  O   UNL     1      -0.854  -1.600   1.372  0.00  0.00    -0.244 OA
ENDBRANCH   2  11
BRANCH   2  14
ATOM     14  N   UNL     1       0.700  -0.128  -1.445  0.00  0.00    -0.285 NA
ATOM     15  H   UNL     1       1.491   0.454  -1.677  0.00  0.00    +0.124 HD
BRANCH  14  16
ATOM     16  C   UNL     1      -0.545   0.437  -1.982  0.00  0.00    +0.091 C 
ATOM     17  C   UNL     1      -1.741  -0.314  -1.394  0.00  0.00    +0.037 C 
ATOM     18  C   UNL     1      -0.637   1.917  -1.604  0.00  0.00    +0.037 C 
BRANCH  16  19
ATOM     19  C   UNL     1      -0.554   0.300  -3.482  0.00  0.00    +0.230 C 
ATOM     20  O   UNL     1      -1.595   0.085  -4.066  0.00  0.00    -0.274 OA
ATOM     21  N   UNL     1       0.596   0.415  -4.176  0.00  0.00    -0.328 N 
ATOM     22  H   UNL     1       1.429   0.586  -3.709  0.00  0.00    +0.145 HD
ATOM     23  H   UNL     1       0.590   0.326  -5.142  0.00  0.00    +0.145 HD
ENDBRANCH  16  19
ENDBRANCH  14  16
ENDBRANCH   2  14
TORSDOF 5
