REMARK  Name = ZINC16651120
REMARK  12 active torsions:
REMARK  status: ('A' for Active; 'I' for Inactive)
REMARK    1  A    between atoms: C_1  and  C_2
REMARK    2  A    between atoms: C_6  and  C_40
REMARK    3  A    between atoms: C_7  and  N_8
REMARK    4  A    between atoms: N_11  and  C_12
REMARK    5  A    between atoms: N_11  and  C_19
REMARK    6  A    between atoms: C_12  and  C_13
REMARK    7  A    between atoms: C_19  and  C_20
REMARK    8  A    between atoms: N_22  and  C_23
REMARK    9  A    between atoms: N_22  and  C_33
REMARK   10  A    between atoms: C_23  and  C_24
REMARK   11  A    between atoms: C_33  and  C_34
REMARK   12  A    between atoms: C_37  and  C_39
REMARK                            x       y       z     vdW  Elec       q    Type
REMARK                         _______ _______ _______ _____ _____    ______ ____
ROOT
ATOM      1  C   UNL     1      -3.594   2.030   4.792  0.00  0.00    +0.205 C 
ENDROOT
BRANCH   1   5
ATOM      2  N   UNL     1      -3.931  -1.631   4.805  0.00  0.00    -0.269 N 
ATOM      3  C   UNL     1      -3.512  -0.385   5.102  0.00  0.00    +0.307 C 
ATOM      4  O   UNL     1      -2.649  -0.218   5.943  0.00  0.00    -0.252 OA
ATOM      5  N   UNL     1      -4.049   0.676   4.468  0.00  0.00    -0.274 N 
ATOM      6  H   UNL     1      -4.666  -1.760   4.186  0.00  0.00    +0.156 HD
BRANCH   2  13
ATOM      7  C   UNL     1      -5.564  -3.572   6.096  0.00  0.00    +0.045 C 
ATOM      8  C   UNL     1      -4.064  -3.709   6.029  0.00  0.00    -0.029 A 
ATOM      9  C   UNL     1      -3.444  -4.802   6.601  0.00  0.00    +0.005 A 
ATOM     10  C   UNL     1      -2.068  -4.926   6.545  0.00  0.00    +0.001 A 
ATOM     11  C   UNL     1      -1.309  -3.958   5.913  0.00  0.00    +0.005 A 
ATOM     12  C   UNL     1      -1.923  -2.865   5.335  0.00  0.00    -0.029 A 
ATOM     13  C   UNL     1      -3.305  -2.738   5.389  0.00  0.00    +0.041 A 
ATOM     14  C   UNL     1      -1.095  -1.810   4.647  0.00  0.00    +0.045 C 
ENDBRANCH   2  13
BRANCH   5  15
ATOM     15  C   UNL     1      -5.089   0.475   3.456  0.00  0.00    +0.141 C 
BRANCH  15  16
ATOM     16  C   UNL     1      -4.437   0.308   2.082  0.00  0.00    +0.136 C 
ATOM     17  C   UNL     1      -5.523   0.096   1.009  0.00  0.00    +0.035 C 
ATOM     18  C   UNL     1      -5.301   1.257   0.010  0.00  0.00    +0.031 C 
ATOM     19  C   UNL     1      -3.833   1.661   0.302  0.00  0.00    +0.160 C 
ATOM     20  O   UNL     1      -3.719   1.504   1.733  0.00  0.00    -0.375 OA
ENDBRANCH  15  16
ENDBRANCH   5  15
ENDBRANCH   1   5
BRANCH   1  21
ATOM     21  C   UNL     1      -2.439   2.399   3.896  0.00  0.00    +0.234 C 
ATOM     22  O   UNL     1      -2.036   1.609   3.070  0.00  0.00    -0.274 OA
ATOM     23  N   UNL     1      -1.854   3.608   4.014  0.00  0.00    -0.289 N 
BRANCH  23  24
ATOM     24  C   UNL     1      -0.732   3.966   3.144  0.00  0.00    +0.143 C 
BRANCH  24  25
ATOM     25  C   UNL     1       0.563   3.556   3.798  0.00  0.00    -0.026 A 
ATOM     26  C   UNL     1       1.228   4.441   4.626  0.00  0.00    +0.009 A 
ATOM     27  C   UNL     1       2.419   4.071   5.223  0.00  0.00    +0.050 A 
ATOM     28  C   UNL     1       2.947   2.811   4.995  0.00  0.00    +0.166 A 
ATOM     29  C   UNL     1       2.277   1.919   4.162  0.00  0.00    +0.167 A 
ATOM     30  C   UNL     1       1.084   2.297   3.566  0.00  0.00    +0.054 A 
ATOM     31  O   UNL     1       2.993   0.759   4.098  0.00  0.00    -0.453 OA
ATOM     32  C   UNL     1       3.894   0.802   5.220  0.00  0.00    +0.466 C 
ATOM     33  O   UNL     1       4.084   2.210   5.453  0.00  0.00    -0.453 OA
ENDBRANCH  24  25
ENDBRANCH  23  24
BRANCH  23  34
ATOM     34  C   UNL     1      -2.341   4.562   5.013  0.00  0.00    +0.182 C 
BRANCH  34  35
ATOM     35  C   UNL     1      -3.417   5.423   4.403  0.00  0.00    +0.122 A 
ATOM     36  C   UNL     1      -4.734   5.154   4.404  0.00  0.00    +0.046 A 
ATOM     37  C   UNL     1      -5.371   6.220   3.728  0.00  0.00    +0.045 A 
ATOM     38  C   UNL     1      -4.404   7.077   3.355  0.00  0.00    +0.102 A 
ATOM     39  O   UNL     1      -3.223   6.593   3.771  0.00  0.00    -0.463 OA
ATOM     40  C   UNL     1      -4.612   8.367   2.603  0.00  0.00    +0.086 C 
ENDBRANCH  34  35
ENDBRANCH  23  34
ENDBRANCH   1  21
TORSDOF 9
