REMARK  Name = ZINC09476932
REMARK  11 active torsions:
REMARK  status: ('A' for Active; 'I' for Inactive)
REMARK    1  A    between atoms: C_1  and  C_2
REMARK    2  A    between atoms: C_2  and  C_3
REMARK    3  A    between atoms: C_2  and  C_4
REMARK    4  A    between atoms: C_4  and  C_5
REMARK    5  A    between atoms: C_5  and  C_6
REMARK    6  A    between atoms: C_6  and  C_16
REMARK    7  A    between atoms: C_10  and  C_13
REMARK    8  A    between atoms: C_13  and  C_14
REMARK    9  A    between atoms: C_13  and  C_15
REMARK   10  A    between atoms: C_16  and  C_17
REMARK   11  A    between atoms: C_17  and  N_59
REMARK                            x       y       z     vdW  Elec       q    Type
REMARK                         _______ _______ _______ _____ _____    ______ ____
ROOT
ATOM      1  C   UNL     1       1.331   2.173   0.237  0.00  0.00    -0.026 C 
ATOM      2  C   UNL     1       2.046   1.399   1.348  0.00  0.00    +0.035 C 
ATOM      3  C   UNL     1       3.422   2.025   1.592  0.00  0.00    +0.161 C 
ATOM      4  O   UNL     1       3.263   3.405   1.930  0.00  0.00    -0.376 OA
ATOM      5  C   UNL     1       2.642   4.188   0.908  0.00  0.00    +0.121 C 
ATOM      6  C   UNL     1       1.235   3.648   0.637  0.00  0.00    +0.038 C 
ENDROOT
BRANCH   5   7
ATOM      7  C   UNL     1       2.550   5.644   1.367  0.00  0.00    +0.012 C 
ATOM      8  C   UNL     1       3.956   6.184   1.637  0.00  0.00    +0.010 C 
ATOM      9  C   UNL     1       1.885   6.482   0.273  0.00  0.00    +0.010 C 
ENDBRANCH   5   7
BRANCH   1  10
ATOM     10  C   UNL     1       2.121   2.046  -1.067  0.00  0.00    +0.007 C 
BRANCH  10  11
ATOM     11  C   UNL     1       2.210   0.573  -1.470  0.00  0.00    +0.003 C 
BRANCH  11  13
ATOM     12  C   UNL     1       4.367   0.924  -2.680  0.00  0.00    +0.007 C 
ATOM     13  C   UNL     1       2.917   0.455  -2.821  0.00  0.00    -0.017 C 
ATOM     14  C   UNL     1       2.895  -1.004  -3.282  0.00  0.00    +0.007 C 
ENDBRANCH  11  13
ENDBRANCH  10  11
ENDBRANCH   1  10
BRANCH   1  15
ATOM     15  C   UNL     1      -0.075   1.603   0.040  0.00  0.00    -0.012 C 
BRANCH  15  16
ATOM     16  C   UNL     1      -0.774   2.351  -1.097  0.00  0.00    -0.078 C 
BRANCH  16  22
ATOM     17  C   UNL     1      -2.228   0.488  -1.626  0.00  0.00    -0.050 C 
ATOM     18  C   UNL     1      -3.691   0.036  -1.663  0.00  0.00    +0.141 C 
ATOM     19  O   UNL     1      -4.428   0.898  -2.535  0.00  0.00    -0.383 OA
ATOM     20  C   UNL     1      -4.389   2.275  -2.151  0.00  0.00    +0.141 C 
ATOM     21  C   UNL     1      -2.934   2.749  -2.118  0.00  0.00    -0.050 C 
ATOM     22  N   UNL     1      -2.178   1.895  -1.177  0.00  0.00    +0.383 N 
ATOM     23  H   UNL     1      -2.605   1.964  -0.246  0.00  0.00    -0.082 HD
ENDBRANCH  16  22
ENDBRANCH  15  16
ENDBRANCH   1  15
TORSDOF 7
