REMARK  Name = ZINC08839223
REMARK  5 active torsions:
REMARK  status: ('A' for Active; 'I' for Inactive)
REMARK    1  A    between atoms: C_1  and  C_2
REMARK    2  A    between atoms: C_5  and  N_8
REMARK    3  A    between atoms: C_10  and  C_15
REMARK    4  A    between atoms: C_15  and  N_16
REMARK    5  A    between atoms: N_19  and  C_20
REMARK                            x       y       z     vdW  Elec       q    Type
REMARK                         _______ _______ _______ _____ _____    ______ ____
ROOT
ATOM      1  C   UNL     1       5.672   4.562   1.243  0.00  0.00    +0.152 C 
ENDROOT
BRANCH   1   4
ATOM      2  N   UNL     1       3.597   2.084   0.013  0.00  0.00    -0.234 N 
ATOM      3  C   UNL     1       3.715   3.550   0.004  0.00  0.00    +0.163 C 
ATOM      4  C   UNL     1       5.236   3.796  -0.007  0.00  0.00    +0.213 C 
ATOM      5  O   UNL     1       5.810   2.457  -0.012  0.00  0.00    -0.444 OA
ATOM      6  C   UNL     1       4.826   1.550   0.000  0.00  0.00    +0.408 C 
ATOM      7  O   UNL     1       5.029   0.352  -0.001  0.00  0.00    -0.226 OA
BRANCH   2  12
ATOM      8  C   UNL     1      -1.267  -0.836   0.072  0.00  0.00    +0.044 C 
ATOM      9  C   UNL     1       0.025  -0.061   0.057  0.00  0.00    -0.050 A 
ATOM     10  C   UNL     1       0.000   1.322   0.055  0.00  0.00    +0.005 A 
ATOM     11  C   UNL     1       1.182   2.035   0.041  0.00  0.00    +0.024 A 
ATOM     12  C   UNL     1       2.397   1.363   0.028  0.00  0.00    +0.040 A 
ATOM     13  C   UNL     1       2.419  -0.025   0.030  0.00  0.00    +0.024 A 
ATOM     14  C   UNL     1       1.234  -0.733   0.044  0.00  0.00    +0.005 A 
ENDBRANCH   2  12
ENDBRANCH   1   4
BRANCH   1  15
ATOM     15  N   UNL     1       7.116   4.806   1.188  0.00  0.00    -0.296 N 
ATOM     16  C   UNL     1       7.726   5.469   2.190  0.00  0.00    +0.304 C 
ATOM     17  O   UNL     1       7.079   5.866   3.140  0.00  0.00    -0.253 OA
ATOM     18  N   UNL     1       9.054   5.692   2.139  0.00  0.00    -0.267 N 
ATOM     19  H   UNL     1       7.632   4.489   0.430  0.00  0.00    +0.150 HD
ATOM     20  H   UNL     1       9.581   5.321   1.415  0.00  0.00    +0.156 HD
BRANCH  18  21
ATOM     21  C   UNL     1       9.674   6.462   3.132  0.00  0.00    +0.070 A 
ATOM     22  C   UNL     1       9.218   6.404   4.442  0.00  0.00    +0.026 A 
ATOM     23  C   UNL     1       9.831   7.163   5.420  0.00  0.00    +0.002 A 
ATOM     24  C   UNL     1      10.898   7.981   5.096  0.00  0.00    +0.003 A 
ATOM     25  C   UNL     1      11.355   8.043   3.793  0.00  0.00    +0.040 A 
ATOM     26  C   UNL     1      10.750   7.281   2.810  0.00  0.00    +0.145 A 
ATOM     27  F   UNL     1      11.200   7.337   1.537  0.00  0.00    -0.204 F 
ENDBRANCH  18  21
ENDBRANCH   1  15
TORSDOF 4
