REMARK  Name = ZINC13272028
REMARK  12 active torsions:
REMARK  status: ('A' for Active; 'I' for Inactive)
REMARK    1  A    between atoms: C_1  and  C_2
REMARK    2  A    between atoms: C_2  and  C_3
REMARK    3  A    between atoms: C_2  and  C_4
REMARK    4  A    between atoms: C_4  and  C_6
REMARK    5  A    between atoms: C_4  and  N_8
REMARK    6  A    between atoms: C_9  and  C_28
REMARK    7  A    between atoms: C_12  and  S_13
REMARK    8  A    between atoms: S_13  and  C_14
REMARK    9  A    between atoms: C_14  and  C_15
REMARK   10  A    between atoms: N_20  and  C_21
REMARK   11  A    between atoms: C_21  and  C_22
REMARK   12  A    between atoms: C_22  and  C_23
REMARK                            x       y       z     vdW  Elec       q    Type
REMARK                         _______ _______ _______ _____ _____    ______ ____
ROOT
ATOM      1  N   UNL     1      -2.873   1.535   0.091  0.00  0.00    -0.287 N 
ATOM      2  C   UNL     1      -3.447   0.776  -0.904  0.00  0.00    +0.172 A 
ATOM      3  N   UNL     1      -3.973   1.613  -1.772  0.00  0.00    -0.128 NA
ATOM      4  N   UNL     1      -3.769   2.823  -1.392  0.00  0.00    -0.122 NA
ATOM      5  C   UNL     1      -3.107   2.836  -0.257  0.00  0.00    +0.193 A 
ENDROOT
BRANCH   2   6
ATOM      6  C   UNL     1      -3.469  -0.694  -0.982  0.00  0.00    +0.056 A 
ATOM      7  C   UNL     1      -4.246  -1.507  -1.768  0.00  0.00    +0.019 A 
ATOM      8  C   UNL     1      -4.085  -2.871  -1.670  0.00  0.00    +0.008 A 
ATOM      9  C   UNL     1      -3.175  -3.369  -0.794  0.00  0.00    +0.046 A 
ATOM     10  S   UNL     1      -2.497  -1.883  -0.072  0.00  0.00    -0.094 S 
ENDBRANCH   2   6
BRANCH   1  11
ATOM     11  C   UNL     1      -2.164   1.050   1.278  0.00  0.00    +0.206 C 
BRANCH  11  13
ATOM     12  C   UNL     1      -0.013   1.086   0.008  0.00  0.00    +0.010 C 
ATOM     13  C   UNL     1      -0.729   1.579   1.267  0.00  0.00    +0.017 C 
ATOM     14  C   UNL     1       0.011   1.072   2.506  0.00  0.00    +0.010 C 
ENDBRANCH  11  13
BRANCH  11  15
ATOM     15  C   UNL     1      -2.870   1.536   2.518  0.00  0.00    +0.379 C 
ATOM     16  O   UNL     1      -2.284   2.234   3.311  0.00  0.00    -0.244 OA
ATOM     17  O   UNL     1      -4.148   1.193   2.740  0.00  0.00    -0.244 OA
ENDBRANCH  11  15
ENDBRANCH   1  11
BRANCH   5  18
ATOM     18  S   UNL     1      -2.610   4.265   0.646  0.00  0.00    -0.077 S 
BRANCH  18  19
ATOM     19  C   UNL     1      -3.271   5.562  -0.430  0.00  0.00    +0.173 C 
BRANCH  19  20
ATOM     20  C   UNL     1      -2.956   6.913   0.160  0.00  0.00    +0.231 C 
ATOM     21  O   UNL     1      -2.345   6.991   1.204  0.00  0.00    -0.274 OA
ATOM     22  N   UNL     1      -3.353   8.034  -0.473  0.00  0.00    -0.240 N 
ATOM     23  C   UNL     1      -3.071   9.242   0.054  0.00  0.00    +0.306 C 
ATOM     24  O   UNL     1      -2.459   9.320   1.101  0.00  0.00    -0.252 OA
ATOM     25  N   UNL     1      -3.469  10.363  -0.579  0.00  0.00    -0.299 N 
ATOM     26  H   UNL     1      -3.842   7.972  -1.309  0.00  0.00    +0.159 HD
ATOM     27  H   UNL     1      -3.958  10.301  -1.414  0.00  0.00    +0.150 HD
BRANCH  25  28
ATOM     28  C   UNL     1      -3.163  11.676  -0.005  0.00  0.00    +0.111 C 
BRANCH  28  29
ATOM     29  C   UNL     1      -3.721  12.773  -0.914  0.00  0.00    +0.061 C 
BRANCH  29  30
ATOM     30  C   UNL     1      -3.406  14.123  -0.325  0.00  0.00    -0.009 A 
ATOM     31  C   UNL     1      -2.317  14.907  -0.519  0.00  0.00    +0.011 A 
ATOM     32  C   UNL     1      -2.243  16.124   0.132  0.00  0.00    +0.008 A 
ATOM     33  C   UNL     1      -3.255  16.494   0.953  0.00  0.00    +0.045 A 
ATOM     34  S   UNL     1      -4.367  15.103   0.818  0.00  0.00    -0.102 S 
ENDBRANCH  29  30
ENDBRANCH  28  29
ENDBRANCH  25  28
ENDBRANCH  19  20
ENDBRANCH  18  19
ENDBRANCH   5  18
TORSDOF 10
