REMARK  Name = ZINC14550695
REMARK  7 active torsions:
REMARK  status: ('A' for Active; 'I' for Inactive)
REMARK    1  A    between atoms: C_4  and  C_7
REMARK    2  A    between atoms: C_7  and  C_8
REMARK    3  A    between atoms: C_8  and  N_9
REMARK    4  A    between atoms: N_9  and  S_10
REMARK    5  A    between atoms: S_10  and  C_13
REMARK    6  A    between atoms: C_26  and  C_29
REMARK    7  A    between atoms: C_32  and  N_35
REMARK                            x       y       z     vdW  Elec       q    Type
REMARK                         _______ _______ _______ _____ _____    ______ ____
ROOT
ATOM      1  C   UNL     1       0.002  -0.004   0.002  0.00  0.00    +0.106 A 
ATOM      2  C   UNL     1      -0.017   1.379   0.010  0.00  0.00    +0.030 A 
ATOM      3  C   UNL     1       1.173   2.079   0.002  0.00  0.00    +0.025 A 
ATOM      4  C   UNL     1       2.382   1.395  -0.012  0.00  0.00    +0.031 A 
ATOM      5  C   UNL     1       2.406   0.009  -0.019  0.00  0.00    -0.018 A 
ATOM      6  C   UNL     1       1.203  -0.684  -0.012  0.00  0.00    +0.034 A 
ATOM      7  C   UNL     1       3.683  -0.770  -0.035  0.00  0.00    +0.049 C 
ATOM      8  C   UNL     1       3.980  -1.370   1.319  0.00  0.00    -0.023 C 
ATOM      9  C   UNL     1       5.270  -1.351   1.550  0.00  0.00    -0.030 C 
ATOM     10  C   UNL     1       6.011  -0.740   0.377  0.00  0.00    +0.033 C 
ATOM     11  C   UNL     1       4.918   0.107  -0.323  0.00  0.00    +0.029 C 
ATOM     12  C   UNL     1       4.805   1.432   0.437  0.00  0.00    +0.105 C 
ATOM     13  N   UNL     1       3.580   2.119   0.015  0.00  0.00    -0.336 N 
ATOM     14  H   UNL     1       3.599   3.052  -0.249  0.00  0.00    +0.147 HD
ENDROOT
BRANCH  12  15
ATOM     15  C   UNL     1       4.747   1.161   1.918  0.00  0.00    -0.027 A 
ATOM     16  C   UNL     1       3.557   0.772   2.504  0.00  0.00    +0.008 A 
ATOM     17  C   UNL     1       3.506   0.518   3.862  0.00  0.00    +0.033 A 
ATOM     18  C   UNL     1       4.642   0.666   4.636  0.00  0.00    +0.126 A 
ATOM     19  C   UNL     1       5.830   1.061   4.051  0.00  0.00    +0.033 A 
ATOM     20  C   UNL     1       5.883   1.309   2.692  0.00  0.00    +0.008 A 
BRANCH  18  21
ATOM     21  N   UNL     1       4.585   0.400   6.091  0.00  0.00    +0.056 N 
ATOM     22  O   UNL     1       5.586   0.529   6.773  0.00  0.00    -0.126 OA
ATOM     23  O   UNL     1       3.538   0.051   6.606  0.00  0.00    -0.126 OA
ENDBRANCH  18  21
ENDBRANCH  12  15
BRANCH   1  24
ATOM     24  S   UNL     1      -1.514  -0.902   0.011  0.00  0.00    +0.058 S 
ATOM     25  O   UNL     1      -1.224  -2.183   0.552  0.00  0.00    -0.153 OA
ATOM     26  O   UNL     1      -2.493  -0.040   0.576  0.00  0.00    -0.153 OA
BRANCH  24  27
ATOM     27  N   UNL     1      -1.950  -1.143  -1.568  0.00  0.00    -0.190 NA
ATOM     28  H   UNL     1      -2.756  -0.732  -1.917  0.00  0.00    +0.148 HD
BRANCH  27  29
ATOM     29  C   UNL     1      -1.118  -1.977  -2.439  0.00  0.00    +0.110 C 
BRANCH  29  30
ATOM     30  C   UNL     1      -1.905  -2.345  -3.698  0.00  0.00    +0.052 C 
BRANCH  30  34
ATOM     31  C   UNL     1       0.521  -4.777  -6.237  0.00  0.00    +0.000 A 
ATOM     32  C   UNL     1      -0.285  -5.365  -5.280  0.00  0.00    +0.000 A 
ATOM     33  C   UNL     1      -1.070  -4.578  -4.458  0.00  0.00    +0.003 A 
ATOM     34  C   UNL     1      -1.049  -3.203  -4.593  0.00  0.00    -0.046 A 
ATOM     35  C   UNL     1      -0.247  -2.614  -5.553  0.00  0.00    +0.003 A 
ATOM     36  C   UNL     1       0.542  -3.401  -6.372  0.00  0.00    +0.000 A 
ENDBRANCH  30  34
ENDBRANCH  29  30
ENDBRANCH  27  29
ENDBRANCH  24  27
ENDBRANCH   1  24
TORSDOF 7
