REMARK  Name = ZINC13271377
REMARK  11 active torsions:
REMARK  status: ('A' for Active; 'I' for Inactive)
REMARK    1  A    between atoms: C_1  and  C_2
REMARK    2  A    between atoms: C_2  and  C_3
REMARK    3  A    between atoms: C_2  and  C_4
REMARK    4  A    between atoms: C_4  and  C_6
REMARK    5  A    between atoms: C_4  and  N_8
REMARK    6  A    between atoms: C_9  and  C_28
REMARK    7  A    between atoms: C_12  and  S_13
REMARK    8  A    between atoms: S_13  and  C_14
REMARK    9  A    between atoms: C_14  and  C_15
REMARK   10  A    between atoms: N_17  and  C_18
REMARK   11  A    between atoms: C_20  and  N_25
REMARK                            x       y       z     vdW  Elec       q    Type
REMARK                         _______ _______ _______ _____ _____    ______ ____
ROOT
ATOM      1  N   UNL     1       1.383   1.580   2.543  0.00  0.00    -0.287 N 
ATOM      2  C   UNL     1       2.544   0.838   2.542  0.00  0.00    +0.172 A 
ATOM      3  N   UNL     1       3.545   1.690   2.529  0.00  0.00    -0.128 NA
ATOM      4  N   UNL     1       3.096   2.894   2.529  0.00  0.00    -0.122 NA
ATOM      5  C   UNL     1       1.782   2.888   2.538  0.00  0.00    +0.193 A 
ENDROOT
BRANCH   2   6
ATOM      6  C   UNL     1       2.644  -0.630   2.551  0.00  0.00    +0.056 A 
ATOM      7  C   UNL     1       3.729  -1.424   2.275  0.00  0.00    +0.019 A 
ATOM      8  C   UNL     1       3.583  -2.791   2.349  0.00  0.00    +0.008 A 
ATOM      9  C   UNL     1       2.375  -3.311   2.691  0.00  0.00    +0.046 A 
ATOM     10  S   UNL     1       1.389  -1.842   2.931  0.00  0.00    -0.094 S 
ENDBRANCH   2   6
BRANCH   1  11
ATOM     11  C   UNL     1       0.009   1.073   2.553  0.00  0.00    +0.206 C 
BRANCH  11  13
ATOM     12  C   UNL     1      -0.008   1.068   0.055  0.00  0.00    +0.010 C 
ATOM     13  C   UNL     1      -0.728   1.571   1.308  0.00  0.00    +0.017 C 
ATOM     14  C   UNL     1      -2.163   1.042   1.319  0.00  0.00    +0.010 C 
ENDBRANCH  11  13
BRANCH  11  15
ATOM     15  C   UNL     1      -0.700   1.569   3.788  0.00  0.00    +0.379 C 
ATOM     16  O   UNL     1      -1.692   2.250   3.682  0.00  0.00    -0.244 OA
ATOM     17  O   UNL     1      -0.229   1.253   5.004  0.00  0.00    -0.244 OA
ENDBRANCH  11  15
ENDBRANCH   1  11
BRANCH   5  18
ATOM     18  S   UNL     1       0.730   4.301   2.541  0.00  0.00    -0.077 S 
BRANCH  18  19
ATOM     19  C   UNL     1       1.972   5.617   2.531  0.00  0.00    +0.173 C 
BRANCH  19  20
ATOM     20  C   UNL     1       1.283   6.958   2.533  0.00  0.00    +0.228 C 
ATOM     21  O   UNL     1       0.072   7.017   2.540  0.00  0.00    -0.275 OA
ATOM     22  N   UNL     1       2.013   8.091   2.526  0.00  0.00    -0.284 N 
ATOM     23  H   UNL     1       2.980   8.045   2.586  0.00  0.00    +0.155 HD
BRANCH  22  24
ATOM     24  C   UNL     1       1.376   9.333   2.433  0.00  0.00    +0.054 A 
ATOM     25  C   UNL     1       0.141   9.529   3.036  0.00  0.00    +0.057 A 
ATOM     26  C   UNL     1      -0.484  10.758   2.946  0.00  0.00    +0.128 A 
ATOM     27  C   UNL     1       0.115  11.790   2.247  0.00  0.00    +0.034 A 
ATOM     28  C   UNL     1       1.343  11.598   1.641  0.00  0.00    +0.024 A 
ATOM     29  C   UNL     1       1.975  10.373   1.732  0.00  0.00    +0.062 A 
ATOM     30 CL   UNL     1       3.517  10.132   0.971  0.00  0.00    -0.082 Cl
BRANCH  26  31
ATOM     31  N   UNL     1      -1.799  10.968   3.592  0.00  0.00    +0.056 N 
ATOM     32  O   UNL     1      -2.352  12.049   3.509  0.00  0.00    -0.126 OA
ATOM     33  O   UNL     1      -2.327  10.059   4.207  0.00  0.00    -0.126 OA
ENDBRANCH  26  31
ENDBRANCH  22  24
ENDBRANCH  19  20
ENDBRANCH  18  19
ENDBRANCH   5  18
TORSDOF 9
