REMARK  Name = ZINC04801111
REMARK  9 active torsions:
REMARK  status: ('A' for Active; 'I' for Inactive)
REMARK    1  A    between atoms: C_1  and  O_2
REMARK    2  A    between atoms: O_2  and  C_3
REMARK    3  A    between atoms: C_5  and  N_11
REMARK    4  A    between atoms: C_7  and  O_9
REMARK    5  A    between atoms: O_9  and  C_10
REMARK    6  A    between atoms: C_12  and  C_25
REMARK    7  A    between atoms: C_17  and  N_22
REMARK    8  A    between atoms: C_25  and  N_64
REMARK    9  A    between atoms: N_28  and  C_31
REMARK                            x       y       z     vdW  Elec       q    Type
REMARK                         _______ _______ _______ _____ _____    ______ ____
ROOT
ATOM      1  N   UNL     1       1.126   2.058  -0.032  0.00  0.00    -0.266 N 
ATOM      2  C   UNL     1       0.227   1.336   0.691  0.00  0.00    +0.101 A 
ATOM      3  N   UNL     1       0.247   0.040   0.764  0.00  0.00    -0.235 NA
ATOM      4  C   UNL     1       1.183  -0.695   0.113  0.00  0.00    +0.078 A 
ATOM      5  C   UNL     1       1.204  -2.089   0.191  0.00  0.00    +0.031 A 
ATOM      6  C   UNL     1       2.172  -2.795  -0.487  0.00  0.00    +0.035 A 
ATOM      7  C   UNL     1       3.129  -2.139  -1.250  0.00  0.00    +0.127 A 
ATOM      8  C   UNL     1       3.129  -0.764  -1.343  0.00  0.00    +0.048 A 
ATOM      9  C   UNL     1       2.158  -0.030  -0.664  0.00  0.00    +0.067 A 
ATOM     10  C   UNL     1       2.108   1.438  -0.727  0.00  0.00    +0.266 A 
ATOM     11  O   UNL     1       2.918   2.071  -1.378  0.00  0.00    -0.267 OA
ENDROOT
BRANCH   1  14
ATOM     12  C   UNL     1       1.603   5.596   0.871  0.00  0.00    +0.126 A 
ATOM     13  C   UNL     1       1.695   4.213   0.897  0.00  0.00    +0.072 A 
ATOM     14  C   UNL     1       1.033   3.455  -0.059  0.00  0.00    +0.058 A 
ATOM     15  C   UNL     1       0.284   4.083  -1.044  0.00  0.00    +0.072 A 
ATOM     16  C   UNL     1       0.188   5.466  -1.066  0.00  0.00    +0.126 A 
ATOM     17  C   UNL     1       0.849   6.222  -0.111  0.00  0.00    +0.091 A 
BRANCH  12  19
ATOM     18  C   UNL     1       2.111   7.758   1.719  0.00  0.00    +0.277 C 
ATOM     19  O   UNL     1       2.250   6.338   1.807  0.00  0.00    -0.495 OA
ENDBRANCH  12  19
BRANCH  16  20
ATOM     20  O   UNL     1      -0.550   6.080  -2.028  0.00  0.00    -0.495 OA
ATOM     21  C   UNL     1      -0.601   7.508  -1.994  0.00  0.00    +0.277 C 
ENDBRANCH  16  20
ENDBRANCH   1  14
BRANCH   7  22
ATOM     22  N   UNL     1       4.158  -2.922  -1.970  0.00  0.00    +0.056 N 
ATOM     23  O   UNL     1       5.000  -2.352  -2.640  0.00  0.00    -0.126 OA
ATOM     24  O   UNL     1       4.163  -4.138  -1.891  0.00  0.00    -0.126 OA
ENDBRANCH   7  22
BRANCH   2  25
ATOM     25  C   UNL     1      -0.849   2.078   1.440  0.00  0.00    -0.003 C 
BRANCH  25  31
ATOM     26  C   UNL     1      -2.531   0.399   0.976  0.00  0.00    -0.059 C 
ATOM     27  C   UNL     1      -3.442  -0.648   1.622  0.00  0.00    +0.086 C 
ATOM     28  N   UNL     1      -4.365   0.017   2.552  0.00  0.00    -0.333 N 
ATOM     29  C   UNL     1      -3.626   0.733   3.601  0.00  0.00    +0.086 C 
ATOM     30  C   UNL     1      -2.715   1.780   2.955  0.00  0.00    -0.059 C 
ATOM     31  N   UNL     1      -1.778   1.096   2.039  0.00  0.00    +0.386 N 
ATOM     32  H   UNL     1      -1.235   0.406   2.572  0.00  0.00    -0.081 HD
BRANCH  28  33
ATOM     33  C   UNL     1      -5.262  -0.900   3.108  0.00  0.00    +0.030 A 
ATOM     34  C   UNL     1      -5.353  -1.035   4.487  0.00  0.00    +0.026 A 
ATOM     35  C   UNL     1      -6.244  -1.938   5.035  0.00  0.00    +0.040 A 
ATOM     36  C   UNL     1      -7.038  -2.716   4.209  0.00  0.00    +0.124 A 
ATOM     37  C   UNL     1      -6.945  -2.587   2.834  0.00  0.00    +0.040 A 
ATOM     38  C   UNL     1      -6.060  -1.681   2.282  0.00  0.00    +0.026 A 
ATOM     39  F   UNL     1      -7.905  -3.601   4.747  0.00  0.00    -0.205 F 
ENDBRANCH  28  33
ENDBRANCH  25  31
ENDBRANCH   2  25
TORSDOF 7
