REMARK  Name = ZINC39665982
REMARK  8 active torsions:
REMARK  status: ('A' for Active; 'I' for Inactive)
REMARK    1  A    between atoms: C_1  and  C_2
REMARK    2  A    between atoms: C_5  and  O_8
REMARK    3  A    between atoms: O_8  and  C_9
REMARK    4  A    between atoms: C_9  and  C_11
REMARK    5  A    between atoms: C_9  and  C_12
REMARK    6  A    between atoms: C_12  and  N_13
REMARK    7  A    between atoms: C_14  and  C_16
REMARK    8  A    between atoms: C_27  and  C_29
REMARK                            x       y       z     vdW  Elec       q    Type
REMARK                         _______ _______ _______ _____ _____    ______ ____
ROOT
ATOM      1  C   UNL     1       4.477  -6.835   0.092  0.00  0.00    +0.100 C 
ATOM      2  C   UNL     1       5.444  -6.162   1.092  0.00  0.00    +0.121 C 
ATOM      3  N   UNL     1       6.093  -7.289   1.801  0.00  0.00    -0.296 N 
ATOM      4  C   UNL     1       6.322  -8.306   0.747  0.00  0.00    +0.115 C 
ATOM      5  C   UNL     1       5.059  -8.241  -0.134  0.00  0.00    -0.004 C 
ATOM      6  C   UNL     1       4.056  -9.304   0.303  0.00  0.00    -0.010 C 
ATOM      7  C   UNL     1       4.634 -10.693   0.016  0.00  0.00    -0.082 C 
ATOM      8  N   UNL     1       4.917 -10.820  -1.419  0.00  0.00    +0.379 N 
ATOM      9  C   UNL     1       5.951  -9.854  -1.813  0.00  0.00    -0.082 C 
ATOM     10  C   UNL     1       5.428  -8.430  -1.602  0.00  0.00    -0.010 C 
ATOM     11  C   UNL     1       6.406  -7.371   3.110  0.00  0.00    +0.249 C 
ATOM     12  O   UNL     1       6.234  -6.412   3.837  0.00  0.00    -0.270 OA
ATOM     13  H   UNL     1       5.241 -11.755  -1.615  0.00  0.00    -0.086 HD
ATOM     14  H   UNL     1       4.074 -10.641  -1.944  0.00  0.00    -0.086 HD
ENDROOT
BRANCH  11  15
ATOM     15  C   UNL     1       6.956  -8.625   3.660  0.00  0.00    +0.072 A 
ATOM     16  C   UNL     1       7.913  -9.346   2.941  0.00  0.00    +0.019 A 
ATOM     17  C   UNL     1       8.423 -10.516   3.459  0.00  0.00    +0.039 A 
ATOM     18  C   UNL     1       7.989 -10.981   4.692  0.00  0.00    +0.126 A 
ATOM     19  C   UNL     1       7.040 -10.273   5.411  0.00  0.00    +0.077 A 
ATOM     20  C   UNL     1       6.525  -9.095   4.905  0.00  0.00    +0.138 A 
ATOM     21  F   UNL     1       5.603  -8.401   5.609  0.00  0.00    -0.205 F 
ATOM     22  F   UNL     1       8.493 -12.130   5.194  0.00  0.00    -0.205 F 
ENDBRANCH  11  15
BRANCH   1  24
ATOM     23  N   UNL     1       2.022  -7.040  -0.128  0.00  0.00    -0.312 N 
ATOM     24  C   UNL     1       3.093  -6.929   0.682  0.00  0.00    +0.218 C 
ATOM     25  O   UNL     1       2.944  -6.903   1.885  0.00  0.00    -0.275 OA
ATOM     26  H   UNL     1       2.141  -7.061  -1.090  0.00  0.00    +0.149 HD
BRANCH  23  27
ATOM     27  C   UNL     1       0.677  -7.131   0.446  0.00  0.00    +0.148 C 
BRANCH  27  28
ATOM     28  C   UNL     1      -0.351  -7.250  -0.681  0.00  0.00    +0.187 C 
ATOM     29  C   UNL     1      -1.762  -7.219  -0.090  0.00  0.00    +0.053 C 
BRANCH  28  30
ATOM     30  O   UNL     1      -0.154  -8.481  -1.379  0.00  0.00    -0.488 OA
BRANCH  30  35
ATOM     31  C   UNL     1      -1.724  -8.637  -6.786  0.00  0.00    +0.044 C 
ATOM     32  C   UNL     1      -1.304  -8.596  -5.339  0.00  0.00    -0.050 A 
ATOM     33  C   UNL     1      -1.566  -7.472  -4.577  0.00  0.00    +0.007 A 
ATOM     34  C   UNL     1      -1.182  -7.431  -3.250  0.00  0.00    +0.046 A 
ATOM     35  C   UNL     1      -0.533  -8.519  -2.683  0.00  0.00    +0.121 A 
ATOM     36  C   UNL     1      -0.272  -9.645  -3.451  0.00  0.00    +0.046 A 
ATOM     37  C   UNL     1      -0.663  -9.683  -4.775  0.00  0.00    +0.007 A 
ENDBRANCH  30  35
ENDBRANCH  28  30
ENDBRANCH  27  28
ENDBRANCH  23  27
ENDBRANCH   1  24
TORSDOF 6
