REMARK  Name = ZINC44737082
REMARK  7 active torsions:
REMARK  status: ('A' for Active; 'I' for Inactive)
REMARK    1  A    between atoms: C_1  and  C_2
REMARK    2  A    between atoms: C_9  and  C_11
REMARK    3  A    between atoms: C_11  and  C_13
REMARK    4  A    between atoms: C_11  and  N_14
REMARK    5  A    between atoms: C_15  and  C_17
REMARK    6  A    between atoms: C_28  and  C_30
REMARK    7  A    between atoms: C_33  and  C_36
REMARK                            x       y       z     vdW  Elec       q    Type
REMARK                         _______ _______ _______ _____ _____    ______ ____
ROOT
ATOM      1  C   UNL     1      -1.827  -9.080   0.410  0.00  0.00    +0.100 C 
ATOM      2  C   UNL     1      -0.530  -9.459  -0.339  0.00  0.00    +0.121 C 
ATOM      3  N   UNL     1      -0.008 -10.639   0.389  0.00  0.00    -0.296 N 
ATOM      4  C   UNL     1      -1.216 -11.430   0.724  0.00  0.00    +0.115 C 
ATOM      5  C   UNL     1      -2.276 -10.377   1.104  0.00  0.00    -0.004 C 
ATOM      6  C   UNL     1      -3.650 -10.801   0.593  0.00  0.00    -0.010 C 
ATOM      7  C   UNL     1      -4.101 -12.060   1.339  0.00  0.00    -0.082 C 
ATOM      8  N   UNL     1      -4.156 -11.784   2.779  0.00  0.00    +0.379 N 
ATOM      9  C   UNL     1      -2.813 -11.467   3.281  0.00  0.00    -0.082 C 
ATOM     10  C   UNL     1      -2.308 -10.183   2.617  0.00  0.00    -0.010 C 
ATOM     11  C   UNL     1       1.276 -10.928   0.682  0.00  0.00    +0.247 C 
ATOM     12  O   UNL     1       2.149 -10.116   0.449  0.00  0.00    -0.270 OA
ATOM     13  H   UNL     1      -4.770 -11.001   2.947  0.00  0.00    -0.086 HD
ATOM     14  H   UNL     1      -4.512 -12.595   3.262  0.00  0.00    -0.086 HD
ENDROOT
BRANCH  11  15
ATOM     15  C   UNL     1       1.621 -12.233   1.284  0.00  0.00    +0.037 A 
ATOM     16  C   UNL     1       0.747 -13.315   1.162  0.00  0.00    +0.013 A 
ATOM     17  C   UNL     1       1.075 -14.530   1.726  0.00  0.00    +0.013 A 
ATOM     18  C   UNL     1       2.267 -14.678   2.413  0.00  0.00    +0.055 A 
ATOM     19  C   UNL     1       3.137 -13.610   2.539  0.00  0.00    +0.013 A 
ATOM     20  C   UNL     1       2.824 -12.391   1.974  0.00  0.00    +0.013 A 
BRANCH  18  21
ATOM     21  C   UNL     1       2.619 -16.008   3.028  0.00  0.00    +0.417 C 
ATOM     22  F   UNL     1       3.328 -16.778   2.100  0.00  0.00    -0.166 F 
ATOM     23  F   UNL     1       3.409 -15.803   4.164  0.00  0.00    -0.166 F 
ATOM     24  F   UNL     1       1.446 -16.679   3.391  0.00  0.00    -0.166 F 
ENDBRANCH  18  21
ENDBRANCH  11  15
BRANCH   1  26
ATOM     25  N   UNL     1      -2.543  -7.202   1.852  0.00  0.00    -0.305 N 
ATOM     26  C   UNL     1      -1.548  -8.008   1.432  0.00  0.00    +0.219 C 
ATOM     27  O   UNL     1      -0.428  -7.871   1.877  0.00  0.00    -0.275 OA
ATOM     28  H   UNL     1      -3.439  -7.312   1.497  0.00  0.00    +0.149 HD
BRANCH  25  29
ATOM     29  C   UNL     1      -2.271  -6.160   2.846  0.00  0.00    +0.136 C 
ATOM     30  C   UNL     1      -1.751  -4.906   2.140  0.00  0.00    +0.036 C 
BRANCH  29  39
ATOM     31  C   UNL     1      -7.726  -4.131   7.485  0.00  0.00    +0.044 C 
ATOM     32  C   UNL     1      -6.988  -4.648   6.277  0.00  0.00    -0.048 A 
ATOM     33  C   UNL     1      -7.701  -5.095   5.173  0.00  0.00    +0.005 A 
ATOM     34  C   UNL     1      -7.051  -5.567   4.068  0.00  0.00    +0.030 A 
ATOM     35  C   UNL     1      -5.654  -5.602   4.044  0.00  0.00    +0.089 A 
ATOM     36  C   UNL     1      -4.932  -5.149   5.161  0.00  0.00    +0.067 A 
ATOM     37  C   UNL     1      -5.609  -4.668   6.273  0.00  0.00    +0.031 A 
ATOM     38  N   UNL     1      -3.598  -5.306   4.841  0.00  0.00    -0.340 N 
ATOM     39  C   UNL     1      -3.541  -5.829   3.587  0.00  0.00    +0.128 A 
ATOM     40  N   UNL     1      -4.743  -6.003   3.120  0.00  0.00    -0.231 NA
ATOM     41  H   UNL     1      -2.841  -5.083   5.406  0.00  0.00    +0.167 HD
ENDBRANCH  29  39
ENDBRANCH  25  29
ENDBRANCH   1  26
TORSDOF 5
