REMARK  Name = ZINC19857312
REMARK  5 active torsions:
REMARK  status: ('A' for Active; 'I' for Inactive)
REMARK    1  A    between atoms: C_1  and  O_2
REMARK    2  A    between atoms: O_2  and  C_3
REMARK    3  A    between atoms: C_3  and  C_5
REMARK    4  A    between atoms: C_8  and  C_11
REMARK    5  A    between atoms: C_16  and  C_17
REMARK                            x       y       z     vdW  Elec       q    Type
REMARK                         _______ _______ _______ _____ _____    ______ ____
ROOT
ATOM      1  C   UNL     1      -1.081  -0.653  -0.613  0.00  0.00    +0.008 A 
ATOM      2  C   UNL     1       0.002  -0.004   0.002  0.00  0.00    -0.017 A 
ATOM      3  C   UNL     1       1.007  -0.754   0.557  0.00  0.00    +0.047 A 
ATOM      4  N   UNL     1       0.945  -2.083   0.547  0.00  0.00    -0.236 NA
ATOM      5  C   UNL     1      -0.048  -2.750  -0.007  0.00  0.00    +0.135 A 
ATOM      6  C   UNL     1      -1.105  -2.061  -0.625  0.00  0.00    +0.099 A 
ATOM      7  N   UNL     1      -0.050  -4.134   0.021  0.00  0.00    -0.342 N 
ATOM      8  C   UNL     1       2.235  -0.134   1.173  0.00  0.00    +0.056 C 
ATOM      9  C   UNL     1       1.854   0.953   2.181  0.00  0.00    +0.006 C 
ATOM     10  C   UNL     1       1.845   2.291   1.448  0.00  0.00    +0.001 C 
ATOM     11  C   UNL     1       1.396   2.082  -0.000  0.00  0.00    +0.005 C 
ATOM     12  C   UNL     1      -0.018   1.504   0.010  0.00  0.00    +0.037 C 
ATOM     13  H   UNL     1      -0.878  -4.692  -0.440  0.00  0.00    +0.144 HD
ATOM     14  H   UNL     1       0.776  -4.675   0.505  0.00  0.00    +0.144 HD
ENDROOT
BRANCH   1  18
ATOM     15  C   UNL     1      -4.224   1.587  -2.402  0.00  0.00    +0.059 A 
ATOM     16  C   UNL     1      -3.400   0.783  -3.194  0.00  0.00    +0.015 A 
ATOM     17  C   UNL     1      -2.382   0.059  -2.614  0.00  0.00    +0.009 A 
ATOM     18  C   UNL     1      -2.175   0.127  -1.236  0.00  0.00    -0.016 A 
ATOM     19  C   UNL     1      -3.001   0.925  -0.443  0.00  0.00    +0.009 A 
ATOM     20  C   UNL     1      -4.015   1.655  -1.022  0.00  0.00    +0.015 A 
BRANCH  15  21
ATOM     21  C   UNL     1      -5.315   2.364  -3.023  0.00  0.00    +0.339 C 
ATOM     22  O   UNL     1      -5.497   2.304  -4.223  0.00  0.00    -0.245 OA
BRANCH  21  24
ATOM     23  C   UNL     1      -7.162   3.874  -2.938  0.00  0.00    +0.280 C 
ATOM     24  O   UNL     1      -6.110   3.139  -2.259  0.00  0.00    -0.464 OA
ENDBRANCH  21  24
ENDBRANCH  15  21
ENDBRANCH   1  18
BRANCH   6  25
ATOM     25  C   UNL     1      -2.179  -2.771  -1.252  0.00  0.00    +0.103 C 
ATOM     26  N   UNL     1      -3.031  -3.334  -1.749  0.00  0.00    -0.191 NA
ENDBRANCH   6  25
TORSDOF 4
