REMARK  Name = ZINC04222242
REMARK  9 active torsions:
REMARK  status: ('A' for Active; 'I' for Inactive)
REMARK    1  A    between atoms: C_1  and  C_2
REMARK    2  A    between atoms: C_2  and  C_3
REMARK    3  A    between atoms: C_2  and  C_4
REMARK    4  A    between atoms: C_4  and  C_5
REMARK    5  A    between atoms: C_5  and  C_7
REMARK    6  A    between atoms: C_5  and  N_64
REMARK    7  A    between atoms: N_9  and  C_10
REMARK    8  A    between atoms: C_24  and  C_29
REMARK    9  A    between atoms: C_36  and  N_64
REMARK                            x       y       z     vdW  Elec       q    Type
REMARK                         _______ _______ _______ _____ _____    ______ ____
ROOT
ATOM      1  C   UNL     1       3.692  -1.873  -1.925  0.00  0.00    +0.077 C 
ATOM      2  C   UNL     1       4.667  -0.825  -1.375  0.00  0.00    +0.041 C 
ATOM      3  C   UNL     1       4.045  -0.198  -0.131  0.00  0.00    +0.111 C 
ATOM      4  N   UNL     1       2.712   0.292  -0.415  0.00  0.00    -0.286 N 
ATOM      5  C   UNL     1       1.810  -0.290  -1.388  0.00  0.00    +0.164 C 
ATOM      6  C   UNL     1       2.454  -1.149  -2.446  0.00  0.00    +0.054 C 
ATOM      7  C   UNL     1       0.682  -0.989  -0.689  0.00  0.00    +0.238 C 
ATOM      8  O   UNL     1       0.561  -2.191  -0.800  0.00  0.00    -0.273 OA
ATOM      9  N   UNL     1      -0.189  -0.304   0.053  0.00  0.00    -0.283 N 
ATOM     10  C   UNL     1      -0.218   1.077   0.154  0.00  0.00    +0.046 A 
ATOM     11  C   UNL     1      -1.483   1.677   0.151  0.00  0.00    +0.024 A 
ATOM     12  C   UNL     1      -1.618   3.042   0.224  0.00  0.00    +0.010 A 
ATOM     13  C   UNL     1      -0.483   3.853   0.298  0.00  0.00    -0.014 A 
ATOM     14  C   UNL     1       0.775   3.273   0.311  0.00  0.00    +0.023 A 
ATOM     15  C   UNL     1       0.919   1.878   0.251  0.00  0.00    +0.059 A 
ATOM     16  C   UNL     1       2.286   1.347   0.310  0.00  0.00    +0.249 C 
ATOM     17  O   UNL     1       3.079   1.888   1.056  0.00  0.00    -0.270 OA
ATOM     18  H   UNL     1      -0.848  -0.808   0.556  0.00  0.00    +0.155 HD
ENDROOT
BRANCH  13  19
ATOM     19  C   UNL     1      -0.625   5.328   0.360  0.00  0.00    +0.017 A 
ATOM     20  C   UNL     1      -1.433   5.993  -0.559  0.00  0.00    +0.011 A 
ATOM     21  C   UNL     1      -1.562   7.366  -0.496  0.00  0.00    +0.001 A 
ATOM     22  C   UNL     1      -0.890   8.083   0.478  0.00  0.00    +0.003 A 
ATOM     23  C   UNL     1      -0.086   7.431   1.394  0.00  0.00    +0.039 A 
ATOM     24  C   UNL     1       0.046   6.055   1.345  0.00  0.00    +0.131 A 
ATOM     25  F   UNL     1       0.828   5.417   2.243  0.00  0.00    -0.205 F 
ENDBRANCH  13  19
BRANCH   1  28
ATOM     26  C   UNL     1       5.091  -3.691  -2.747  0.00  0.00    +0.199 C 
ATOM     27  O   UNL     1       5.252  -4.047  -1.599  0.00  0.00    -0.278 OA
ATOM     28  N   UNL     1       4.327  -2.614  -3.018  0.00  0.00    -0.314 N 
ATOM     29  H   UNL     1       4.198  -2.329  -3.936  0.00  0.00    +0.149 HD
BRANCH  26  30
ATOM     30  C   UNL     1       5.744  -4.453  -3.871  0.00  0.00    +0.016 C 
BRANCH  30  32
ATOM     31  C   UNL     1       8.102  -4.205  -3.377  0.00  0.00    -0.099 C 
ATOM     32  N   UNL     1       6.954  -5.131  -3.369  0.00  0.00    +0.385 N 
ATOM     33  H   UNL     1       7.164  -5.937  -3.969  0.00  0.00    -0.085 HD
ATOM     34  H   UNL     1       6.787  -5.454  -2.408  0.00  0.00    -0.085 HD
ENDBRANCH  30  32
BRANCH  30  35
ATOM     35  C   UNL     1       4.769  -5.500  -4.412  0.00  0.00    -0.004 C 
BRANCH  35  37
ATOM     36  C   UNL     1       4.466  -7.319  -6.097  0.00  0.00    +0.007 C 
ATOM     37  C   UNL     1       5.385  -6.188  -5.632  0.00  0.00    -0.018 C 
ATOM     38  C   UNL     1       5.552  -5.170  -6.761  0.00  0.00    +0.007 C 
ENDBRANCH  35  37
ENDBRANCH  30  35
ENDBRANCH  26  30
ENDBRANCH   1  28
TORSDOF 6
