REMARK  Name = ZINC40206819
REMARK  10 active torsions:
REMARK  status: ('A' for Active; 'I' for Inactive)
REMARK    1  A    between atoms: C_1  and  C_2
REMARK    2  A    between atoms: C_6  and  C_8
REMARK    3  A    between atoms: N_10  and  C_11
REMARK    4  A    between atoms: C_11  and  C_12
REMARK    5  A    between atoms: C_12  and  C_13
REMARK    6  A    between atoms: C_13  and  C_14
REMARK    7  A    between atoms: N_22  and  C_23
REMARK    8  A    between atoms: C_23  and  C_24
REMARK    9  A    between atoms: N_26  and  C_27
REMARK   10  A    between atoms: N_26  and  C_28
REMARK                            x       y       z     vdW  Elec       q    Type
REMARK                         _______ _______ _______ _____ _____    ______ ____
ROOT
ATOM      1  C   UNL     1       0.139  -8.695   4.442  0.00  0.00    +0.111 A 
ATOM      2  N   UNL     1      -0.918  -9.439   4.298  0.00  0.00    -0.232 NA
ATOM      3  C   UNL     1      -0.544 -10.720   4.047  0.00  0.00    +0.089 A 
ATOM      4  C   UNL     1      -1.251 -11.903   3.817  0.00  0.00    +0.030 A 
ATOM      5  C   UNL     1      -0.574 -13.068   3.589  0.00  0.00    +0.002 A 
ATOM      6  C   UNL     1       0.814 -13.090   3.583  0.00  0.00    +0.002 A 
ATOM      7  C   UNL     1       1.532 -11.935   3.807  0.00  0.00    +0.028 A 
ATOM      8  C   UNL     1       0.861 -10.742   4.040  0.00  0.00    +0.069 A 
ATOM      9  N   UNL     1       1.263  -9.445   4.287  0.00  0.00    -0.319 N 
ENDROOT
BRANCH   1  10
ATOM     10  C   UNL     1       0.120  -7.216   4.731  0.00  0.00    +0.076 C 
BRANCH  10  11
ATOM     11  C   UNL     1       0.104  -6.439   3.413  0.00  0.00    +0.026 C 
BRANCH  11  12
ATOM     12  C   UNL     1       0.086  -4.937   3.707  0.00  0.00    +0.105 C 
BRANCH  12  15
ATOM     13  C   UNL     1       0.052  -2.845   2.458  0.00  0.00    +0.244 C 
ATOM     14  O   UNL     1       0.049  -2.248   3.516  0.00  0.00    -0.270 OA
ATOM     15  N   UNL     1       0.070  -4.193   2.445  0.00  0.00    -0.311 N 
ATOM     16  H   UNL     1       0.072  -4.670   1.601  0.00  0.00    +0.149 HD
BRANCH  13  22
ATOM     17  C   UNL     1      -0.018   1.503   0.010  0.00  0.00    +0.044 C 
ATOM     18  C   UNL     1       0.002  -0.004   0.002  0.00  0.00    -0.050 A 
ATOM     19  C   UNL     1       0.006  -0.688  -1.201  0.00  0.00    +0.003 A 
ATOM     20  C   UNL     1       0.025  -2.071  -1.218  0.00  0.00    +0.001 A 
ATOM     21  C   UNL     1       0.040  -2.778  -0.033  0.00  0.00    +0.013 A 
ATOM     22  C   UNL     1       0.036  -2.095   1.184  0.00  0.00    +0.037 A 
ATOM     23  C   UNL     1       0.023  -0.699   1.194  0.00  0.00    +0.016 A 
ENDBRANCH  13  22
ENDBRANCH  12  15
ENDBRANCH  11  12
ENDBRANCH  10  11
ENDBRANCH   1  10
BRANCH   9  24
ATOM     24  C   UNL     1       2.645  -8.965   4.371  0.00  0.00    +0.219 C 
BRANCH  24  25
ATOM     25  C   UNL     1       3.129  -9.073   5.794  0.00  0.00    +0.235 C 
ATOM     26  O   UNL     1       2.392  -9.507   6.654  0.00  0.00    -0.274 OA
ATOM     27  N   UNL     1       4.380  -8.686   6.111  0.00  0.00    -0.300 N 
ATOM     28  C   UNL     1       5.271  -8.162   5.072  0.00  0.00    +0.132 C 
BRANCH  27  29
ATOM     29  C   UNL     1       4.851  -8.791   7.495  0.00  0.00    +0.076 C 
ATOM     30  C   UNL     1       5.240  -7.403   8.008  0.00  0.00    +0.022 C 
ATOM     31  C   UNL     1       5.731  -7.512   9.452  0.00  0.00    +0.002 C 
ATOM     32  C   UNL     1       6.949  -8.436   9.508  0.00  0.00    +0.000 C 
ATOM     33  C   UNL     1       6.561  -9.824   8.995  0.00  0.00    +0.002 C 
ATOM     34  C   UNL     1       6.069  -9.715   7.550  0.00  0.00    +0.022 C 
ENDBRANCH  27  29
ENDBRANCH  24  25
ENDBRANCH   9  24
TORSDOF 8
