REMARK  Name = ZINC51607412
REMARK  7 active torsions:
REMARK  status: ('A' for Active; 'I' for Inactive)
REMARK    1  A    between atoms: C_1  and  C_2
REMARK    2  A    between atoms: C_4  and  C_20
REMARK    3  A    between atoms: C_6  and  S_8
REMARK    4  A    between atoms: S_8  and  C_9
REMARK    5  A    between atoms: C_9  and  C_10
REMARK    6  A    between atoms: C_14  and  C_16
REMARK    7  A    between atoms: N_17  and  O_18
REMARK                            x       y       z     vdW  Elec       q    Type
REMARK                         _______ _______ _______ _____ _____    ______ ____
ROOT
ATOM      1  C   UNL     1       0.056  -2.148   5.299  0.00  0.00    -0.036 A 
ATOM      2  C   UNL     1      -1.136  -2.448   5.934  0.00  0.00    +0.004 A 
ATOM      3  C   UNL     1      -1.131  -3.005   7.200  0.00  0.00    +0.001 A 
ATOM      4  C   UNL     1       0.065  -3.265   7.838  0.00  0.00    +0.011 A 
ATOM      5  C   UNL     1       1.270  -2.966   7.203  0.00  0.00    +0.018 A 
ATOM      6  C   UNL     1       1.258  -2.409   5.924  0.00  0.00    +0.016 A 
ENDROOT
BRANCH   5   7
ATOM      7  C   UNL     1       2.556  -3.242   7.881  0.00  0.00    +0.162 C 
ATOM      8  N   UNL     1       3.679  -2.962   7.286  0.00  0.00    -0.072 NA
ATOM      9  N   UNL     1       2.565  -3.799   9.149  0.00  0.00    -0.340 N 
ATOM     10  H   UNL     1       1.728  -4.008   9.592  0.00  0.00    +0.144 HD
ATOM     11  H   UNL     1       3.408  -3.981   9.593  0.00  0.00    +0.144 HD
BRANCH   8  12
ATOM     12  O   UNL     1       4.909  -3.227   7.935  0.00  0.00    -0.408 OA
ATOM     13  H   UNL     1       5.688  -2.985   7.415  0.00  0.00    +0.328 HD
ENDBRANCH   8  12
ENDBRANCH   5   7
BRANCH   1  14
ATOM     14  C   UNL     1       0.041  -1.542   3.919  0.00  0.00    +0.112 C 
BRANCH  14  15
ATOM     15  S   UNL     1       0.053  -2.864   2.678  0.00  0.00    -0.081 S 
BRANCH  15  21
ATOM     16  C   UNL     1      -0.018   1.503   0.010  0.00  0.00    +0.066 C 
ATOM     17  C   UNL     1       0.002  -0.004   0.002  0.00  0.00    +0.043 A 
ATOM     18  C   UNL     1       0.006  -0.699  -1.198  0.00  0.00    +0.046 A 
ATOM     19  C   UNL     1       0.025  -2.084  -1.161  0.00  0.00    +0.043 A 
ATOM     20  N   UNL     1       0.039  -2.699   0.010  0.00  0.00    -0.227 NA
ATOM     21  C   UNL     1       0.035  -2.005   1.140  0.00  0.00    +0.189 A 
ATOM     22  N   UNL     1       0.022  -0.679   1.139  0.00  0.00    -0.227 NA
ATOM     23  C   UNL     1       0.029  -2.881  -2.440  0.00  0.00    +0.066 C 
ENDBRANCH  15  21
ENDBRANCH  14  15
ENDBRANCH   1  14
TORSDOF 5
