REMARK  Name = ZINC09479652
REMARK  16 active torsions:
REMARK  status: ('A' for Active; 'I' for Inactive)
REMARK    1  A    between atoms: C_1  and  C_2
REMARK    2  A    between atoms: C_2  and  C_3
REMARK    3  A    between atoms: C_3  and  O_4
REMARK    4  A    between atoms: O_4  and  C_5
REMARK    5  A    between atoms: C_8  and  C_11
REMARK    6  A    between atoms: C_11  and  C_12
REMARK    7  A    between atoms: C_22  and  C_23
REMARK    8  A    between atoms: C_25  and  C_34
REMARK    9  A    between atoms: C_26  and  O_33
REMARK   10  A    between atoms: C_27  and  C_29
REMARK   11  A    between atoms: C_29  and  C_30
REMARK   12  A    between atoms: C_29  and  C_31
REMARK   13  A    between atoms: C_29  and  C_32
REMARK   14  A    between atoms: C_34  and  C_35
REMARK   15  A    between atoms: C_34  and  C_36
REMARK   16  A    between atoms: C_34  and  C_37
REMARK                            x       y       z     vdW  Elec       q    Type
REMARK                         _______ _______ _______ _____ _____    ______ ____
ROOT
ATOM      1  C   UNL     1       0.086   1.491  -0.687  0.00  0.00    +0.132 A 
ATOM      2  C   UNL     1      -1.198   2.197  -0.763  0.00  0.00    +0.296 A 
ATOM      3  O   UNL     1      -2.242   1.582  -0.918  0.00  0.00    -0.264 OA
ATOM      4  N   UNL     1      -1.196   3.531  -0.651  0.00  0.00    -0.181 NA
ATOM      5  C   UNL     1      -0.073   4.186  -0.491  0.00  0.00    +0.201 A 
ATOM      6  N   UNL     1       1.155   3.582  -0.418  0.00  0.00    -0.170 N 
ATOM      7  N   UNL     1       1.181   2.165  -0.527  0.00  0.00    -0.161 NA
ATOM      8  C   UNL     1       2.239   4.359  -0.251  0.00  0.00    +0.287 A 
ATOM      9  O   UNL     1       3.352   3.872  -0.181  0.00  0.00    -0.265 OA
ATOM     10  C   UNL     1       2.043   5.809  -0.156  0.00  0.00    +0.082 A 
ATOM     11  C   UNL     1       2.962   6.796   0.011  0.00  0.00    +0.028 C 
ATOM     12  S   UNL     1       0.268   5.926  -0.320  0.00  0.00    -0.044 S 
ENDROOT
BRANCH  11  13
ATOM     13  C   UNL     1       2.555   8.203  -0.087  0.00  0.00    -0.023 A 
ATOM     14  C   UNL     1       1.336   8.541  -0.690  0.00  0.00    +0.015 A 
ATOM     15  C   UNL     1       0.957   9.861  -0.775  0.00  0.00    +0.000 A 
ATOM     16  C   UNL     1       1.786  10.859  -0.275  0.00  0.00    +0.124 A 
ATOM     17  C   UNL     1       2.999  10.530   0.319  0.00  0.00    +0.000 A 
ATOM     18  C   UNL     1       3.386   9.213   0.415  0.00  0.00    +0.015 A 
BRANCH  17  19
ATOM     19  C   UNL     1       3.892  11.617   0.859  0.00  0.00    -0.009 C 
ATOM     20  C   UNL     1       5.155  10.991   1.455  0.00  0.00    +0.015 C 
ATOM     21  C   UNL     1       4.281  12.568  -0.275  0.00  0.00    +0.015 C 
ATOM     22  C   UNL     1       3.148  12.396   1.945  0.00  0.00    +0.015 C 
ENDBRANCH  17  19
BRANCH  15  23
ATOM     23  C   UNL     1      -0.356  10.227  -1.417  0.00  0.00    -0.009 C 
ATOM     24  C   UNL     1      -1.069   8.954  -1.879  0.00  0.00    +0.015 C 
ATOM     25  C   UNL     1      -1.233  10.963  -0.402  0.00  0.00    +0.015 C 
ATOM     26  C   UNL     1      -0.100  11.134  -2.622  0.00  0.00    +0.015 C 
ENDBRANCH  15  23
BRANCH  16  27
ATOM     27  O   UNL     1       1.410  12.160  -0.367  0.00  0.00    -0.506 OA
ATOM     28  H   UNL     1       1.701  12.598  -1.178  0.00  0.00    +0.292 HD
ENDBRANCH  16  27
ENDBRANCH  11  13
BRANCH   1  29
ATOM     29  C   UNL     1       0.132  -0.011  -0.800  0.00  0.00    +0.098 C 
BRANCH  29  33
ATOM     30  C   UNL     1      -1.872  -1.754   2.547  0.00  0.00    +0.121 A 
ATOM     31  C   UNL     1      -2.580  -1.456   1.392  0.00  0.00    +0.046 A 
ATOM     32  C   UNL     1      -1.929  -0.893   0.311  0.00  0.00    +0.007 A 
ATOM     33  C   UNL     1      -0.575  -0.626   0.380  0.00  0.00    -0.041 A 
ATOM     34  C   UNL     1       0.134  -0.927   1.529  0.00  0.00    +0.007 A 
ATOM     35  C   UNL     1      -0.512  -1.485   2.614  0.00  0.00    +0.046 A 
BRANCH  30  36
ATOM     36  O   UNL     1      -2.509  -2.308   3.612  0.00  0.00    -0.492 OA
BRANCH  36  37
ATOM     37  C   UNL     1      -1.718  -2.588   4.768  0.00  0.00    +0.229 C 
BRANCH  37  39
ATOM     38  C   UNL     1      -1.754  -3.505   7.092  0.00  0.00    +0.007 C 
ATOM     39  C   UNL     1      -2.602  -3.205   5.854  0.00  0.00    +0.038 C 
ENDBRANCH  37  39
ENDBRANCH  36  37
ENDBRANCH  30  36
ENDBRANCH  29  33
ENDBRANCH   1  29
TORSDOF 9
