REMARK  Name = ZINC13495910
REMARK  14 active torsions:
REMARK  status: ('A' for Active; 'I' for Inactive)
REMARK    1  A    between atoms: C_1  and  C_2
REMARK    2  A    between atoms: C_2  and  C_3
REMARK    3  A    between atoms: C_3  and  C_5
REMARK    4  A    between atoms: C_3  and  N_76
REMARK    5  A    between atoms: N_9  and  C_10
REMARK    6  A    between atoms: C_10  and  C_11
REMARK    7  A    between atoms: C_17  and  C_18
REMARK    8  A    between atoms: C_17  and  N_76
REMARK    9  A    between atoms: C_18  and  C_19
REMARK   10  A    between atoms: C_24  and  C_25
REMARK   11  A    between atoms: C_26  and  C_27
REMARK   12  A    between atoms: C_26  and  N_76
REMARK   13  A    between atoms: C_31  and  C_40
REMARK   14  A    between atoms: C_33  and  C_39
REMARK                            x       y       z     vdW  Elec       q    Type
REMARK                         _______ _______ _______ _____ _____    ______ ____
ROOT
ATOM      1  N   UNL     1       0.202   0.765   0.299  0.00  0.00    +0.389 N 
ATOM      2  H   UNL     1       0.936   1.003  -0.378  0.00  0.00    -0.080 HD
ENDROOT
BRANCH   1   3
ATOM      3  C   UNL     1      -0.663   1.947   0.504  0.00  0.00    +0.003 C 
BRANCH   3   4
ATOM      4  C   UNL     1      -0.825   2.659  -0.814  0.00  0.00    +0.138 A 
ATOM      5  N   UNL     1      -1.089   2.108  -1.974  0.00  0.00    -0.115 NA
ATOM      6  N   UNL     1      -1.150   3.046  -2.855  0.00  0.00    -0.023 NA
ATOM      7  N   UNL     1      -0.932   4.181  -2.288  0.00  0.00    -0.044 NA
ATOM      8  N   UNL     1      -0.732   3.984  -1.028  0.00  0.00    -0.228 N 
BRANCH   8   9
ATOM      9  C   UNL     1      -0.453   5.011  -0.021  0.00  0.00    +0.178 C 
BRANCH   9  10
ATOM     10  C   UNL     1       1.058   5.229   0.080  0.00  0.00    +0.140 C 
ATOM     11  C   UNL     1       1.369   6.224   1.219  0.00  0.00    +0.035 C 
ATOM     12  C   UNL     1       2.522   7.069   0.612  0.00  0.00    +0.031 C 
ATOM     13  C   UNL     1       2.114   7.094  -0.882  0.00  0.00    +0.160 C 
ATOM     14  O   UNL     1       1.550   5.798  -1.139  0.00  0.00    -0.375 OA
ENDBRANCH   9  10
ENDBRANCH   8   9
ENDBRANCH   3   4
BRANCH   3  16
ATOM     15  C   UNL     1      -1.875   0.817   2.374  0.00  0.00    +0.002 C 
ATOM     16  C   UNL     1      -2.037   1.520   1.025  0.00  0.00    -0.011 C 
ENDBRANCH   3  16
ENDBRANCH   1   3
BRANCH   1  17
ATOM     17  C   UNL     1       0.835   0.376   1.577  0.00  0.00    -0.073 C 
BRANCH  17  18
ATOM     18  C   UNL     1       2.002   1.325   1.854  0.00  0.00    +0.017 C 
BRANCH  18  19
ATOM     19  C   UNL     1       2.755   0.853   3.071  0.00  0.00    -0.046 A 
ATOM     20  C   UNL     1       2.496   1.417   4.307  0.00  0.00    +0.004 A 
ATOM     21  C   UNL     1       3.184   0.981   5.424  0.00  0.00    +0.000 A 
ATOM     22  C   UNL     1       4.137  -0.013   5.304  0.00  0.00    +0.000 A 
ATOM     23  C   UNL     1       4.400  -0.574   4.068  0.00  0.00    +0.003 A 
ATOM     24  C   UNL     1       3.709  -0.140   2.951  0.00  0.00    -0.047 A 
ATOM     25  C   UNL     1       3.996  -0.751   1.604  0.00  0.00    +0.044 C 
ENDBRANCH  18  19
ENDBRANCH  17  18
ENDBRANCH   1  17
BRANCH   1  26
ATOM     26  C   UNL     1      -0.597  -0.359  -0.232  0.00  0.00    -0.037 C 
BRANCH  26  27
ATOM     27  C   UNL     1       0.342  -1.401  -0.785  0.00  0.00    +0.001 A 
ATOM     28  C   UNL     1       0.717  -2.450  -0.012  0.00  0.00    +0.017 A 
ATOM     29  C   UNL     1       1.626  -3.447  -0.580  0.00  0.00    -0.001 A 
ATOM     30  C   UNL     1       2.044  -4.554   0.166  0.00  0.00    +0.013 A 
ATOM     31  C   UNL     1       2.897  -5.463  -0.391  0.00  0.00    -0.050 A 
ATOM     32  C   UNL     1       3.354  -5.299  -1.692  0.00  0.00    +0.008 A 
ATOM     33  C   UNL     1       2.954  -4.217  -2.446  0.00  0.00    -0.026 A 
ATOM     34  C   UNL     1       2.086  -3.278  -1.900  0.00  0.00    +0.052 A 
ATOM     35  N   UNL     1       1.671  -2.185  -2.631  0.00  0.00    -0.322 N 
ATOM     36  H   UNL     1       1.989  -2.070  -3.540  0.00  0.00    +0.169 HD
ATOM     37  C   UNL     1       0.832  -1.277  -2.102  0.00  0.00    +0.251 A 
ATOM     38  O   UNL     1       0.487  -0.323  -2.778  0.00  0.00    -0.268 OA
ATOM     39  C   UNL     1       3.456  -4.052  -3.857  0.00  0.00    +0.046 C 
ATOM     40  C   UNL     1       3.348  -6.655   0.414  0.00  0.00    +0.044 C 
ENDBRANCH  26  27
ENDBRANCH   1  26
TORSDOF 10
