REMARK  Name = ZINC13833787
REMARK  3 active torsions:
REMARK  status: ('A' for Active; 'I' for Inactive)
REMARK    1  A    between atoms: C_1  and  C_2
REMARK    2  A    between atoms: C_8  and  N_10
REMARK    3  A    between atoms: C_11  and  C_13
REMARK                            x       y       z     vdW  Elec       q    Type
REMARK                         _______ _______ _______ _____ _____    ______ ____
ROOT
ATOM      1  C   UNL     1       0.033   0.579   4.842  0.00  0.00    +0.145 C 
ATOM      2  C   UNL     1      -0.746  -0.579   5.470  0.00  0.00    +0.064 C 
ATOM      3  C   UNL     1      -1.286  -0.117   6.822  0.00  0.00    -0.026 A 
ATOM      4  C   UNL     1      -2.361  -0.793   7.530  0.00  0.00    -0.007 A 
ATOM      5  C   UNL     1      -3.058  -1.950   7.098  0.00  0.00    +0.009 A 
ATOM      6  C   UNL     1      -4.043  -2.435   7.913  0.00  0.00    +0.001 A 
ATOM      7  C   UNL     1      -4.383  -1.854   9.125  0.00  0.00    +0.001 A 
ATOM      8  C   UNL     1      -3.727  -0.721   9.586  0.00  0.00    +0.015 A 
ATOM      9  C   UNL     1      -2.732  -0.221   8.774  0.00  0.00    +0.020 A 
ATOM     10  S   UNL     1      -1.650   1.163   8.936  0.00  0.00    -0.092 S 
ATOM     11  C   UNL     1      -0.753   0.976   7.418  0.00  0.00    +0.008 A 
ATOM     12  C   UNL     1       0.358   1.829   6.889  0.00  0.00    +0.124 C 
ATOM     13  N   UNL     1       1.024   1.094   5.797  0.00  0.00    -0.301 NA
ATOM     14  H   UNL     1       1.599   0.347   6.159  0.00  0.00    +0.123 HD
ENDROOT
BRANCH   1  16
ATOM     15  N   UNL     1       0.056  -0.038   2.447  0.00  0.00    -0.311 N 
ATOM     16  C   UNL     1       0.738   0.093   3.602  0.00  0.00    +0.231 C 
ATOM     17  O   UNL     1       1.919  -0.179   3.644  0.00  0.00    -0.274 OA
ATOM     18  H   UNL     1      -0.888   0.180   2.413  0.00  0.00    +0.149 HD
BRANCH  15  25
ATOM     19  C   UNL     1      -0.019   1.526   0.010  0.00  0.00    +0.009 C 
ATOM     20  C   UNL     1       0.002  -0.004   0.002  0.00  0.00    +0.006 C 
ATOM     21  C   UNL     1      -1.433  -0.534   0.013  0.00  0.00    +0.005 C 
ATOM     22  C   UNL     1      -1.413  -2.063   0.004  0.00  0.00    +0.000 C 
ATOM     23  C   UNL     1      -0.673  -2.570   1.244  0.00  0.00    +0.002 C 
ATOM     24  C   UNL     1       0.763  -2.041   1.233  0.00  0.00    +0.022 C 
ATOM     25  C   UNL     1       0.742  -0.511   1.242  0.00  0.00    +0.076 C 
ENDBRANCH  15  25
ENDBRANCH   1  16
TORSDOF 2
