REMARK  Name = ZINC00931005
REMARK  9 active torsions:
REMARK  status: ('A' for Active; 'I' for Inactive)
REMARK    1  A    between atoms: C_1  and  O_2
REMARK    2  A    between atoms: O_2  and  C_3
REMARK    3  A    between atoms: C_3  and  C_5
REMARK    4  A    between atoms: C_8  and  N_11
REMARK    5  A    between atoms: N_11  and  C_12
REMARK    6  A    between atoms: C_12  and  C_14
REMARK    7  A    between atoms: C_12  and  C_19
REMARK    8  A    between atoms: N_21  and  C_22
REMARK    9  A    between atoms: C_28  and  C_30
REMARK                            x       y       z     vdW  Elec       q    Type
REMARK                         _______ _______ _______ _____ _____    ______ ____
ROOT
ATOM      1  N   UNL     1      -0.195  -0.257  -0.039  0.00  0.00    -0.252 N 
ATOM      2  C   UNL     1       1.054  -0.731   0.138  0.00  0.00    +0.265 C 
ATOM      3  O   UNL     1       1.965   0.034   0.376  0.00  0.00    -0.271 OA
ENDROOT
BRANCH   2   4
ATOM      4  C   UNL     1       1.319  -2.211   0.042  0.00  0.00    +0.296 C 
ATOM      5  C   UNL     1       0.852  -2.906   1.328  0.00  0.00    +0.283 C 
ATOM      6  O   UNL     1       1.129  -4.305   1.208  0.00  0.00    -0.484 OA
ATOM      7  C   UNL     1       2.364  -4.646   0.747  0.00  0.00    +0.162 A 
ATOM      8  C   UNL     1       2.829  -5.939   0.940  0.00  0.00    +0.049 A 
ATOM      9  C   UNL     1       4.080  -6.301   0.475  0.00  0.00    +0.004 A 
ATOM     10  C   UNL     1       4.869  -5.377  -0.183  0.00  0.00    +0.004 A 
ATOM     11  C   UNL     1       4.412  -4.087  -0.378  0.00  0.00    +0.049 A 
ATOM     12  C   UNL     1       3.159  -3.716   0.088  0.00  0.00    +0.163 A 
ATOM     13  O   UNL     1       2.724  -2.442  -0.108  0.00  0.00    -0.472 OA
ENDBRANCH   2   4
BRANCH   1  17
ATOM     14  C   UNL     1      -0.878   3.852  -0.061  0.00  0.00    +0.059 A 
ATOM     15  C   UNL     1      -1.307   3.077   1.020  0.00  0.00    +0.017 A 
ATOM     16  C   UNL     1      -1.080   1.719   1.023  0.00  0.00    +0.024 A 
ATOM     17  C   UNL     1      -0.424   1.119  -0.047  0.00  0.00    +0.038 A 
ATOM     18  C   UNL     1       0.009   1.888  -1.122  0.00  0.00    +0.024 A 
ATOM     19  C   UNL     1      -0.219   3.246  -1.135  0.00  0.00    +0.017 A 
BRANCH  14  20
ATOM     20  C   UNL     1      -1.119   5.307  -0.069  0.00  0.00    +0.339 C 
ATOM     21  O   UNL     1      -1.692   5.833   0.864  0.00  0.00    -0.245 OA
BRANCH  20  23
ATOM     22  C   UNL     1      -0.977   7.478  -1.052  0.00  0.00    +0.280 C 
ATOM     23  O   UNL     1      -0.705   6.053  -1.112  0.00  0.00    -0.464 OA
ENDBRANCH  20  23
ENDBRANCH  14  20
ENDBRANCH   1  17
BRANCH   1  24
ATOM     24  C   UNL     1      -1.312  -1.186  -0.224  0.00  0.00    +0.204 C 
BRANCH  24  25
ATOM     25  C   UNL     1      -2.607  -0.415  -0.261  0.00  0.00    +0.019 A 
ATOM     26  C   UNL     1      -3.732  -0.601   0.471  0.00  0.00    +0.013 A 
ATOM     27  C   UNL     1      -4.811   0.238   0.266  0.00  0.00    +0.008 A 
ATOM     28  C   UNL     1      -4.712   1.223  -0.660  0.00  0.00    +0.045 A 
ATOM     29  S   UNL     1      -3.052   0.986  -1.274  0.00  0.00    -0.099 S 
ENDBRANCH  24  25
BRANCH  24  30
ATOM     30  C   UNL     1      -1.135  -1.933  -1.521  0.00  0.00    +0.239 C 
ATOM     31  O   UNL     1      -0.409  -1.486  -2.383  0.00  0.00    -0.273 OA
ATOM     32  N   UNL     1      -1.784  -3.097  -1.722  0.00  0.00    -0.311 N 
ATOM     33  H   UNL     1      -2.365  -3.454  -1.032  0.00  0.00    +0.149 HD
BRANCH  32  34
ATOM     34  C   UNL     1      -1.612  -3.823  -2.983  0.00  0.00    +0.073 C 
ATOM     35  C   UNL     1      -2.584  -3.269  -4.027  0.00  0.00    +0.022 C 
ATOM     36  C   UNL     1      -2.405  -4.027  -5.344  0.00  0.00    +0.002 C 
ATOM     37  C   UNL     1      -2.689  -5.514  -5.119  0.00  0.00    +0.000 C 
ATOM     38  C   UNL     1      -1.716  -6.067  -4.075  0.00  0.00    +0.002 C 
ATOM     39  C   UNL     1      -1.896  -5.309  -2.759  0.00  0.00    +0.022 C 
ENDBRANCH  32  34
ENDBRANCH  24  30
ENDBRANCH   1  24
TORSDOF 8
