REMARK  Name = ZINC62430835
REMARK  4 active torsions:
REMARK  status: ('A' for Active; 'I' for Inactive)
REMARK    1  A    between atoms: C_2  and  N_17
REMARK    2  A    between atoms: C_6  and  S_7
REMARK    3  A    between atoms: S_7  and  N_10
REMARK    4  A    between atoms: N_10  and  C_11
REMARK                            x       y       z     vdW  Elec       q    Type
REMARK                         _______ _______ _______ _____ _____    ______ ____
ROOT
ATOM      1  S   UNL     1      -1.506  -0.916   0.012  0.00  0.00    +0.060 S 
ATOM      2  O   UNL     1      -1.204  -2.195   0.553  0.00  0.00    -0.153 OA
ATOM      3  O   UNL     1      -2.492  -0.063   0.577  0.00  0.00    -0.153 OA
ENDROOT
BRANCH   1   9
ATOM      4  C   UNL     1      -0.017   1.381   0.010  0.00  0.00    +0.054 A 
ATOM      5  C   UNL     1       1.200   2.059   0.002  0.00  0.00    +0.045 A 
ATOM      6  C   UNL     1       2.380   1.326  -0.013  0.00  0.00    +0.133 A 
ATOM      7  N   UNL     1       2.352   0.008  -0.020  0.00  0.00    -0.259 NA
ATOM      8  C   UNL     1       1.218  -0.663  -0.013  0.00  0.00    +0.139 A 
ATOM      9  C   UNL     1       0.002  -0.004   0.002  0.00  0.00    +0.125 A 
BRANCH   5  10
ATOM     10  N   UNL     1       1.233   3.456   0.008  0.00  0.00    -0.357 N 
ATOM     11  H   UNL     1       0.405   3.960   0.019  0.00  0.00    +0.142 HD
ATOM     12  H   UNL     1       2.084   3.921   0.003  0.00  0.00    +0.142 HD
ENDBRANCH   5  10
ENDBRANCH   1   9
BRANCH   1  13
ATOM     13  N   UNL     1      -1.940  -1.161  -1.567  0.00  0.00    -0.187 NA
ATOM     14  H   UNL     1      -2.751  -0.757  -1.915  0.00  0.00    +0.148 HD
BRANCH  13  15
ATOM     15  C   UNL     1      -1.101  -1.987  -2.438  0.00  0.00    +0.077 C 
ATOM     16  C   UNL     1      -0.142  -1.090  -3.223  0.00  0.00    +0.020 C 
ATOM     17  C   UNL     1       0.735  -1.953  -4.133  0.00  0.00    +0.002 C 
ATOM     18  C   UNL     1      -0.152  -2.728  -5.109  0.00  0.00    +0.000 C 
ATOM     19  C   UNL     1      -1.111  -3.626  -4.324  0.00  0.00    +0.002 C 
ATOM     20  C   UNL     1      -1.988  -2.763  -3.414  0.00  0.00    +0.020 C 
ENDBRANCH  13  15
ENDBRANCH   1  13
TORSDOF 4
