REMARK  Name = ZINC31168346
REMARK  20 active torsions:
REMARK  status: ('A' for Active; 'I' for Inactive)
REMARK    1  A    between atoms: C_1  and  C_2
REMARK    2  A    between atoms: C_2  and  C_3
REMARK    3  A    between atoms: C_3  and  C_5
REMARK    4  A    between atoms: C_3  and  C_6
REMARK    5  A    between atoms: C_6  and  O_8
REMARK    6  A    between atoms: O_8  and  C_9
REMARK    7  A    between atoms: C_14  and  C_40
REMARK    8  A    between atoms: C_14  and  C_41
REMARK    9  A    between atoms: C_15  and  C_39
REMARK   10  A    between atoms: C_17  and  O_38
REMARK   11  A    between atoms: C_19  and  O_37
REMARK   12  A    between atoms: C_22  and  O_33
REMARK   13  A    between atoms: C_25  and  O_29
REMARK   14  A    between atoms: O_29  and  C_30
REMARK   15  A    between atoms: C_30  and  C_32
REMARK   16  A    between atoms: O_33  and  C_34
REMARK   17  A    between atoms: C_34  and  C_36
REMARK   18  A    between atoms: C_41  and  C_42
REMARK   19  A    between atoms: C_42  and  C_43
REMARK   20  A    between atoms: C_43  and  C_45
REMARK                            x       y       z     vdW  Elec       q    Type
REMARK                         _______ _______ _______ _____ _____    ______ ____
ROOT
ATOM      1  C   UNL     1      -5.348   1.566   1.431  0.00  0.00    +0.200 C 
ATOM      2  C   UNL     1      -6.670   1.928   2.070  0.00  0.00    +0.054 C 
ATOM      3  C   UNL     1      -7.403   0.744   2.690  0.00  0.00    +0.018 C 
ATOM      4  C   UNL     1      -8.712   1.203   3.305  0.00  0.00    -0.023 C 
ATOM      5  C   UNL     1      -8.525   1.954   4.609  0.00  0.00    +0.023 C 
ATOM      6  C   UNL     1      -7.632   1.196   5.584  0.00  0.00    +0.147 C 
ATOM      7  C   UNL     1      -6.278   0.913   4.926  0.00  0.00    +0.160 C 
ATOM      8  C   UNL     1      -6.514   0.061   3.700  0.00  0.00    +0.092 C 
ATOM      9  C   UNL     1      -7.013  -1.334   4.118  0.00  0.00    +0.327 C 
ATOM     10  O   UNL     1      -5.793  -1.964   4.589  0.00  0.00    -0.297 OA
ATOM     11  C   UNL     1      -4.745  -1.558   3.684  0.00  0.00    +0.343 C 
ATOM     12  C   UNL     1      -5.181  -0.261   3.046  0.00  0.00    +0.012 C 
ATOM     13  C   UNL     1      -4.643   0.418   2.084  0.00  0.00    +0.023 C 
ATOM     14  C   UNL     1      -9.894   2.173   5.257  0.00  0.00    +0.011 C 
ATOM     15  C   UNL     1      -9.429   2.120   2.311  0.00  0.00    +0.012 C 
ENDROOT
BRANCH   7  16
ATOM     16  O   UNL     1      -5.434   0.216   5.845  0.00  0.00    -0.388 OA
ATOM     17  H   UNL     1      -4.416  -0.074   5.547  0.00  0.00    +0.210 HD
ENDBRANCH   7  16
BRANCH   6  18
ATOM     18  O   UNL     1      -8.256  -0.040   5.938  0.00  0.00    -0.389 OA
ATOM     19  H   UNL     1      -7.758  -0.727   6.637  0.00  0.00    +0.210 HD
ENDBRANCH   6  18
BRANCH   1  20
ATOM     20  O   UNL     1      -5.586   1.230   0.038  0.00  0.00    -0.457 OA
BRANCH  20  21
ATOM     21  C   UNL     1      -4.591   1.480  -0.827  0.00  0.00    +0.310 C 
ATOM     22  O   UNL     1      -3.556   1.964  -0.434  0.00  0.00    -0.251 OA
BRANCH  21  23
ATOM     23  C   UNL     1      -4.765   1.157  -2.289  0.00  0.00    +0.094 C 
ATOM     24  C   UNL     1      -5.029  -0.341  -2.452  0.00  0.00    +0.019 C 
BRANCH  23  26
ATOM     25  C   UNL     1      -3.713   1.326  -4.549  0.00  0.00    +0.004 C 
ATOM     26  C   UNL     1      -3.493   1.537  -3.050  0.00  0.00    +0.011 C 
ENDBRANCH  23  26
ENDBRANCH  21  23
ENDBRANCH  20  21
ENDBRANCH   1  20
BRANCH  11  27
ATOM     27  O   UNL     1      -4.556  -2.572   2.662  0.00  0.00    -0.431 OA
BRANCH  27  28
ATOM     28  C   UNL     1      -4.081  -3.762   3.063  0.00  0.00    +0.306 C 
ATOM     29  O   UNL     1      -3.832  -3.950   4.231  0.00  0.00    -0.251 OA
ATOM     30  C   UNL     1      -3.859  -4.862   2.058  0.00  0.00    +0.136 C 
ENDBRANCH  27  28
ENDBRANCH  11  27
BRANCH   9  31
ATOM     31  O   UNL     1      -7.559  -2.051   2.979  0.00  0.00    -0.434 OA
BRANCH  31  32
ATOM     32  C   UNL     1      -8.216  -3.193   3.237  0.00  0.00    +0.306 C 
ATOM     33  O   UNL     1      -8.329  -3.582   4.375  0.00  0.00    -0.251 OA
ATOM     34  C   UNL     1      -8.810  -3.992   2.105  0.00  0.00    +0.136 C 
ENDBRANCH  31  32
ENDBRANCH   9  31
BRANCH   4  35
ATOM     35  C   UNL     1      -9.591  -0.022   3.564  0.00  0.00    +0.012 C 
BRANCH  35  36
ATOM     36  C   UNL     1     -11.065   0.385   3.502  0.00  0.00    +0.035 C 
BRANCH  36  37
ATOM     37  C   UNL     1     -11.930  -0.844   3.618  0.00  0.00    -0.055 C 
ATOM     38  C   UNL     1     -12.409  -1.210   4.802  0.00  0.00    +0.012 C 
BRANCH  37  39
ATOM     39  C   UNL     1     -12.244  -1.638   2.420  0.00  0.00    -0.005 C 
ATOM     40  C   UNL     1     -11.765  -1.272   1.236  0.00  0.00    +0.009 C 
ENDBRANCH  37  39
ENDBRANCH  36  37
ENDBRANCH  35  36
ENDBRANCH   4  35
TORSDOF 14
