REMARK  Name = ZINC08890533
REMARK  5 active torsions:
REMARK  status: ('A' for Active; 'I' for Inactive)
REMARK    1  A    between atoms: C_4  and  S_7
REMARK    2  A    between atoms: S_7  and  C_8
REMARK    3  A    between atoms: C_13  and  N_14
REMARK    4  A    between atoms: C_15  and  C_17
REMARK    5  A    between atoms: C_17  and  N_18
REMARK                            x       y       z     vdW  Elec       q    Type
REMARK                         _______ _______ _______ _____ _____    ______ ____
ROOT
ATOM      1  N   UNL     1      -2.336   6.032   3.626  0.00  0.00    -0.283 N 
ATOM      2  C   UNL     1      -2.002   5.797   2.341  0.00  0.00    +0.235 C 
ATOM      3  O   UNL     1      -2.599   4.954   1.704  0.00  0.00    -0.274 OA
ATOM      4  H   UNL     1      -1.813   6.653   4.157  0.00  0.00    +0.155 HD
ENDROOT
BRANCH   1  10
ATOM      5  C   UNL     1      -4.142   5.979   5.240  0.00  0.00    +0.034 A 
ATOM      6  C   UNL     1      -5.237   5.330   5.795  0.00  0.00    +0.017 A 
ATOM      7  C   UNL     1      -5.620   4.091   5.317  0.00  0.00    +0.001 A 
ATOM      8  C   UNL     1      -4.920   3.497   4.283  0.00  0.00    +0.002 A 
ATOM      9  C   UNL     1      -3.832   4.138   3.721  0.00  0.00    +0.024 A 
ATOM     10  C   UNL     1      -3.439   5.381   4.193  0.00  0.00    +0.047 A 
BRANCH   5  11
ATOM     11  S   UNL     1      -3.646   7.555   5.852  0.00  0.00    -0.088 S 
BRANCH  11  15
ATOM     12  C   UNL     1       0.041   6.658   8.325  0.00  0.00    +0.000 A 
ATOM     13  C   UNL     1      -0.346   7.969   8.114  0.00  0.00    +0.001 A 
ATOM     14  C   UNL     1      -1.470   8.246   7.361  0.00  0.00    +0.015 A 
ATOM     15  C   UNL     1      -2.212   7.206   6.814  0.00  0.00    +0.013 A 
ATOM     16  C   UNL     1      -1.823   5.890   7.033  0.00  0.00    +0.015 A 
ATOM     17  C   UNL     1      -0.695   5.620   7.783  0.00  0.00    +0.001 A 
ENDBRANCH  11  15
ENDBRANCH   5  11
ENDBRANCH   1  10
BRANCH   2  18
ATOM     18  C   UNL     1      -0.889   6.581   1.696  0.00  0.00    +0.214 C 
BRANCH  18  19
ATOM     19  N   UNL     1      -0.722   6.141   0.309  0.00  0.00    -0.215 N 
ATOM     20  C   UNL     1       0.100   5.141  -0.078  0.00  0.00    +0.251 C 
ATOM     21  O   UNL     1       0.813   4.461   0.628  0.00  0.00    -0.272 OA
ATOM     22  C   UNL     1      -0.061   5.052  -1.573  0.00  0.00    +0.138 C 
ATOM     23  C   UNL     1       1.274   5.287  -2.290  0.00  0.00    +0.045 C 
ATOM     24  C   UNL     1       1.772   3.845  -2.535  0.00  0.00    +0.038 C 
ATOM     25  C   UNL     1       0.520   2.992  -2.565  0.00  0.00    -0.042 A 
ATOM     26  C   UNL     1      -0.535   3.689  -2.001  0.00  0.00    -0.012 A 
ATOM     27  C   UNL     1      -1.783   3.094  -1.915  0.00  0.00    +0.006 A 
ATOM     28  C   UNL     1      -1.978   1.813  -2.393  0.00  0.00    +0.000 A 
ATOM     29  C   UNL     1      -0.926   1.120  -2.960  0.00  0.00    +0.000 A 
ATOM     30  C   UNL     1       0.321   1.710  -3.045  0.00  0.00    +0.004 A 
ATOM     31  N   UNL     1      -1.034   6.094  -1.902  0.00  0.00    -0.281 N 
ATOM     32  C   UNL     1      -1.366   6.681  -0.735  0.00  0.00    +0.310 C 
ATOM     33  O   UNL     1      -2.159   7.597  -0.640  0.00  0.00    -0.252 OA
ATOM     34  H   UNL     1      -1.373   6.317  -2.783  0.00  0.00    +0.152 HD
ENDBRANCH  18  19
ENDBRANCH   2  18
TORSDOF 5
