REMARK  Name = ZINC09289264
REMARK  8 active torsions:
REMARK  status: ('A' for Active; 'I' for Inactive)
REMARK    1  A    between atoms: C_1  and  C_2
REMARK    2  A    between atoms: C_2  and  C_3
REMARK    3  A    between atoms: C_3  and  C_5
REMARK    4  A    between atoms: C_3  and  N_20
REMARK    5  A    between atoms: N_7  and  C_8
REMARK    6  A    between atoms: C_8  and  C_9
REMARK    7  A    between atoms: C_9  and  C_10
REMARK    8  A    between atoms: C_32  and  C_34
REMARK                            x       y       z     vdW  Elec       q    Type
REMARK                         _______ _______ _______ _____ _____    ______ ____
ROOT
ATOM      1  C   UNL     1      -0.018   1.461   0.010  0.00  0.00    +0.196 C 
ENDROOT
BRANCH   1   2
ATOM      2  N   UNL     1       0.002  -0.004   0.002  0.00  0.00    -0.217 N 
ATOM      3  C   UNL     1      -0.561  -0.672   1.022  0.00  0.00    +0.277 A 
ATOM      4  O   UNL     1      -1.081  -0.060   1.941  0.00  0.00    -0.265 OA
ATOM      5  C   UNL     1      -0.555  -2.102   1.027  0.00  0.00    +0.065 A 
ATOM      6  C   UNL     1      -1.122  -3.004   2.048  0.00  0.00    +0.002 A 
ATOM      7  C   UNL     1      -1.796  -2.640   3.235  0.00  0.00    +0.010 A 
ATOM      8  C   UNL     1      -2.269  -3.599   4.092  0.00  0.00    +0.001 A 
ATOM      9  C   UNL     1      -2.103  -4.950   3.823  0.00  0.00    +0.001 A 
ATOM     10  C   UNL     1      -1.449  -5.338   2.670  0.00  0.00    +0.015 A 
ATOM     11  C   UNL     1      -0.969  -4.378   1.802  0.00  0.00    +0.021 A 
ATOM     12  S   UNL     1      -0.096  -4.457   0.258  0.00  0.00    -0.086 S 
ATOM     13  C   UNL     1       0.067  -2.720  -0.062  0.00  0.00    +0.048 A 
ATOM     14  C   UNL     1       0.644  -1.977  -1.098  0.00  0.00    +0.073 A 
ATOM     15  N   UNL     1       0.611  -0.672  -1.064  0.00  0.00    -0.172 NA
ATOM     16  C   UNL     1       1.304  -2.684  -2.253  0.00  0.00    +0.068 C 
ENDBRANCH   1   2
BRANCH   1  17
ATOM     17  C   UNL     1       1.396   1.982  -0.001  0.00  0.00    +0.238 C 
ATOM     18  O   UNL     1       2.328   1.207  -0.014  0.00  0.00    -0.273 OA
ATOM     19  N   UNL     1       1.624   3.311   0.004  0.00  0.00    -0.313 N 
ATOM     20  H   UNL     1       0.879   3.931   0.015  0.00  0.00    +0.149 HD
BRANCH  19  21
ATOM     21  C   UNL     1       2.999   3.818  -0.006  0.00  0.00    +0.109 C 
BRANCH  21  22
ATOM     22  C   UNL     1       2.978   5.348   0.002  0.00  0.00    +0.056 C 
BRANCH  22  23
ATOM     23  C   UNL     1       4.392   5.869  -0.008  0.00  0.00    -0.021 A 
ATOM     24  C   UNL     1       5.117   6.234   1.061  0.00  0.00    +0.087 A 
ATOM     25  N   UNL     1       6.357   6.654   0.663  0.00  0.00    -0.360 N 
ATOM     26  H   UNL     1       7.057   6.964   1.258  0.00  0.00    +0.165 HD
ATOM     27  C   UNL     1       6.460   6.575  -0.707  0.00  0.00    +0.047 A 
ATOM     28  C   UNL     1       5.234   6.081  -1.188  0.00  0.00    +0.003 A 
ATOM     29  C   UNL     1       5.047   5.895  -2.559  0.00  0.00    +0.010 A 
ATOM     30  C   UNL     1       6.058   6.195  -3.428  0.00  0.00    +0.001 A 
ATOM     31  C   UNL     1       7.269   6.684  -2.959  0.00  0.00    +0.002 A 
ATOM     32  C   UNL     1       7.475   6.874  -1.610  0.00  0.00    +0.026 A 
ENDBRANCH  22  23
ENDBRANCH  21  22
ENDBRANCH  19  21
ENDBRANCH   1  17
BRANCH   1  34
ATOM     33  C   UNL     1      -2.226   1.542  -1.156  0.00  0.00    +0.006 C 
ATOM     34  C   UNL     1      -0.758   1.968  -1.230  0.00  0.00    +0.033 C 
ENDBRANCH   1  34
TORSDOF 6
