REMARK  Name = ZINC01224617
REMARK  7 active torsions:
REMARK  status: ('A' for Active; 'I' for Inactive)
REMARK    1  A    between atoms: C_1  and  O_2
REMARK    2  A    between atoms: O_2  and  C_3
REMARK    3  A    between atoms: C_10  and  C_15
REMARK    4  A    between atoms: C_15  and  N_16
REMARK    5  A    between atoms: N_16  and  C_17
REMARK    6  A    between atoms: C_17  and  C_18
REMARK    7  A    between atoms: N_29  and  C_30
REMARK                            x       y       z     vdW  Elec       q    Type
REMARK                         _______ _______ _______ _____ _____    ______ ____
ROOT
ATOM      1  N   UNL     1       3.596   1.392   0.645  0.00  0.00    -0.277 N 
ATOM      2  C   UNL     1       2.331   0.926   0.654  0.00  0.00    +0.303 C 
ATOM      3  O   UNL     1       2.065  -0.097   1.255  0.00  0.00    -0.253 OA
ATOM      4  N   UNL     1       1.362   1.593  -0.002  0.00  0.00    -0.296 N 
ATOM      5  H   UNL     1       1.602   2.518  -0.546  0.00  0.00    +0.151 HD
ENDROOT
BRANCH   4   6
ATOM      6  C   UNL     1      -0.013   1.086   0.008  0.00  0.00    +0.074 C 
ATOM      7  C   UNL     1      -0.729   1.579   1.267  0.00  0.00    +0.022 C 
ATOM      8  C   UNL     1      -2.164   1.050   1.278  0.00  0.00    +0.002 C 
ATOM      9  C   UNL     1      -2.904   1.556   0.038  0.00  0.00    +0.000 C 
ATOM     10  C   UNL     1      -2.188   1.063  -1.221  0.00  0.00    +0.002 C 
ATOM     11  C   UNL     1      -0.753   1.593  -1.232  0.00  0.00    +0.022 C 
ENDBRANCH   4   6
BRANCH   1  12
ATOM     12  C   UNL     1       4.649   0.667   1.359  0.00  0.00    +0.150 C 
BRANCH  12  20
ATOM     13  C   UNL     1       8.692  -1.708  -2.696  0.00  0.00    +0.121 A 
ATOM     14  C   UNL     1       8.074  -2.951  -2.814  0.00  0.00    +0.047 A 
ATOM     15  C   UNL     1       6.928  -3.234  -2.105  0.00  0.00    +0.030 A 
ATOM     16  C   UNL     1       6.378  -2.275  -1.261  0.00  0.00    +0.049 A 
ATOM     17  C   UNL     1       7.000  -1.018  -1.139  0.00  0.00    +0.002 A 
ATOM     18  C   UNL     1       8.163  -0.742  -1.865  0.00  0.00    +0.055 A 
ATOM     19  C   UNL     1       6.407  -0.017  -0.251  0.00  0.00    +0.020 A 
ATOM     20  C   UNL     1       5.282  -0.340   0.433  0.00  0.00    +0.035 A 
ATOM     21  C   UNL     1       4.697  -1.615   0.275  0.00  0.00    +0.254 A 
ATOM     22  O   UNL     1       3.683  -1.884   0.896  0.00  0.00    -0.268 OA
ATOM     23  N   UNL     1       5.230  -2.540  -0.541  0.00  0.00    -0.322 N 
ATOM     24  H   UNL     1       4.739  -3.520  -0.631  0.00  0.00    +0.169 HD
BRANCH  13  26
ATOM     25  C   UNL     1      10.318  -2.488  -4.247  0.00  0.00    +0.277 C 
ATOM     26  O   UNL     1       9.823  -1.445  -3.405  0.00  0.00    -0.495 OA
ENDBRANCH  13  26
ENDBRANCH  12  20
ENDBRANCH   1  12
BRANCH   1  27
ATOM     27  C   UNL     1       3.916   2.624  -0.080  0.00  0.00    +0.145 C 
BRANCH  27  28
ATOM     28  C   UNL     1       3.755   3.805   0.843  0.00  0.00    -0.026 A 
ATOM     29  C   UNL     1       2.537   4.453   0.928  0.00  0.00    +0.009 A 
ATOM     30  C   UNL     1       2.382   5.533   1.777  0.00  0.00    +0.050 A 
ATOM     31  C   UNL     1       3.453   5.977   2.535  0.00  0.00    +0.166 A 
ATOM     32  C   UNL     1       4.683   5.329   2.445  0.00  0.00    +0.167 A 
ATOM     33  C   UNL     1       4.828   4.243   1.597  0.00  0.00    +0.054 A 
ATOM     34  O   UNL     1       5.565   5.949   3.281  0.00  0.00    -0.453 OA
ATOM     35  C   UNL     1       4.980   7.231   3.576  0.00  0.00    +0.466 C 
ATOM     36  O   UNL     1       3.566   7.003   3.428  0.00  0.00    -0.453 OA
ENDBRANCH  27  28
ENDBRANCH   1  27
TORSDOF 6
