REMARK  Name = ZINC35449499
REMARK  7 active torsions:
REMARK  status: ('A' for Active; 'I' for Inactive)
REMARK    1  A    between atoms: C_1  and  C_2
REMARK    2  A    between atoms: C_2  and  C_3
REMARK    3  A    between atoms: C_2  and  C_4
REMARK    4  A    between atoms: C_4  and  C_5
REMARK    5  A    between atoms: C_5  and  S_6
REMARK    6  A    between atoms: S_6  and  C_7
REMARK    7  A    between atoms: C_14  and  C_24
REMARK                            x       y       z     vdW  Elec       q    Type
REMARK                         _______ _______ _______ _____ _____    ______ ____
ROOT
ATOM      1  C   UNL     1      -2.929  -4.430  -0.269  0.00  0.00    +0.171 A 
ATOM      2  N   UNL     1      -1.719  -4.943  -0.356  0.00  0.00    -0.208 NA
ATOM      3  C   UNL     1      -1.536  -6.262  -0.478  0.00  0.00    +0.135 A 
ATOM      4  C   UNL     1      -2.630  -7.110  -0.509  0.00  0.00    +0.069 A 
ATOM      5  C   UNL     1      -3.913  -6.559  -0.417  0.00  0.00    +0.258 A 
ATOM      6  O   UNL     1      -4.901  -7.276  -0.444  0.00  0.00    -0.267 OA
ATOM      7  N   UNL     1      -4.038  -5.221  -0.293  0.00  0.00    -0.302 N 
ATOM      8  C   UNL     1      -2.448  -8.593  -0.633  0.00  0.00    +0.092 C 
ATOM      9  C   UNL     1      -1.069  -8.937  -1.137  0.00  0.00    +0.024 C 
ATOM     10  C   UNL     1      -0.062  -8.040  -1.088  0.00  0.00    +0.017 C 
ATOM     11  N   UNL     1      -0.262  -6.787  -0.576  0.00  0.00    -0.302 N 
ATOM     12  C   UNL     1       1.315  -8.388  -1.599  0.00  0.00    +0.051 C 
ATOM     13  C   UNL     1       1.570  -9.885  -1.409  0.00  0.00    +0.014 C 
ATOM     14  C   UNL     1       0.485 -10.661  -2.163  0.00  0.00    +0.080 C 
ATOM     15  C   UNL     1      -0.864 -10.227  -1.660  0.00  0.00    +0.162 C 
ATOM     16  O   UNL     1      -1.796 -11.005  -1.707  0.00  0.00    -0.292 OA
ATOM     17  H   UNL     1       0.498  -6.261  -0.280  0.00  0.00    +0.153 HD
ATOM     18  H   UNL     1      -4.920  -4.821  -0.226  0.00  0.00    +0.171 HD
ENDROOT
BRANCH   8  19
ATOM     19  C   UNL     1      -2.651  -9.230   0.717  0.00  0.00    -0.035 A 
ATOM     20  C   UNL     1      -1.841  -8.872   1.779  0.00  0.00    +0.006 A 
ATOM     21  C   UNL     1      -2.027  -9.456   3.018  0.00  0.00    +0.020 A 
ATOM     22  C   UNL     1      -3.024 -10.399   3.195  0.00  0.00    +0.041 A 
ATOM     23  C   UNL     1      -3.834 -10.757   2.132  0.00  0.00    +0.020 A 
ATOM     24  C   UNL     1      -3.651 -10.168   0.895  0.00  0.00    +0.006 A 
ATOM     25 CL   UNL     1      -3.258 -11.133   4.751  0.00  0.00    -0.084 Cl
ENDBRANCH   8  19
BRANCH   1  26
ATOM     26  S   UNL     1      -3.118  -2.686  -0.108  0.00  0.00    -0.088 S 
BRANCH  26  27
ATOM     27  C   UNL     1      -1.416  -2.058  -0.121  0.00  0.00    +0.077 C 
BRANCH  27  28
ATOM     28  C   UNL     1      -1.433  -0.534   0.013  0.00  0.00    +0.014 C 
BRANCH  28  30
ATOM     29  C   UNL     1      -0.019   1.526   0.010  0.00  0.00    +0.007 C 
ATOM     30  C   UNL     1       0.002  -0.004   0.002  0.00  0.00    -0.016 C 
ATOM     31  C   UNL     1       0.742  -0.511   1.242  0.00  0.00    +0.007 C 
ENDBRANCH  28  30
ENDBRANCH  27  28
ENDBRANCH  26  27
ENDBRANCH   1  26
TORSDOF 5
