REMARK  Name = ZINC17091515
REMARK  8 active torsions:
REMARK  status: ('A' for Active; 'I' for Inactive)
REMARK    1  A    between atoms: C_1  and  C_2
REMARK    2  A    between atoms: C_2  and  C_3
REMARK    3  A    between atoms: C_4  and  C_31
REMARK    4  A    between atoms: C_6  and  N_17
REMARK    5  A    between atoms: C_7  and  C_8
REMARK    6  A    between atoms: N_10  and  C_11
REMARK    7  A    between atoms: C_18  and  C_20
REMARK    8  A    between atoms: C_26  and  C_28
REMARK                            x       y       z     vdW  Elec       q    Type
REMARK                         _______ _______ _______ _____ _____    ______ ____
ROOT
ATOM      1  C   UNL     1      -1.949   2.292   1.253  0.00  0.00    -0.024 A 
ATOM      2  C   UNL     1      -3.120   2.947   1.157  0.00  0.00    -0.008 A 
ATOM      3  S   UNL     1      -3.367   3.090  -0.601  0.00  0.00    -0.078 S 
ATOM      4  C   UNL     1      -1.933   2.296  -1.160  0.00  0.00    +0.084 A 
ATOM      5  C   UNL     1      -1.294   1.929   0.019  0.00  0.00    +0.069 A 
ATOM      6  C   UNL     1      -4.008   3.441   2.269  0.00  0.00    +0.052 C 
ENDROOT
BRANCH   5   7
ATOM      7  C   UNL     1      -0.014   1.213   0.009  0.00  0.00    +0.247 C 
ATOM      8  O   UNL     1       0.002  -0.004   0.002  0.00  0.00    -0.270 OA
ATOM      9  N   UNL     1       1.143   1.903   0.001  0.00  0.00    -0.308 N 
ATOM     10  H   UNL     1       1.129   3.002   0.007  0.00  0.00    +0.149 HD
BRANCH   9  11
ATOM     11  C   UNL     1       2.422   1.188  -0.015  0.00  0.00    +0.073 C 
ATOM     12  C   UNL     1       2.819   0.821   1.417  0.00  0.00    +0.022 C 
ATOM     13  C   UNL     1       4.155   0.074   1.400  0.00  0.00    +0.002 C 
ATOM     14  C   UNL     1       5.232   0.970   0.785  0.00  0.00    +0.000 C 
ATOM     15  C   UNL     1       4.835   1.336  -0.647  0.00  0.00    +0.002 C 
ATOM     16  C   UNL     1       3.499   2.083  -0.630  0.00  0.00    +0.022 C 
ENDBRANCH   9  11
ENDBRANCH   5   7
BRANCH   4  17
ATOM     17  N   UNL     1      -1.523   2.078  -2.466  0.00  0.00    -0.279 N 
ATOM     18  C   UNL     1      -2.282   2.511  -3.492  0.00  0.00    +0.222 C 
ATOM     19  O   UNL     1      -3.324   3.092  -3.272  0.00  0.00    -0.275 OA
ATOM     20  H   UNL     1      -0.578   1.551  -2.665  0.00  0.00    +0.155 HD
BRANCH  18  21
ATOM     21  C   UNL     1      -1.836   2.274  -4.912  0.00  0.00    +0.093 C 
ATOM     22  C   UNL     1      -1.727   0.770  -5.172  0.00  0.00    +0.040 C 
ATOM     23  C   UNL     1      -1.545   0.511  -6.639  0.00  0.00    -0.030 C 
ATOM     24  C   UNL     1      -1.803   1.377  -7.566  0.00  0.00    -0.030 C 
ATOM     25  C   UNL     1      -2.310   2.765  -7.302  0.00  0.00    +0.042 C 
ATOM     26  C   UNL     1      -2.870   2.860  -5.882  0.00  0.00    +0.118 C 
BRANCH  26  27
ATOM     27  C   UNL     1      -3.132   4.302  -5.532  0.00  0.00    +0.360 C 
ATOM     28  O   UNL     1      -2.553   4.813  -4.602  0.00  0.00    -0.246 OA
ATOM     29  O   UNL     1      -4.008   5.019  -6.252  0.00  0.00    -0.246 OA
ENDBRANCH  26  27
ENDBRANCH  18  21
ENDBRANCH   4  17
BRANCH   1  31
ATOM     30  C   UNL     1      -0.438   3.094   3.048  0.00  0.00    +0.009 C 
ATOM     31  C   UNL     1      -1.347   1.951   2.591  0.00  0.00    +0.033 C 
ENDBRANCH   1  31
TORSDOF 6
