REMARK  Name = ZINC10821182
REMARK  9 active torsions:
REMARK  status: ('A' for Active; 'I' for Inactive)
REMARK    1  A    between atoms: C_1  and  C_2
REMARK    2  A    between atoms: C_2  and  C_4
REMARK    3  A    between atoms: C_2  and  S_12
REMARK    4  A    between atoms: N_6  and  C_7
REMARK    5  A    between atoms: C_7  and  C_8
REMARK    6  A    between atoms: S_12  and  C_13
REMARK    7  A    between atoms: N_17  and  C_18
REMARK    8  A    between atoms: C_23  and  O_24
REMARK    9  A    between atoms: O_24  and  C_25
REMARK                            x       y       z     vdW  Elec       q    Type
REMARK                         _______ _______ _______ _____ _____    ______ ____
ROOT
ATOM      1  C   UNL     1      -2.240  -0.795   1.417  0.00  0.00    +0.198 A 
ATOM      2  N   UNL     1      -1.102  -1.443   1.491  0.00  0.00    -0.120 NA
ATOM      3  N   UNL     1      -1.388  -2.811   1.591  0.00  0.00    -0.112 NA
ATOM      4  C   UNL     1      -2.690  -2.956   1.574  0.00  0.00    +0.225 A 
ATOM      5  N   UNL     1      -3.253  -1.714   1.472  0.00  0.00    -0.255 N 
ATOM      6  N   UNL     1      -3.378  -4.160   1.653  0.00  0.00    -0.299 N 
ATOM      7  C   UNL     1      -4.331  -4.150   2.770  0.00  0.00    +0.108 C 
ATOM      8  C   UNL     1      -5.170  -5.429   2.738  0.00  0.00    +0.019 C 
ATOM      9  C   UNL     1      -4.245  -6.644   2.844  0.00  0.00    +0.003 C 
ATOM     10  C   UNL     1      -3.231  -6.605   1.697  0.00  0.00    +0.019 C 
ATOM     11  C   UNL     1      -2.448  -5.292   1.760  0.00  0.00    +0.108 C 
ENDROOT
BRANCH   5  12
ATOM     12  C   UNL     1      -4.628  -1.431   1.429  0.00  0.00    +0.093 A 
ATOM     13  C   UNL     1      -5.289  -1.384   0.211  0.00  0.00    +0.030 A 
ATOM     14  C   UNL     1      -6.642  -1.105   0.170  0.00  0.00    +0.002 A 
ATOM     15  C   UNL     1      -7.340  -0.873   1.341  0.00  0.00    +0.004 A 
ATOM     16  C   UNL     1      -6.687  -0.918   2.558  0.00  0.00    +0.048 A 
ATOM     17  C   UNL     1      -5.331  -1.202   2.608  0.00  0.00    +0.144 A 
BRANCH  17  18
ATOM     18  O   UNL     1      -4.689  -1.253   3.805  0.00  0.00    -0.493 OA
ATOM     19  C   UNL     1      -5.474  -1.008   4.974  0.00  0.00    +0.277 C 
ENDBRANCH  17  18
ENDBRANCH   5  12
BRANCH   1  20
ATOM     20  S   UNL     1      -2.431   0.951   1.280  0.00  0.00    -0.073 S 
BRANCH  20  22
ATOM     21  C   UNL     1      -0.013   1.086   0.008  0.00  0.00    +0.029 C 
ATOM     22  C   UNL     1      -0.729   1.579   1.267  0.00  0.00    +0.137 C 
BRANCH  22  23
ATOM     23  C   UNL     1      -0.749   3.086   1.275  0.00  0.00    +0.226 C 
ATOM     24  O   UNL     1      -1.748   3.681   0.929  0.00  0.00    -0.275 OA
ATOM     25  N   UNL     1       0.342   3.773   1.668  0.00  0.00    -0.306 N 
ATOM     26  H   UNL     1       1.141   3.297   1.945  0.00  0.00    +0.149 HD
BRANCH  25  27
ATOM     27  C   UNL     1       0.322   5.237   1.676  0.00  0.00    +0.217 C 
BRANCH  27  28
ATOM     28  C   UNL     1       1.675   5.763   2.159  0.00  0.00    +0.405 C 
ATOM     29  F   UNL     1       2.684   5.315   1.299  0.00  0.00    -0.169 F 
ATOM     30  F   UNL     1       1.656   7.162   2.167  0.00  0.00    -0.169 F 
ATOM     31  F   UNL     1       1.923   5.293   3.453  0.00  0.00    -0.169 F 
ENDBRANCH  27  28
ENDBRANCH  25  27
ENDBRANCH  22  23
ENDBRANCH  20  22
ENDBRANCH   1  20
TORSDOF 7
