REMARK  Name = ZINC00881931
REMARK  6 active torsions:
REMARK  status: ('A' for Active; 'I' for Inactive)
REMARK    1  A    between atoms: C_1  and  C_2
REMARK    2  A    between atoms: C_6  and  C_8
REMARK    3  A    between atoms: C_13  and  C_18
REMARK    4  A    between atoms: C_13  and  C_19
REMARK    5  A    between atoms: C_23  and  C_28
REMARK    6  A    between atoms: C_25  and  O_27
REMARK                            x       y       z     vdW  Elec       q    Type
REMARK                         _______ _______ _______ _____ _____    ______ ____
ROOT
ATOM      1  C   UNL     1       0.611   4.318   0.728  0.00  0.00    +0.058 C 
ATOM      2  C   UNL     1       1.881   3.643   1.249  0.00  0.00    +0.081 C 
ATOM      3  C   UNL     1       2.064   2.316   0.505  0.00  0.00    +0.180 C 
ATOM      4  C   UNL     1       3.274   1.573   1.079  0.00  0.00    +0.094 C 
ATOM      5  C   UNL     1       3.372   0.203   0.398  0.00  0.00    +0.033 C 
ATOM      6  N   UNL     1       2.104  -0.508   0.563  0.00  0.00    -0.321 N 
ATOM      7  C   UNL     1       0.942   0.152   0.680  0.00  0.00    +0.133 C 
ATOM      8  S   UNL     1      -0.503  -0.751   0.855  0.00  0.00    -0.019 S 
ATOM      9  N   UNL     1       0.867   1.492   0.666  0.00  0.00    -0.289 N 
ATOM     10  C   UNL     1       4.500  -0.607   1.040  0.00  0.00    +0.031 C 
ATOM     11  C   UNL     1       3.662   0.393  -1.093  0.00  0.00    +0.031 C 
ATOM     12  O   UNL     1       2.282   2.593  -0.877  0.00  0.00    -0.468 OA
ATOM     13  C   UNL     1       1.431   3.453  -1.496  0.00  0.00    +0.131 A 
ATOM     14  C   UNL     1       0.611   4.309  -0.780  0.00  0.00    +0.005 A 
ATOM     15  C   UNL     1      -0.231   5.181  -1.450  0.00  0.00    -0.040 A 
ATOM     16  C   UNL     1      -0.263   5.199  -2.830  0.00  0.00    +0.049 A 
ATOM     17  C   UNL     1       0.553   4.339  -3.552  0.00  0.00    +0.121 A 
ATOM     18  C   UNL     1       1.398   3.468  -2.885  0.00  0.00    +0.091 A 
ATOM     19  C   UNL     1      -1.118   6.116  -0.669  0.00  0.00    +0.044 C 
ATOM     20  H   UNL     1       2.103  -1.478   0.589  0.00  0.00    +0.148 HD
ATOM     21  H   UNL     1       0.003   1.921   0.760  0.00  0.00    +0.151 HD
ENDROOT
BRANCH   1  27
ATOM     22  C   UNL     1      -1.479   7.840   3.605  0.00  0.00    +0.044 C 
ATOM     23  C   UNL     1      -0.439   7.427   2.597  0.00  0.00    -0.050 A 
ATOM     24  C   UNL     1       0.471   8.354   2.123  0.00  0.00    +0.003 A 
ATOM     25  C   UNL     1       1.426   7.974   1.198  0.00  0.00    +0.001 A 
ATOM     26  C   UNL     1       1.474   6.667   0.751  0.00  0.00    +0.004 A 
ATOM     27  C   UNL     1       0.561   5.742   1.220  0.00  0.00    -0.039 A 
ATOM     28  C   UNL     1      -0.394   6.121   2.145  0.00  0.00    +0.007 A 
ENDBRANCH   1  27
BRANCH  17  29
ATOM     29  O   UNL     1       0.523   4.353  -4.911  0.00  0.00    -0.507 OA
ATOM     30  H   UNL     1       1.152   4.968  -5.312  0.00  0.00    +0.292 HD
ENDBRANCH  17  29
TORSDOF 2
