REMARK  Name = ZINC44942318
REMARK  5 active torsions:
REMARK  status: ('A' for Active; 'I' for Inactive)
REMARK    1  A    between atoms: C_4  and  C_7
REMARK    2  A    between atoms: C_7  and  C_8
REMARK    3  A    between atoms: C_8  and  O_38
REMARK    4  A    between atoms: C_14  and  C_16
REMARK    5  A    between atoms: C_22  and  C_24
REMARK                            x       y       z     vdW  Elec       q    Type
REMARK                         _______ _______ _______ _____ _____    ______ ____
ROOT
ATOM      1  C   UNL     1       6.581  -4.452   4.071  0.00  0.00    +0.087 C 
ATOM      2  C   UNL     1       7.651  -3.548   4.686  0.00  0.00    +0.013 C 
ATOM      3  C   UNL     1       9.010  -4.248   4.620  0.00  0.00    +0.001 C 
ATOM      4  C   UNL     1       8.944  -5.563   5.399  0.00  0.00    +0.001 C 
ATOM      5  C   UNL     1       7.874  -6.467   4.784  0.00  0.00    +0.013 C 
ATOM      6  C   UNL     1       6.515  -5.767   4.849  0.00  0.00    +0.087 C 
ENDROOT
BRANCH   6   7
ATOM      7  C   UNL     1       5.462  -6.658   4.243  0.00  0.00    +0.219 C 
ATOM      8  O   UNL     1       5.242  -6.613   3.051  0.00  0.00    -0.275 OA
ATOM      9  N   UNL     1       4.763  -7.504   5.026  0.00  0.00    -0.298 N 
ATOM     10  C   UNL     1       5.091  -7.649   6.451  0.00  0.00    +0.126 C 
ATOM     11  C   UNL     1       3.827  -7.375   7.275  0.00  0.00    +0.125 C 
ATOM     12  N   UNL     1       2.723  -8.169   6.719  0.00  0.00    -0.314 N 
ATOM     13  C   UNL     1       2.394  -8.025   5.294  0.00  0.00    +0.125 C 
ATOM     14  C   UNL     1       3.655  -8.294   4.470  0.00  0.00    +0.126 C 
ATOM     15  C   UNL     1       2.002  -9.042   7.526  0.00  0.00    +0.099 A 
ATOM     16  C   UNL     1       2.238  -9.068   8.897  0.00  0.00    +0.042 A 
ATOM     17  C   UNL     1       1.514  -9.941   9.688  0.00  0.00    +0.005 A 
ATOM     18  C   UNL     1       0.574 -10.762   9.079  0.00  0.00    +0.018 A 
ATOM     19  C   UNL     1       0.391 -10.684   7.713  0.00  0.00    +0.084 A 
ATOM     20  N   UNL     1       1.093  -9.838   6.984  0.00  0.00    -0.350 N 
ATOM     21  H   UNL     1       0.942  -9.800   6.026  0.00  0.00    +0.166 HD
ENDBRANCH   6   7
BRANCH   1  28
ATOM     22  C   UNL     1       4.115  -1.522   0.882  0.00  0.00    +0.073 C 
ATOM     23  C   UNL     1       3.100  -2.203   1.803  0.00  0.00    +0.054 C 
ATOM     24  C   UNL     1       3.617  -2.163   3.245  0.00  0.00    +0.110 C 
ATOM     25  N   UNL     1       4.960  -2.759   3.281  0.00  0.00    -0.301 N 
ATOM     26  C   UNL     1       5.989  -2.239   2.370  0.00  0.00    +0.110 C 
ATOM     27  C   UNL     1       5.444  -2.278   0.939  0.00  0.00    +0.054 C 
ATOM     28  C   UNL     1       5.243  -3.762   4.135  0.00  0.00    +0.219 C 
ATOM     29  O   UNL     1       4.420  -4.110   4.956  0.00  0.00    -0.275 OA
BRANCH  22  30
ATOM     30  O   UNL     1       4.315  -0.173   1.309  0.00  0.00    -0.388 OA
ATOM     31  H   UNL     1       3.512   0.366   1.298  0.00  0.00    +0.210 HD
ENDBRANCH  22  30
BRANCH  22  32
ATOM     32  C   UNL     1       3.585  -1.529  -0.553  0.00  0.00    +0.070 C 
BRANCH  32  36
ATOM     33  C   UNL     1      -0.127   0.579  -0.715  0.00  0.00    +0.000 A 
ATOM     34  C   UNL     1       1.062   1.256  -0.910  0.00  0.00    +0.000 A 
ATOM     35  C   UNL     1       2.263   0.574  -0.857  0.00  0.00    +0.004 A 
ATOM     36  C   UNL     1       2.276  -0.786  -0.609  0.00  0.00    -0.045 A 
ATOM     37  C   UNL     1       1.087  -1.463  -0.413  0.00  0.00    +0.004 A 
ATOM     38  C   UNL     1      -0.114  -0.781  -0.467  0.00  0.00    +0.000 A 
ENDBRANCH  32  36
ENDBRANCH  22  32
ENDBRANCH   1  28
TORSDOF 5
