REMARK  Name = ZINC05015938
REMARK  7 active torsions:
REMARK  status: ('A' for Active; 'I' for Inactive)
REMARK    1  A    between atoms: C_1  and  C_2
REMARK    2  A    between atoms: C_5  and  C_8
REMARK    3  A    between atoms: C_8  and  N_9
REMARK    4  A    between atoms: C_10  and  C_12
REMARK    5  A    between atoms: C_12  and  C_13
REMARK    6  A    between atoms: C_20  and  C_26
REMARK    7  A    between atoms: C_21  and  C_25
REMARK                            x       y       z     vdW  Elec       q    Type
REMARK                         _______ _______ _______ _____ _____    ______ ____
ROOT
ATOM      1  C   UNL     1       1.270   2.129   0.001  0.00  0.00    +0.166 C 
ATOM      2  C   UNL     1      -0.016   1.341   0.009  0.00  0.00    +0.238 C 
ATOM      3  O   UNL     1      -1.078   1.927   0.018  0.00  0.00    -0.273 OA
ATOM      4  N   UNL     1       0.002  -0.004   0.002  0.00  0.00    -0.282 N 
ATOM      5  C   UNL     1       1.204  -0.706  -0.148  0.00  0.00    +0.055 A 
ATOM      6  C   UNL     1       1.248  -2.078   0.035  0.00  0.00    +0.028 A 
ATOM      7  C   UNL     1       2.445  -2.755  -0.112  0.00  0.00    -0.046 A 
ATOM      8  C   UNL     1       3.599  -2.070  -0.448  0.00  0.00    -0.046 A 
ATOM      9  C   UNL     1       3.561  -0.701  -0.645  0.00  0.00    +0.028 A 
ATOM     10  C   UNL     1       2.366  -0.019  -0.503  0.00  0.00    +0.049 A 
ATOM     11  N   UNL     1       2.295   1.364  -0.724  0.00  0.00    -0.331 N 
ATOM     12  C   UNL     1       4.899  -2.816  -0.598  0.00  0.00    +0.044 C 
ATOM     13  C   UNL     1       2.493  -4.247   0.093  0.00  0.00    +0.044 C 
ATOM     14  H   UNL     1      -0.829  -0.494   0.102  0.00  0.00    +0.155 HD
ATOM     15  H   UNL     1       2.904   1.804  -1.338  0.00  0.00    +0.147 HD
ENDROOT
BRANCH   1  16
ATOM     16  C   UNL     1       1.732   2.369   1.440  0.00  0.00    +0.127 C 
BRANCH  16  18
ATOM     17  N   UNL     1       3.533   3.607   2.598  0.00  0.00    -0.311 N 
ATOM     18  C   UNL     1       2.948   3.259   1.435  0.00  0.00    +0.216 C 
ATOM     19  O   UNL     1       3.400   3.662   0.384  0.00  0.00    -0.276 OA
ATOM     20  H   UNL     1       3.172   3.285   3.438  0.00  0.00    +0.149 HD
BRANCH  17  21
ATOM     21  C   UNL     1       4.715   4.472   2.593  0.00  0.00    +0.139 C 
BRANCH  21  26
ATOM     22  C   UNL     1       6.463   5.378   8.026  0.00  0.00    +0.044 C 
ATOM     23  C   UNL     1       6.008   5.142   6.609  0.00  0.00    -0.050 A 
ATOM     24  C   UNL     1       6.504   4.069   5.893  0.00  0.00    +0.003 A 
ATOM     25  C   UNL     1       6.086   3.852   4.594  0.00  0.00    +0.005 A 
ATOM     26  C   UNL     1       5.171   4.708   4.010  0.00  0.00    -0.030 A 
ATOM     27  C   UNL     1       4.678   5.785   4.724  0.00  0.00    +0.005 A 
ATOM     28  C   UNL     1       5.093   5.999   6.025  0.00  0.00    +0.003 A 
ENDBRANCH  21  26
ENDBRANCH  17  21
ENDBRANCH  16  18
ENDBRANCH   1  16
TORSDOF 4
