REMARK  Name = ZINC32974129
REMARK  5 active torsions:
REMARK  status: ('A' for Active; 'I' for Inactive)
REMARK    1  A    between atoms: C_4  and  C_7
REMARK    2  A    between atoms: C_15  and  C_16
REMARK    3  A    between atoms: C_19  and  S_21
REMARK    4  A    between atoms: S_21  and  C_22
REMARK    5  A    between atoms: C_22  and  C_23
REMARK                            x       y       z     vdW  Elec       q    Type
REMARK                         _______ _______ _______ _____ _____    ______ ____
ROOT
ATOM      1  C   UNL     1       0.854   3.160  -1.525  0.00  0.00    +0.056 C 
ATOM      2  C   UNL     1      -0.377   3.252  -2.072  0.00  0.00    +0.072 C 
ATOM      3  S   UNL     1      -1.102   1.681  -1.626  0.00  0.00    -0.062 S 
ATOM      4  C   UNL     1       0.295   1.010  -0.765  0.00  0.00    +0.163 C 
ATOM      5  N   UNL     1       0.451  -0.163  -0.204  0.00  0.00    -0.154 NA
ATOM      6  C   UNL     1       1.654  -0.493   0.309  0.00  0.00    +0.273 C 
ATOM      7  O   UNL     1       1.804  -1.523   0.949  0.00  0.00    -0.268 OA
ATOM      8  C   UNL     1       2.787   0.428   0.076  0.00  0.00    +0.082 C 
ATOM      9  C   UNL     1       4.105  -0.018   0.073  0.00  0.00    +0.062 C 
ATOM     10  C   UNL     1       2.443   1.854  -0.155  0.00  0.00    +0.136 C 
ATOM     11  N   UNL     1       3.204   2.848   0.231  0.00  0.00    -0.284 NA
ATOM     12  N   UNL     1       1.216   2.036  -0.831  0.00  0.00    -0.233 N 
ATOM     13  H   UNL     1       4.150   2.645   0.754  0.00  0.00    +0.188 HD
ENDROOT
BRANCH   1  17
ATOM     14  C   UNL     1       3.610   6.364  -1.952  0.00  0.00    +0.000 A 
ATOM     15  C   UNL     1       3.942   5.104  -2.417  0.00  0.00    +0.001 A 
ATOM     16  C   UNL     1       3.051   4.059  -2.281  0.00  0.00    +0.010 A 
ATOM     17  C   UNL     1       1.814   4.276  -1.674  0.00  0.00    -0.003 A 
ATOM     18  C   UNL     1       1.483   5.551  -1.213  0.00  0.00    +0.010 A 
ATOM     19  C   UNL     1       2.385   6.586  -1.349  0.00  0.00    +0.001 A 
ENDBRANCH   1  17
BRANCH   9  20
ATOM     20  C   UNL     1       4.382  -1.380  -0.072  0.00  0.00    +0.130 A 
ATOM     21  C   UNL     1       5.633  -1.977   0.049  0.00  0.00    +0.050 A 
ATOM     22  C   UNL     1       5.450  -3.338  -0.169  0.00  0.00    +0.057 A 
ATOM     23  C   UNL     1       4.108  -3.533  -0.423  0.00  0.00    +0.162 A 
ATOM     24  O   UNL     1       3.482  -2.347  -0.361  0.00  0.00    -0.449 OA
BRANCH  23  25
ATOM     25  S   UNL     1       3.342  -5.082  -0.772  0.00  0.00    -0.083 S 
BRANCH  25  26
ATOM     26  C   UNL     1       1.628  -4.543  -0.986  0.00  0.00    +0.112 C 
BRANCH  26  27
ATOM     27  C   UNL     1       0.762  -5.736  -1.302  0.00  0.00    -0.037 A 
ATOM     28  C   UNL     1       0.559  -6.114  -2.616  0.00  0.00    +0.006 A 
ATOM     29  C   UNL     1      -0.230  -7.212  -2.905  0.00  0.00    +0.020 A 
ATOM     30  C   UNL     1      -0.825  -7.925  -1.880  0.00  0.00    +0.041 A 
ATOM     31  C   UNL     1      -0.625  -7.543  -0.566  0.00  0.00    +0.020 A 
ATOM     32  C   UNL     1       0.168  -6.449  -0.277  0.00  0.00    +0.006 A 
ATOM     33 CL   UNL     1      -1.822  -9.299  -2.244  0.00  0.00    -0.084 Cl
ENDBRANCH  26  27
ENDBRANCH  25  26
ENDBRANCH  23  25
ENDBRANCH   9  20
TORSDOF 5
