REMARK  Name = ZINC13174486
REMARK  9 active torsions:
REMARK  status: ('A' for Active; 'I' for Inactive)
REMARK    1  A    between atoms: C_1  and  C_2
REMARK    2  A    between atoms: C_5  and  C_34
REMARK    3  A    between atoms: C_6  and  N_8
REMARK    4  A    between atoms: C_9  and  C_11
REMARK    5  A    between atoms: C_11  and  S_12
REMARK    6  A    between atoms: S_12  and  C_13
REMARK    7  A    between atoms: C_14  and  C_32
REMARK    8  A    between atoms: C_15  and  C_25
REMARK    9  A    between atoms: C_30  and  C_31
REMARK                            x       y       z     vdW  Elec       q    Type
REMARK                         _______ _______ _______ _____ _____    ______ ____
ROOT
ATOM      1  C   UNL     1       0.536  -2.752   7.656  0.00  0.00    +0.112 C 
ATOM      2  C   UNL     1       0.637  -2.169   8.907  0.00  0.00    +0.073 C 
ATOM      3  C   UNL     1       0.760  -3.101  10.100  0.00  0.00    +0.097 C 
ATOM      4  C   UNL     1       0.758  -4.584   9.783  0.00  0.00    +0.029 C 
ATOM      5  C   UNL     1       0.859  -5.482  10.775  0.00  0.00    +0.162 C 
ATOM      6  C   UNL     1       0.861  -6.962  10.495  0.00  0.00    +0.080 C 
ATOM      7  C   UNL     1       0.044  -7.238   9.230  0.00  0.00    +0.014 C 
ATOM      8  C   UNL     1       0.641  -6.434   8.071  0.00  0.00    +0.056 C 
ATOM      9  C   UNL     1       0.645  -4.968   8.434  0.00  0.00    +0.050 C 
ATOM     10  N   UNL     1       0.539  -4.075   7.482  0.00  0.00    -0.244 NA
ATOM     11  O   UNL     1       0.962  -5.051  12.049  0.00  0.00    -0.292 OA
ENDROOT
BRANCH   3  12
ATOM     12  C   UNL     1      -0.387  -2.821  11.036  0.00  0.00    -0.032 A 
ATOM     13  C   UNL     1      -1.685  -3.078  10.635  0.00  0.00    +0.005 A 
ATOM     14  C   UNL     1      -2.737  -2.822  11.494  0.00  0.00    +0.000 A 
ATOM     15  C   UNL     1      -2.491  -2.309  12.755  0.00  0.00    +0.000 A 
ATOM     16  C   UNL     1      -1.194  -2.054  13.156  0.00  0.00    +0.003 A 
ATOM     17  C   UNL     1      -0.141  -2.314  12.298  0.00  0.00    -0.046 A 
ATOM     18  C   UNL     1       1.274  -2.040  12.737  0.00  0.00    +0.044 C 
ENDBRANCH   3  12
BRANCH   2  19
ATOM     19  C   UNL     1       0.626  -0.746   9.071  0.00  0.00    +0.098 C 
ATOM     20  N   UNL     1       0.618   0.382   9.201  0.00  0.00    -0.191 NA
ENDBRANCH   2  19
BRANCH   1  21
ATOM     21  S   UNL     1       0.390  -1.709   6.242  0.00  0.00    -0.096 S 
BRANCH  21  22
ATOM     22  C   UNL     1       0.279  -2.869   4.852  0.00  0.00    +0.172 C 
BRANCH  22  24
ATOM     23  N   UNL     1       0.050  -2.755   2.391  0.00  0.00    -0.285 N 
ATOM     24  C   UNL     1       0.148  -2.097   3.564  0.00  0.00    +0.227 C 
ATOM     25  O   UNL     1       0.133  -0.884   3.582  0.00  0.00    -0.275 OA
ATOM     26  H   UNL     1      -0.019  -3.722   2.382  0.00  0.00    +0.155 HD
BRANCH  23  32
ATOM     27  C   UNL     1       1.266   1.280  -0.141  0.00  0.00    +0.044 C 
ATOM     28  C   UNL     1       0.628  -0.083  -0.068  0.00  0.00    -0.049 A 
ATOM     29  C   UNL     1       0.039  -0.631  -1.193  0.00  0.00    +0.004 A 
ATOM     30  C   UNL     1      -0.546  -1.882  -1.131  0.00  0.00    +0.005 A 
ATOM     31  C   UNL     1      -0.544  -2.589   0.056  0.00  0.00    -0.029 A 
ATOM     32  C   UNL     1       0.046  -2.041   1.187  0.00  0.00    +0.037 A 
ATOM     33  C   UNL     1       0.638  -0.787   1.120  0.00  0.00    +0.027 A 
ATOM     34  C   UNL     1      -1.183  -3.952   0.124  0.00  0.00    +0.045 C 
ENDBRANCH  23  32
ENDBRANCH  22  24
ENDBRANCH  21  22
ENDBRANCH   1  21
TORSDOF 6
