REMARK  Name = ZINC35564488
REMARK  6 active torsions:
REMARK  status: ('A' for Active; 'I' for Inactive)
REMARK    1  A    between atoms: C_5  and  N_7
REMARK    2  A    between atoms: N_10  and  C_13
REMARK    3  A    between atoms: C_13  and  C_14
REMARK    4  A    between atoms: C_28  and  C_30
REMARK    5  A    between atoms: C_30  and  C_31
REMARK    6  A    between atoms: C_31  and  C_32
REMARK                            x       y       z     vdW  Elec       q    Type
REMARK                         _______ _______ _______ _____ _____    ______ ____
ROOT
ATOM      1  C   UNL     1       3.126  -6.833  -1.135  0.00  0.00    +0.034 A 
ATOM      2  C   UNL     1       3.942  -6.742  -2.225  0.00  0.00    +0.091 A 
ATOM      3  C   UNL     1       3.587  -7.431  -3.398  0.00  0.00    +0.253 A 
ATOM      4  O   UNL     1       4.294  -7.373  -4.391  0.00  0.00    -0.268 OA
ATOM      5  N   UNL     1       2.450  -8.159  -3.405  0.00  0.00    -0.295 N 
ATOM      6  H   UNL     1       2.186  -8.643  -4.203  0.00  0.00    +0.172 HD
ATOM      7  C   UNL     1       1.676  -8.213  -2.288  0.00  0.00    +0.198 A 
ATOM      8  N   UNL     1       2.018  -7.568  -1.190  0.00  0.00    -0.223 NA
ATOM      9  N   UNL     1       0.524  -8.953  -2.302  0.00  0.00    -0.298 N 
ATOM     10  C   UNL     1       0.184  -9.784  -3.465  0.00  0.00    +0.127 C 
ATOM     11  C   UNL     1      -0.040 -11.224  -2.989  0.00  0.00    +0.126 C 
ATOM     12  N   UNL     1      -0.958 -11.203  -1.841  0.00  0.00    -0.298 N 
ATOM     13  C   UNL     1      -0.617 -10.371  -0.678  0.00  0.00    +0.126 C 
ATOM     14  C   UNL     1      -0.391  -8.935  -1.152  0.00  0.00    +0.127 C 
ATOM     15  C   UNL     1      -2.092 -11.931  -1.855  0.00  0.00    +0.216 C 
ATOM     16  O   UNL     1      -2.362 -12.613  -2.821  0.00  0.00    -0.276 OA
ENDROOT
BRANCH   1  17
ATOM     17  C   UNL     1       3.484  -6.104   0.135  0.00  0.00    -0.022 C 
BRANCH  17  21
ATOM     18  N   UNL     1       1.500  -2.508   0.933  0.00  0.00    -0.331 N 
ATOM     19  C   UNL     1       1.639  -3.456   2.049  0.00  0.00    +0.086 C 
ATOM     20  C   UNL     1       2.756  -4.448   1.708  0.00  0.00    -0.059 C 
ATOM     21  N   UNL     1       2.472  -5.075   0.411  0.00  0.00    +0.385 N 
ATOM     22  C   UNL     1       2.504  -4.063  -0.652  0.00  0.00    -0.059 C 
ATOM     23  C   UNL     1       1.369  -3.052  -0.427  0.00  0.00    +0.086 C 
ATOM     24  H   UNL     1       1.559  -5.503   0.438  0.00  0.00    -0.081 HD
BRANCH  18  29
ATOM     25  C   UNL     1       0.277   0.890   1.623  0.00  0.00    +0.002 A 
ATOM     26  C   UNL     1       1.461   1.604   1.608  0.00  0.00    +0.003 A 
ATOM     27  C   UNL     1       2.659   0.957   1.369  0.00  0.00    +0.040 A 
ATOM     28  C   UNL     1       2.677  -0.408   1.145  0.00  0.00    +0.144 A 
ATOM     29  C   UNL     1       1.487  -1.128   1.160  0.00  0.00    +0.065 A 
ATOM     30  C   UNL     1       0.286  -0.473   1.400  0.00  0.00    +0.026 A 
ATOM     31  F   UNL     1       3.848  -1.040   0.911  0.00  0.00    -0.204 F 
ENDBRANCH  18  29
ENDBRANCH  17  21
ENDBRANCH   1  17
BRANCH  15  32
ATOM     32  C   UNL     1      -3.023 -11.899  -0.671  0.00  0.00    +0.096 C 
BRANCH  32  33
ATOM     33  C   UNL     1      -4.224 -12.806  -0.942  0.00  0.00    +0.013 C 
BRANCH  33  34
ATOM     34  C   UNL     1      -5.170 -12.774   0.260  0.00  0.00    -0.011 C 
ATOM     35  C   UNL     1      -4.502 -13.449   1.476  0.00  0.00    +0.003 C 
ATOM     36  C   UNL     1      -5.662 -14.194   2.181  0.00  0.00    +0.000 C 
ATOM     37  C   UNL     1      -6.504 -14.720   0.992  0.00  0.00    +0.000 C 
ATOM     38  C   UNL     1      -6.442 -13.582  -0.048  0.00  0.00    +0.003 C 
ENDBRANCH  33  34
ENDBRANCH  32  33
ENDBRANCH  15  32
TORSDOF 6
