REMARK  Name = ZINC20566925
REMARK  4 active torsions:
REMARK  status: ('A' for Active; 'I' for Inactive)
REMARK    1  A    between atoms: C_5  and  C_7
REMARK    2  A    between atoms: C_7  and  C_9
REMARK    3  A    between atoms: C_11  and  C_30
REMARK    4  A    between atoms: C_34  and  N_36
REMARK                            x       y       z     vdW  Elec       q    Type
REMARK                         _______ _______ _______ _____ _____    ______ ____
ROOT
ATOM      1  C   UNL     1       4.506  -0.362  -1.319  0.00  0.00    +0.104 C 
ATOM      2  C   UNL     1       3.628  -0.650  -0.080  0.00  0.00    +0.050 C 
ATOM      3  C   UNL     1       4.488  -0.205   1.115  0.00  0.00    +0.077 C 
ATOM      4  C   UNL     1       3.872   1.069   1.738  0.00  0.00    +0.090 C 
ATOM      5  S   UNL     1       5.414   1.977   2.201  0.00  0.00    -0.144 S 
ATOM      6  C   UNL     1       6.472   1.294   0.850  0.00  0.00    +0.155 C 
ATOM      7  N   UNL     1       5.866  -0.046   0.651  0.00  0.00    -0.271 NA
ATOM      8  C   UNL     1       5.936  -0.421  -0.766  0.00  0.00    +0.138 C 
ATOM      9  C   UNL     1       6.851   0.492  -1.535  0.00  0.00    +0.006 A 
ATOM     10  C   UNL     1       6.861   1.851  -1.758  0.00  0.00    +0.046 A 
ATOM     11  C   UNL     1       7.861   2.418  -2.532  0.00  0.00    +0.124 A 
ATOM     12  C   UNL     1       8.848   1.615  -3.077  0.00  0.00    +0.040 A 
ATOM     13  C   UNL     1       8.841   0.254  -2.853  0.00  0.00    +0.026 A 
ATOM     14  C   UNL     1       7.840  -0.324  -2.076  0.00  0.00    +0.039 A 
ATOM     15  N   UNL     1       7.621  -1.655  -1.710  0.00  0.00    -0.283 N 
ATOM     16  C   UNL     1       6.525  -1.796  -0.942  0.00  0.00    +0.243 C 
ATOM     17  O   UNL     1       6.094  -2.832  -0.480  0.00  0.00    -0.273 OA
ATOM     18  F   UNL     1       7.872   3.751  -2.753  0.00  0.00    -0.205 F 
ATOM     19  H   UNL     1       8.312  -2.439  -2.052  0.00  0.00    +0.155 HD
ENDROOT
BRANCH   2  20
ATOM     20  C   UNL     1       2.354   0.154  -0.139  0.00  0.00    -0.040 A 
ATOM     21  C   UNL     1       2.339   1.378  -0.781  0.00  0.00    +0.004 A 
ATOM     22  C   UNL     1       1.172   2.116  -0.835  0.00  0.00    +0.002 A 
ATOM     23  C   UNL     1       0.018   1.628  -0.248  0.00  0.00    +0.033 A 
ATOM     24  C   UNL     1       0.033   0.404   0.392  0.00  0.00    +0.126 A 
ATOM     25  C   UNL     1       1.202  -0.333   0.447  0.00  0.00    +0.036 A 
BRANCH  24  26
ATOM     26  N   UNL     1      -1.201  -0.118   1.020  0.00  0.00    +0.056 N 
ATOM     27  O   UNL     1      -2.231   0.532   0.972  0.00  0.00    -0.126 OA
ATOM     28  O   UNL     1      -1.188  -1.197   1.585  0.00  0.00    -0.126 OA
ENDBRANCH  24  26
ENDBRANCH   2  20
BRANCH   1  29
ATOM     29  C   UNL     1       4.300  -1.420  -2.372  0.00  0.00    +0.187 C 
ATOM     30  O   UNL     1       3.908  -2.522  -2.056  0.00  0.00    -0.290 OA
BRANCH  29  35
ATOM     31  C   UNL     1       4.647  -1.794  -6.086  0.00  0.00    +0.004 A 
ATOM     32  C   UNL     1       5.094  -0.518  -6.397  0.00  0.00    +0.020 A 
ATOM     33  C   UNL     1       5.263   0.410  -5.381  0.00  0.00    +0.111 A 
ATOM     34  N   UNL     1       5.001   0.098  -4.131  0.00  0.00    -0.252 NA
ATOM     35  C   UNL     1       4.576  -1.114  -3.789  0.00  0.00    +0.106 A 
ATOM     36  C   UNL     1       4.384  -2.097  -4.760  0.00  0.00    +0.031 A 
ENDBRANCH  29  35
ENDBRANCH   1  29
TORSDOF 4
