REMARK  Name = ZINC39982604
REMARK  7 active torsions:
REMARK  status: ('A' for Active; 'I' for Inactive)
REMARK    1  A    between atoms: C_1  and  C_2
REMARK    2  A    between atoms: C_2  and  C_4
REMARK    3  A    between atoms: C_2  and  S_18
REMARK    4  A    between atoms: N_9  and  C_12
REMARK    5  A    between atoms: S_18  and  C_19
REMARK    6  A    between atoms: C_23  and  C_28
REMARK    7  A    between atoms: N_24  and  C_25
REMARK                            x       y       z     vdW  Elec       q    Type
REMARK                         _______ _______ _______ _____ _____    ______ ____
ROOT
ATOM      1  C   UNL     1      -0.161   0.173   3.183  0.00  0.00    +0.238 C 
ATOM      2  N   UNL     1      -0.506   1.568   2.860  0.00  0.00    -0.237 N 
ATOM      3  N   UNL     1      -1.845   1.562   2.452  0.00  0.00    -0.169 NA
ATOM      4  C   UNL     1      -2.346   0.356   2.486  0.00  0.00    +0.147 C 
ATOM      5  N   UNL     1      -1.399  -0.579   2.923  0.00  0.00    -0.282 N 
ATOM      6  H   UNL     1       0.079   2.339   2.920  0.00  0.00    +0.171 HD
ENDROOT
BRANCH   4   7
ATOM      7  C   UNL     1      -3.667   0.037   2.133  0.00  0.00    +0.022 C 
ATOM      8  C   UNL     1      -4.624   0.893   1.587  0.00  0.00    +0.006 A 
ATOM      9  C   UNL     1      -4.589   2.259   1.232  0.00  0.00    +0.010 A 
ATOM     10  C   UNL     1      -5.696   2.846   0.707  0.00  0.00    +0.001 A 
ATOM     11  C   UNL     1      -6.878   2.131   0.506  0.00  0.00    +0.002 A 
ATOM     12  C   UNL     1      -6.981   0.817   0.824  0.00  0.00    +0.026 A 
ATOM     13  C   UNL     1      -5.867   0.134   1.377  0.00  0.00    +0.043 A 
ATOM     14  N   UNL     1      -5.714  -1.117   1.762  0.00  0.00    -0.380 N 
ATOM     15  C   UNL     1      -4.348  -1.308   2.259  0.00  0.00    +0.152 C 
ATOM     16  H   UNL     1      -6.397  -1.805   1.719  0.00  0.00    +0.160 HD
ENDBRANCH   4   7
BRANCH   5  17
ATOM     17  C   UNL     1      -1.599  -2.021   3.088  0.00  0.00    +0.078 C 
ATOM     18  C   UNL     1      -0.429  -2.838   3.640  0.00  0.00    +0.024 C 
ATOM     19  C   UNL     1      -0.814  -2.953   2.163  0.00  0.00    +0.024 C 
ENDBRANCH   5  17
BRANCH   1  20
ATOM     20  S   UNL     1       1.176  -0.414   2.107  0.00  0.00    -0.106 S 
BRANCH  20  22
ATOM     21  C   UNL     1       0.341   1.325   0.168  0.00  0.00    +0.029 C 
ATOM     22  C   UNL     1       0.529  -0.170   0.429  0.00  0.00    +0.133 C 
BRANCH  22  23
ATOM     23  C   UNL     1       1.502  -0.737  -0.572  0.00  0.00    +0.228 C 
ATOM     24  O   UNL     1       2.659  -0.919  -0.257  0.00  0.00    -0.274 OA
ATOM     25  N   UNL     1       1.087  -1.041  -1.817  0.00  0.00    -0.298 N 
ATOM     26  C   UNL     1      -0.310  -0.820  -2.215  0.00  0.00    +0.126 C 
ATOM     27  C   UNL     1      -0.330   0.066  -3.467  0.00  0.00    +0.124 C 
ATOM     28  N   UNL     1       0.607  -0.492  -4.452  0.00  0.00    -0.327 N 
ATOM     29  C   UNL     1       2.005  -0.713  -4.054  0.00  0.00    +0.124 C 
ATOM     30  C   UNL     1       2.025  -1.594  -2.804  0.00  0.00    +0.126 C 
BRANCH  28  31
ATOM     31  C   UNL     1       0.177  -0.807  -5.743  0.00  0.00    +0.030 A 
ATOM     32  C   UNL     1      -1.169  -0.707  -6.072  0.00  0.00    +0.023 A 
ATOM     33  C   UNL     1      -1.591  -1.019  -7.349  0.00  0.00    +0.002 A 
ATOM     34  C   UNL     1      -0.675  -1.431  -8.300  0.00  0.00    +0.000 A 
ATOM     35  C   UNL     1       0.665  -1.532  -7.976  0.00  0.00    +0.002 A 
ATOM     36  C   UNL     1       1.095  -1.216  -6.702  0.00  0.00    +0.023 A 
ENDBRANCH  28  31
ENDBRANCH  22  23
ENDBRANCH  20  22
ENDBRANCH   1  20
TORSDOF 6
