REMARK  Name = ZINC63205565
REMARK  12 active torsions:
REMARK  status: ('A' for Active; 'I' for Inactive)
REMARK    1  A    between atoms: C_1  and  O_2
REMARK    2  A    between atoms: O_2  and  C_3
REMARK    3  A    between atoms: C_6  and  C_11
REMARK    4  A    between atoms: C_8  and  O_9
REMARK    5  A    between atoms: O_9  and  C_10
REMARK    6  A    between atoms: C_11  and  C_13
REMARK    7  A    between atoms: C_11  and  N_22
REMARK    8  A    between atoms: N_15  and  C_16
REMARK    9  A    between atoms: N_22  and  C_23
REMARK   10  A    between atoms: C_23  and  C_24
REMARK   11  A    between atoms: C_29  and  C_31
REMARK   12  A    between atoms: C_31  and  C_32
REMARK                            x       y       z     vdW  Elec       q    Type
REMARK                         _______ _______ _______ _____ _____    ______ ____
ROOT
ATOM      1  C   UNL     1       2.508  -2.351   4.179  0.00  0.00    +0.193 C 
ENDROOT
BRANCH   1   5
ATOM      2  C   UNL     1      -0.227  -0.442   1.501  0.00  0.00    +0.162 A 
ATOM      3  C   UNL     1       0.324   0.268   2.556  0.00  0.00    +0.050 A 
ATOM      4  C   UNL     1       1.207  -0.352   3.420  0.00  0.00    +0.010 A 
ATOM      5  C   UNL     1       1.544  -1.680   3.235  0.00  0.00    -0.015 A 
ATOM      6  C   UNL     1       0.999  -2.394   2.184  0.00  0.00    +0.055 A 
ATOM      7  C   UNL     1       0.108  -1.781   1.318  0.00  0.00    +0.162 A 
BRANCH   2   9
ATOM      8  C   UNL     1      -1.393   1.541   0.900  0.00  0.00    +0.277 C 
ATOM      9  O   UNL     1      -1.096   0.166   0.651  0.00  0.00    -0.491 OA
ENDBRANCH   2   9
BRANCH   7  10
ATOM     10  O   UNL     1      -0.434  -2.483   0.287  0.00  0.00    -0.491 OA
ATOM     11  C   UNL     1      -0.045  -3.852   0.160  0.00  0.00    +0.277 C 
ENDBRANCH   7  10
ENDBRANCH   1   5
BRANCH   1  12
ATOM     12  C   UNL     1       3.921  -2.079   3.732  0.00  0.00    +0.238 C 
ATOM     13  O   UNL     1       4.711  -1.566   4.496  0.00  0.00    -0.273 OA
ATOM     14  N   UNL     1       4.307  -2.405   2.482  0.00  0.00    -0.311 N 
ATOM     15  H   UNL     1       3.675  -2.815   1.871  0.00  0.00    +0.149 HD
BRANCH  14  16
ATOM     16  C   UNL     1       5.680  -2.141   2.048  0.00  0.00    +0.073 C 
ATOM     17  C   UNL     1       5.788  -0.699   1.547  0.00  0.00    +0.022 C 
ATOM     18  C   UNL     1       7.223  -0.423   1.092  0.00  0.00    +0.002 C 
ATOM     19  C   UNL     1       7.594  -1.385  -0.038  0.00  0.00    +0.000 C 
ATOM     20  C   UNL     1       7.486  -2.826   0.463  0.00  0.00    +0.002 C 
ATOM     21  C   UNL     1       6.052  -3.103   0.917  0.00  0.00    +0.022 C 
ENDBRANCH  14  16
ENDBRANCH   1  12
BRANCH   1  22
ATOM     22  N   UNL     1       2.313  -1.822   5.532  0.00  0.00    -0.278 N 
ATOM     23  C   UNL     1       1.135  -2.001   6.162  0.00  0.00    +0.221 C 
ATOM     24  O   UNL     1       0.236  -2.598   5.610  0.00  0.00    -0.275 OA
BRANCH  22  25
ATOM     25  C   UNL     1       3.399  -1.100   6.199  0.00  0.00    +0.183 C 
BRANCH  25  26
ATOM     26  C   UNL     1       3.545   0.268   5.583  0.00  0.00    +0.122 A 
ATOM     27  C   UNL     1       2.986   1.401   6.044  0.00  0.00    +0.046 A 
ATOM     28  C   UNL     1       3.383   2.439   5.169  0.00  0.00    +0.041 A 
ATOM     29  C   UNL     1       4.161   1.877   4.226  0.00  0.00    +0.195 A 
ATOM     30  O   UNL     1       4.261   0.563   4.486  0.00  0.00    -0.466 OA
ENDBRANCH  25  26
ENDBRANCH  22  25
BRANCH  23  31
ATOM     31  C   UNL     1       0.935  -1.457   7.553  0.00  0.00    +0.129 C 
BRANCH  31  32
ATOM     32  C   UNL     1      -0.456  -1.789   8.027  0.00  0.00    -0.033 C 
ATOM     33  C   UNL     1      -0.827  -2.847   8.783  0.00  0.00    -0.001 A 
ATOM     34  C   UNL     1      -0.075  -3.964   9.367  0.00  0.00    +0.010 A 
ATOM     35  C   UNL     1      -0.738  -4.894  10.092  0.00  0.00    +0.001 A 
ATOM     36  C   UNL     1      -2.122  -4.817  10.299  0.00  0.00    +0.002 A 
ATOM     37  C   UNL     1      -2.881  -3.821   9.795  0.00  0.00    +0.026 A 
ATOM     38  C   UNL     1      -2.288  -2.789   9.017  0.00  0.00    +0.043 A 
ATOM     39  N   UNL     1      -2.800  -1.735   8.429  0.00  0.00    -0.380 N 
ATOM     40  C   UNL     1      -1.720  -1.002   7.759  0.00  0.00    +0.145 C 
ATOM     41  H   UNL     1      -3.736  -1.480   8.438  0.00  0.00    +0.160 HD
ENDBRANCH  31  32
ENDBRANCH  23  31
ENDBRANCH   1  22
TORSDOF 10
