REMARK  Name = ZINC39769054
REMARK  8 active torsions:
REMARK  status: ('A' for Active; 'I' for Inactive)
REMARK    1  A    between atoms: C_1  and  C_2
REMARK    2  A    between atoms: C_2  and  C_4
REMARK    3  A    between atoms: C_7  and  O_12
REMARK    4  A    between atoms: C_8  and  O_10
REMARK    5  A    between atoms: O_10  and  C_11
REMARK    6  A    between atoms: O_12  and  C_13
REMARK    7  A    between atoms: C_13  and  C_14
REMARK    8  A    between atoms: C_19  and  C_22
REMARK                            x       y       z     vdW  Elec       q    Type
REMARK                         _______ _______ _______ _____ _____    ______ ____
ROOT
ATOM      1  C   UNL     1      -7.292  -3.217   0.046  0.00  0.00    +0.253 C 
ATOM      2  O   UNL     1      -7.263  -4.419  -0.116  0.00  0.00    -0.272 OA
ATOM      3  N   UNL     1      -8.473  -2.568   0.063  0.00  0.00    -0.295 N 
ATOM      4  C   UNL     1      -9.745  -3.291  -0.104  0.00  0.00    +0.113 C 
ATOM      5  C   UNL     1     -10.561  -3.117   1.179  0.00  0.00    +0.054 C 
ATOM      6  C   UNL     1     -10.543  -1.683   1.621  0.00  0.00    -0.043 C 
ATOM      7  C   UNL     1      -9.646  -0.791   1.219  0.00  0.00    -0.004 C 
ATOM      8  C   UNL     1      -8.541  -1.113   0.257  0.00  0.00    +0.135 C 
ENDROOT
BRANCH   6   9
ATOM      9  C   UNL     1     -11.542  -1.256   2.519  0.00  0.00    -0.016 C 
ATOM     10  C   UNL     1     -12.497  -2.045   3.148  0.00  0.00    +0.003 A 
ATOM     11  C   UNL     1     -12.770  -3.432   3.106  0.00  0.00    +0.010 A 
ATOM     12  C   UNL     1     -13.790  -3.939   3.842  0.00  0.00    +0.001 A 
ATOM     13  C   UNL     1     -14.588  -3.122   4.650  0.00  0.00    +0.002 A 
ATOM     14  C   UNL     1     -14.385  -1.787   4.740  0.00  0.00    +0.026 A 
ATOM     15  C   UNL     1     -13.336  -1.180   3.998  0.00  0.00    +0.043 A 
ATOM     16  N   UNL     1     -12.940   0.071   3.914  0.00  0.00    -0.380 N 
ATOM     17  C   UNL     1     -11.794   0.154   3.003  0.00  0.00    +0.149 C 
ATOM     18  H   UNL     1     -13.340   0.820   4.384  0.00  0.00    +0.160 HD
ENDBRANCH   6   9
BRANCH   1  19
ATOM     19  C   UNL     1      -6.007  -2.450   0.227  0.00  0.00    +0.325 C 
BRANCH  19  20
ATOM     20  O   UNL     1      -4.901  -3.353   0.170  0.00  0.00    -0.479 OA
BRANCH  20  24
ATOM     21  C   UNL     1      -1.129  -1.726   0.617  0.00  0.00    +0.021 A 
ATOM     22  C   UNL     1      -2.261  -0.904   0.661  0.00  0.00    +0.015 A 
ATOM     23  C   UNL     1      -3.515  -1.451   0.511  0.00  0.00    +0.050 A 
ATOM     24  C   UNL     1      -3.662  -2.819   0.316  0.00  0.00    +0.163 A 
ATOM     25  C   UNL     1      -2.539  -3.645   0.272  0.00  0.00    +0.162 A 
ATOM     26  C   UNL     1      -1.277  -3.104   0.415  0.00  0.00    +0.060 A 
BRANCH  21  28
ATOM     27  C   UNL     1       0.367   0.338   0.993  0.00  0.00    +0.091 C 
ATOM     28  C   UNL     1       0.210  -1.145   0.776  0.00  0.00    +0.160 C 
ATOM     29  O   UNL     1       1.190  -1.859   0.733  0.00  0.00    -0.292 OA
ENDBRANCH  21  28
BRANCH  25  30
ATOM     30  O   UNL     1      -2.687  -4.984   0.082  0.00  0.00    -0.491 OA
ATOM     31  C   UNL     1      -1.494  -5.770   0.047  0.00  0.00    +0.277 C 
ENDBRANCH  25  30
ENDBRANCH  20  24
ENDBRANCH  19  20
ENDBRANCH   1  19
TORSDOF 6
