REMARK  Name = ZINC08598573
REMARK  8 active torsions:
REMARK  status: ('A' for Active; 'I' for Inactive)
REMARK    1  A    between atoms: C_1  and  C_2
REMARK    2  A    between atoms: C_7  and  N_8
REMARK    3  A    between atoms: C_9  and  C_11
REMARK    4  A    between atoms: N_14  and  C_17
REMARK    5  A    between atoms: C_18  and  N_29
REMARK    6  A    between atoms: C_19  and  C_28
REMARK    7  A    between atoms: N_21  and  C_22
REMARK    8  A    between atoms: C_30  and  C_32
REMARK                            x       y       z     vdW  Elec       q    Type
REMARK                         _______ _______ _______ _____ _____    ______ ____
ROOT
ATOM      1  C   UNL     1      -0.172   1.343   4.737  0.00  0.00    +0.078 C 
ATOM      2  C   UNL     1       1.275   1.753   5.022  0.00  0.00    +0.032 C 
ATOM      3  C   UNL     1       1.360   2.378   6.418  0.00  0.00    +0.107 C 
ATOM      4  N   UNL     1       0.797   1.434   7.393  0.00  0.00    -0.314 N 
ATOM      5  C   UNL     1      -0.555   0.906   7.167  0.00  0.00    +0.107 C 
ATOM      6  C   UNL     1      -0.619   0.298   5.762  0.00  0.00    +0.032 C 
ENDROOT
BRANCH   4   7
ATOM      7  C   UNL     1       1.533   1.046   8.512  0.00  0.00    +0.147 A 
ATOM      8  C   UNL     1       2.476   0.059   8.558  0.00  0.00    +0.097 A 
ATOM      9  C   UNL     1       2.969  -0.001   9.868  0.00  0.00    +0.083 A 
ATOM     10  N   UNL     1       2.354   0.906  10.585  0.00  0.00    -0.168 NA
ATOM     11  N   UNL     1       1.448   1.586   9.761  0.00  0.00    -0.216 N 
ATOM     12  C   UNL     1       4.027  -0.951  10.367  0.00  0.00    +0.069 C 
BRANCH  11  13
ATOM     13  C   UNL     1       0.603   2.633  10.152  0.00  0.00    +0.067 A 
ATOM     14  C   UNL     1       0.396   3.713   9.304  0.00  0.00    +0.028 A 
ATOM     15  C   UNL     1      -0.438   4.743   9.692  0.00  0.00    +0.002 A 
ATOM     16  C   UNL     1      -1.067   4.700  10.923  0.00  0.00    +0.000 A 
ATOM     17  C   UNL     1      -0.863   3.626  11.769  0.00  0.00    +0.002 A 
ATOM     18  C   UNL     1      -0.034   2.590  11.385  0.00  0.00    +0.028 A 
ENDBRANCH  11  13
BRANCH   8  19
ATOM     19  N   UNL     1       2.881  -0.754   7.478  0.00  0.00    -0.282 N 
ATOM     20  C   UNL     1       4.192  -0.957   7.242  0.00  0.00    +0.214 C 
ATOM     21  O   UNL     1       5.022  -0.506   8.004  0.00  0.00    -0.276 OA
ATOM     22  C   UNL     1       4.627  -1.744   6.033  0.00  0.00    +0.109 C 
ATOM     23  H   UNL     1       2.216  -1.167   6.906  0.00  0.00    +0.155 HD
ENDBRANCH   8  19
ENDBRANCH   4   7
BRANCH   1  25
ATOM     24  N   UNL     1       0.080   1.503   2.282  0.00  0.00    -0.285 N 
ATOM     25  C   UNL     1      -0.265   0.759   3.351  0.00  0.00    +0.220 C 
ATOM     26  O   UNL     1      -0.651  -0.380   3.198  0.00  0.00    -0.275 OA
ATOM     27  H   UNL     1       0.450   2.391   2.408  0.00  0.00    +0.155 HD
BRANCH  24  34
ATOM     28  C   UNL     1      -0.575   3.328   0.199  0.00  0.00    +0.046 C 
ATOM     29  C   UNL     1      -0.417   1.851  -0.056  0.00  0.00    -0.028 A 
ATOM     30  C   UNL     1      -0.585   1.348  -1.331  0.00  0.00    +0.025 A 
ATOM     31  C   UNL     1      -0.441  -0.008  -1.566  0.00  0.00    +0.041 A 
ATOM     32  C   UNL     1      -0.127  -0.864  -0.525  0.00  0.00    +0.022 A 
ATOM     33  C   UNL     1       0.043  -0.366   0.752  0.00  0.00    +0.025 A 
ATOM     34  C   UNL     1      -0.097   0.995   0.990  0.00  0.00    +0.036 A 
ATOM     35 CL   UNL     1      -0.654  -0.637  -3.170  0.00  0.00    -0.084 Cl
ENDBRANCH  24  34
ENDBRANCH   1  25
TORSDOF 5
