REMARK  Name = ZINC33568793
REMARK  8 active torsions:
REMARK  status: ('A' for Active; 'I' for Inactive)
REMARK    1  A    between atoms: C_4  and  C_7
REMARK    2  A    between atoms: C_10  and  C_32
REMARK    3  A    between atoms: N_12  and  C_13
REMARK    4  A    between atoms: C_16  and  C_19
REMARK    5  A    between atoms: C_20  and  C_21
REMARK    6  A    between atoms: C_20  and  C_23
REMARK    7  A    between atoms: C_24  and  C_30
REMARK    8  A    between atoms: C_25  and  N_29
REMARK                            x       y       z     vdW  Elec       q    Type
REMARK                         _______ _______ _______ _____ _____    ______ ____
ROOT
ATOM      1  C   UNL     1       3.484  -1.916   2.167  0.00  0.00    +0.052 A 
ATOM      2  C   UNL     1       3.386  -0.746   2.917  0.00  0.00    +0.025 A 
ATOM      3  C   UNL     1       3.092  -0.809   4.249  0.00  0.00    +0.010 A 
ATOM      4  C   UNL     1       2.889  -2.053   4.862  0.00  0.00    -0.024 A 
ATOM      5  C   UNL     1       2.988  -3.227   4.103  0.00  0.00    +0.010 A 
ATOM      6  C   UNL     1       3.277  -3.155   2.770  0.00  0.00    +0.025 A 
ENDROOT
BRANCH   1  11
ATOM      7  C   UNL     1       4.024  -0.612   0.049  0.00  0.00    +0.134 C 
ATOM      8  C   UNL     1       4.307  -1.113  -1.381  0.00  0.00    +0.087 C 
ATOM      9  C   UNL     1       4.191  -2.616  -1.270  0.00  0.00    +0.069 C 
ATOM     10  N   UNL     1       3.905  -2.937  -0.054  0.00  0.00    -0.183 NA
ATOM     11  N   UNL     1       3.783  -1.847   0.811  0.00  0.00    -0.216 N 
BRANCH   7  15
ATOM     12  C   UNL     1       0.560   1.888   0.104  0.00  0.00    +0.000 A 
ATOM     13  C   UNL     1       1.821   2.453   0.149  0.00  0.00    +0.000 A 
ATOM     14  C   UNL     1       2.942   1.644   0.132  0.00  0.00    +0.005 A 
ATOM     15  C   UNL     1       2.801   0.270   0.069  0.00  0.00    -0.025 A 
ATOM     16  C   UNL     1       1.541  -0.295   0.025  0.00  0.00    +0.005 A 
ATOM     17  C   UNL     1       0.420   0.514   0.041  0.00  0.00    +0.000 A 
ENDBRANCH   7  15
BRANCH   9  18
ATOM     18  C   UNL     1       4.376  -3.568  -2.380  0.00  0.00    -0.002 A 
ATOM     19  C   UNL     1       4.691  -3.103  -3.659  0.00  0.00    +0.010 A 
ATOM     20  C   UNL     1       4.863  -3.999  -4.693  0.00  0.00    +0.001 A 
ATOM     21  C   UNL     1       4.724  -5.357  -4.466  0.00  0.00    +0.000 A 
ATOM     22  C   UNL     1       4.412  -5.826  -3.201  0.00  0.00    +0.001 A 
ATOM     23  C   UNL     1       4.244  -4.941  -2.157  0.00  0.00    +0.010 A 
ENDBRANCH   9  18
ENDBRANCH   1  11
BRANCH   4  24
ATOM     24  C   UNL     1       2.574  -2.126   6.292  0.00  0.00    +0.029 C 
ATOM     25  C   UNL     1       1.881  -1.115   6.889  0.00  0.00    +0.081 C 
BRANCH  25  26
ATOM     26  C   UNL     1       1.698  -1.111   8.358  0.00  0.00    +0.122 A 
ATOM     27  C   UNL     1       0.976  -0.103   9.143  0.00  0.00    +0.119 A 
ATOM     28  C   UNL     1       1.065  -0.508  10.471  0.00  0.00    +0.130 A 
ATOM     29  N   UNL     1       1.773  -1.655  10.501  0.00  0.00    -0.263 N 
ATOM     30  H   UNL     1       1.987  -2.159  11.302  0.00  0.00    +0.190 HD
ATOM     31  N   UNL     1       2.147  -2.011   9.203  0.00  0.00    -0.170 NA
BRANCH  28  32
ATOM     32  N   UNL     1       0.526   0.147  11.562  0.00  0.00    -0.342 N 
ATOM     33  H   UNL     1       0.030   0.971  11.437  0.00  0.00    +0.144 HD
ATOM     34  H   UNL     1       0.643  -0.218  12.453  0.00  0.00    +0.144 HD
ENDBRANCH  28  32
BRANCH  27  35
ATOM     35  C   UNL     1       0.314   1.065   8.643  0.00  0.00    +0.105 C 
ATOM     36  N   UNL     1      -0.211   1.990   8.247  0.00  0.00    -0.191 NA
ENDBRANCH  27  35
ENDBRANCH  25  26
BRANCH  25  37
ATOM     37  C   UNL     1       1.329  -0.059   6.096  0.00  0.00    +0.101 C 
ATOM     38  N   UNL     1       0.891   0.779   5.466  0.00  0.00    -0.191 NA
ENDBRANCH  25  37
ENDBRANCH   4  24
TORSDOF 8
