REMARK  Name = ZINC00647113
REMARK  11 active torsions:
REMARK  status: ('A' for Active; 'I' for Inactive)
REMARK    1  A    between atoms: C_1  and  C_2
REMARK    2  A    between atoms: C_2  and  C_3
REMARK    3  A    between atoms: C_3  and  C_4
REMARK    4  A    between atoms: C_5  and  C_22
REMARK    5  A    between atoms: C_6  and  C_12
REMARK    6  A    between atoms: C_14  and  O_20
REMARK    7  A    between atoms: C_15  and  O_19
REMARK    8  A    between atoms: O_20  and  C_21
REMARK    9  A    between atoms: C_22  and  O_24
REMARK   10  A    between atoms: O_24  and  C_25
REMARK   11  A    between atoms: C_25  and  C_26
REMARK                            x       y       z     vdW  Elec       q    Type
REMARK                         _______ _______ _______ _____ _____    ______ ____
ROOT
ATOM      1  C   UNL     1       0.858  -2.221  -1.584  0.00  0.00    +0.024 C 
ATOM      2  C   UNL     1      -0.189  -2.934  -2.050  0.00  0.00    +0.078 C 
ATOM      3  C   UNL     1      -0.200  -4.427  -1.787  0.00  0.00    +0.144 C 
ATOM      4  N   UNL     1       0.942  -4.980  -1.039  0.00  0.00    -0.288 N 
ATOM      5  C   UNL     1       1.915  -4.138  -0.638  0.00  0.00    +0.304 C 
ATOM      6  O   UNL     1       2.861  -4.586  -0.020  0.00  0.00    -0.252 OA
ATOM      7  N   UNL     1       1.876  -2.826  -0.903  0.00  0.00    -0.273 N 
ATOM      8  H   UNL     1       0.992  -5.928  -0.840  0.00  0.00    +0.151 HD
ATOM      9  H   UNL     1       2.609  -2.274  -0.590  0.00  0.00    +0.156 HD
ENDROOT
BRANCH   3  10
ATOM     10  C   UNL     1      -0.269  -5.132  -3.117  0.00  0.00    -0.018 A 
ATOM     11  C   UNL     1       0.880  -5.302  -3.869  0.00  0.00    +0.055 A 
ATOM     12  C   UNL     1       0.819  -5.950  -5.091  0.00  0.00    +0.163 A 
ATOM     13  C   UNL     1      -0.400  -6.430  -5.561  0.00  0.00    +0.173 A 
ATOM     14  C   UNL     1      -1.548  -6.257  -4.803  0.00  0.00    +0.063 A 
ATOM     15  C   UNL     1      -1.479  -5.613  -3.581  0.00  0.00    +0.025 A 
ATOM     16 BR   UNL     1      -3.207  -6.907  -5.437  0.00  0.00    -0.046 Br
BRANCH  13  17
ATOM     17  O   UNL     1      -0.466  -7.067  -6.761  0.00  0.00    -0.503 OA
ATOM     18  H   UNL     1      -0.335  -8.023  -6.707  0.00  0.00    +0.292 HD
ENDBRANCH  13  17
BRANCH  12  19
ATOM     19  O   UNL     1       1.947  -6.117  -5.831  0.00  0.00    -0.491 OA
ATOM     20  C   UNL     1       3.141  -5.502  -5.342  0.00  0.00    +0.277 C 
ENDBRANCH  12  19
ENDBRANCH   3  10
BRANCH   2  21
ATOM     21  C   UNL     1      -1.242  -2.310  -2.760  0.00  0.00    +0.339 C 
ATOM     22  O   UNL     1      -2.296  -2.073  -2.201  0.00  0.00    -0.245 OA
BRANCH  21  23
ATOM     23  O   UNL     1      -1.076  -1.976  -4.057  0.00  0.00    -0.462 OA
BRANCH  23  24
ATOM     24  C   UNL     1      -2.136  -1.248  -4.680  0.00  0.00    +0.229 C 
ATOM     25  C   UNL     1      -1.823  -1.064  -6.166  0.00  0.00    +0.048 C 
ENDBRANCH  23  24
ENDBRANCH  21  23
ENDBRANCH   2  21
BRANCH   1  26
ATOM     26  C   UNL     1       0.908  -0.734  -1.823  0.00  0.00    +0.051 C 
BRANCH  26  28
ATOM     27  C   UNL     1       0.325   1.505  -0.879  0.00  0.00    +0.004 C 
ATOM     28  C   UNL     1       0.275  -0.005  -0.636  0.00  0.00    +0.002 C 
ENDBRANCH  26  28
ENDBRANCH   1  26
TORSDOF 8
