REMARK  Name = ZINC63315539
REMARK  5 active torsions:
REMARK  status: ('A' for Active; 'I' for Inactive)
REMARK    1  A    between atoms: N_12  and  C_17
REMARK    2  A    between atoms: C_21  and  C_23
REMARK    3  A    between atoms: N_25  and  C_26
REMARK    4  A    between atoms: C_26  and  C_27
REMARK    5  A    between atoms: C_27  and  C_28
REMARK                            x       y       z     vdW  Elec       q    Type
REMARK                         _______ _______ _______ _____ _____    ______ ____
ROOT
ATOM      1  C   UNL     1       4.186  -5.361   1.425  0.00  0.00    +0.046 A 
ATOM      2  C   UNL     1       3.479  -6.557   1.409  0.00  0.00    +0.024 A 
ATOM      3  C   UNL     1       3.976  -7.669   2.062  0.00  0.00    +0.003 A 
ATOM      4  C   UNL     1       5.179  -7.598   2.736  0.00  0.00    +0.013 A 
ATOM      5  C   UNL     1       5.897  -6.402   2.757  0.00  0.00    +0.038 A 
ATOM      6  C   UNL     1       5.398  -5.282   2.093  0.00  0.00    +0.037 A 
ENDROOT
BRANCH   1  17
ATOM      7  C   UNL     1       2.904   0.125  -4.344  0.00  0.00    +0.000 A 
ATOM      8  C   UNL     1       1.621  -0.370  -4.488  0.00  0.00    +0.000 A 
ATOM      9  C   UNL     1       1.125  -1.258  -3.556  0.00  0.00    +0.005 A 
ATOM     10  C   UNL     1       1.904  -1.660  -2.480  0.00  0.00    -0.027 A 
ATOM     11  C   UNL     1       3.186  -1.179  -2.340  0.00  0.00    -0.040 A 
ATOM     12  C   UNL     1       3.679  -0.276  -3.278  0.00  0.00    +0.004 A 
ATOM     13  C   UNL     1       4.119  -1.587  -1.229  0.00  0.00    +0.067 C 
ATOM     14  C   UNL     1       3.343  -2.114  -0.023  0.00  0.00    +0.169 C 
ATOM     15  C   UNL     1       4.233  -3.009   0.814  0.00  0.00    +0.248 C 
ATOM     16  O   UNL     1       5.240  -2.688   1.409  0.00  0.00    -0.273 OA
ATOM     17  N   UNL     1       3.677  -4.236   0.761  0.00  0.00    -0.193 N 
ATOM     18  C   UNL     1       2.577  -4.249  -0.006  0.00  0.00    +0.317 C 
ATOM     19  O   UNL     1       1.889  -5.234  -0.188  0.00  0.00    -0.252 OA
ATOM     20  N   UNL     1       2.316  -3.043  -0.546  0.00  0.00    -0.269 N 
ATOM     21  C   UNL     1       1.284  -2.619  -1.490  0.00  0.00    +0.145 C 
ENDBRANCH   1  17
BRANCH   5  22
ATOM     22  C   UNL     1       7.186  -6.323   3.478  0.00  0.00    +0.244 C 
ATOM     23  O   UNL     1       7.810  -5.280   3.495  0.00  0.00    -0.270 OA
ATOM     24  N   UNL     1       7.669  -7.408   4.115  0.00  0.00    -0.311 N 
ATOM     25  H   UNL     1       7.172  -8.241   4.101  0.00  0.00    +0.149 HD
BRANCH  24  26
ATOM     26  C   UNL     1       8.946  -7.330   4.829  0.00  0.00    +0.109 C 
BRANCH  26  27
ATOM     27  C   UNL     1       9.262  -8.689   5.459  0.00  0.00    +0.052 C 
BRANCH  27  28
ATOM     28  C   UNL     1      10.576  -8.608   6.193  0.00  0.00    -0.040 C 
ATOM     29  C   UNL     1      10.757  -8.366   7.511  0.00  0.00    -0.001 A 
ATOM     30  C   UNL     1       9.822  -8.113   8.613  0.00  0.00    +0.010 A 
ATOM     31  C   UNL     1      10.313  -7.898   9.855  0.00  0.00    +0.001 A 
ATOM     32  C   UNL     1      11.691  -7.912  10.114  0.00  0.00    +0.002 A 
ATOM     33  C   UNL     1      12.612  -8.137   9.154  0.00  0.00    +0.026 A 
ATOM     34  C   UNL     1      12.207  -8.375   7.811  0.00  0.00    +0.043 A 
ATOM     35  N   UNL     1      12.895  -8.614   6.721  0.00  0.00    -0.380 N 
ATOM     36  C   UNL     1      11.958  -8.790   5.606  0.00  0.00    +0.144 C 
ATOM     37  H   UNL     1      13.861  -8.669   6.663  0.00  0.00    +0.160 HD
ENDBRANCH  27  28
ENDBRANCH  26  27
ENDBRANCH  24  26
ENDBRANCH   5  22
TORSDOF 5
