REMARK  Name = ZINC41544578
REMARK  9 active torsions:
REMARK  status: ('A' for Active; 'I' for Inactive)
REMARK    1  A    between atoms: C_1  and  C_2
REMARK    2  A    between atoms: C_2  and  C_3
REMARK    3  A    between atoms: C_2  and  C_4
REMARK    4  A    between atoms: C_2  and  C_5
REMARK    5  A    between atoms: C_10  and  O_11
REMARK    6  A    between atoms: O_11  and  C_12
REMARK    7  A    between atoms: C_12  and  C_13
REMARK    8  A    between atoms: C_13  and  N_14
REMARK    9  A    between atoms: C_16  and  C_21
REMARK                            x       y       z     vdW  Elec       q    Type
REMARK                         _______ _______ _______ _____ _____    ______ ____
ROOT
ATOM      1  O   UNL     1       0.571  -3.164  -1.003  0.00  0.00    -0.490 OA
ENDROOT
BRANCH   1   7
ATOM      2  C   UNL     1       0.873  -0.972  -1.875  0.00  0.00    -0.000 A 
ATOM      3  C   UNL     1       1.428  -0.133  -2.822  0.00  0.00    +0.008 A 
ATOM      4  C   UNL     1       2.215  -0.653  -3.833  0.00  0.00    +0.001 A 
ATOM      5  C   UNL     1       2.449  -2.014  -3.899  0.00  0.00    +0.004 A 
ATOM      6  C   UNL     1       1.896  -2.858  -2.955  0.00  0.00    +0.046 A 
ATOM      7  C   UNL     1       1.111  -2.337  -1.936  0.00  0.00    +0.124 A 
BRANCH   2   9
ATOM      8  C   UNL     1      -0.037   1.119  -0.903  0.00  0.00    +0.015 C 
ATOM      9  C   UNL     1       0.016  -0.404  -0.774  0.00  0.00    -0.009 C 
ATOM     10  C   UNL     1       0.613  -0.781   0.583  0.00  0.00    +0.015 C 
ATOM     11  C   UNL     1      -1.400  -0.975  -0.884  0.00  0.00    +0.015 C 
ENDBRANCH   2   9
ENDBRANCH   1   7
BRANCH   1  12
ATOM     12  C   UNL     1       0.952  -4.541  -1.058  0.00  0.00    +0.248 C 
BRANCH  12  13
ATOM     13  C   UNL     1       0.348  -5.285   0.135  0.00  0.00    +0.148 C 
BRANCH  13  14
ATOM     14  N   UNL     1      -1.111  -5.315   0.004  0.00  0.00    -0.298 N 
ATOM     15  C   UNL     1      -2.014  -4.311   0.578  0.00  0.00    +0.113 C 
ATOM     16  C   UNL     1      -3.358  -4.495  -0.162  0.00  0.00    +0.030 C 
ATOM     17  C   UNL     1      -3.278  -5.977  -0.597  0.00  0.00    +0.102 C 
ATOM     18  C   UNL     1      -1.794  -6.262  -0.662  0.00  0.00    +0.216 C 
ATOM     19  O   UNL     1      -1.293  -7.210  -1.229  0.00  0.00    -0.276 OA
BRANCH  16  20
ATOM     20  C   UNL     1      -3.446  -3.570  -1.377  0.00  0.00    +0.114 C 
ATOM     21 CL   UNL     1      -5.082  -3.711  -2.122  0.00  0.00    -0.125 Cl
ENDBRANCH  16  20
ENDBRANCH  13  14
ENDBRANCH  12  13
ENDBRANCH   1  12
TORSDOF 6
