REMARK  Name = ZINC12694288
REMARK  8 active torsions:
REMARK  status: ('A' for Active; 'I' for Inactive)
REMARK    1  A    between atoms: C_1  and  C_2
REMARK    2  A    between atoms: N_11  and  S_12
REMARK    3  A    between atoms: S_12  and  C_15
REMARK    4  A    between atoms: C_19  and  C_21
REMARK    5  A    between atoms: N_23  and  C_24
REMARK    6  A    between atoms: C_24  and  C_25
REMARK    7  A    between atoms: C_25  and  C_27
REMARK    8  A    between atoms: C_25  and  N_63
REMARK                            x       y       z     vdW  Elec       q    Type
REMARK                         _______ _______ _______ _____ _____    ______ ____
ROOT
ATOM      1  C   UNL     1       0.006  -0.030  -2.437  0.00  0.00    +0.109 A 
ATOM      2  C   UNL     1       0.222   1.329  -2.587  0.00  0.00    +0.029 A 
ATOM      3  C   UNL     1      -0.657   2.097  -3.329  0.00  0.00    +0.003 A 
ATOM      4  C   UNL     1      -1.756   1.512  -3.925  0.00  0.00    +0.013 A 
ATOM      5  C   UNL     1      -1.979   0.143  -3.777  0.00  0.00    +0.039 A 
ATOM      6  C   UNL     1      -1.085  -0.627  -3.031  0.00  0.00    +0.041 A 
ENDROOT
BRANCH   5   7
ATOM      7  C   UNL     1      -3.155  -0.490  -4.412  0.00  0.00    +0.244 C 
ATOM      8  O   UNL     1      -3.347  -1.683  -4.282  0.00  0.00    -0.270 OA
ATOM      9  N   UNL     1      -4.013   0.255  -5.137  0.00  0.00    -0.312 N 
ATOM     10  H   UNL     1      -3.859   1.207  -5.241  0.00  0.00    +0.149 HD
BRANCH   9  11
ATOM     11  C   UNL     1      -5.177  -0.372  -5.766  0.00  0.00    +0.097 C 
BRANCH  11  12
ATOM     12  C   UNL     1      -5.981   0.687  -6.522  0.00  0.00    +0.016 C 
BRANCH  12  17
ATOM     13  C   UNL     1      -4.386   0.411  -8.341  0.00  0.00    -0.078 C 
ATOM     14  C   UNL     1      -3.962   1.270  -9.559  0.00  0.00    -0.020 C 
ATOM     15  C   UNL     1      -5.172   2.213  -9.754  0.00  0.00    -0.020 C 
ATOM     16  C   UNL     1      -5.887   2.237  -8.391  0.00  0.00    -0.078 C 
ATOM     17  N   UNL     1      -5.095   1.388  -7.500  0.00  0.00    +0.387 N 
ATOM     18  H   UNL     1      -4.415   1.962  -6.987  0.00  0.00    -0.081 HD
ENDBRANCH  12  17
BRANCH  12  19
ATOM     19  C   UNL     1      -7.108   0.024  -7.270  0.00  0.00    +0.093 A 
ATOM     20  C   UNL     1      -8.412   0.084  -6.944  0.00  0.00    +0.043 A 
ATOM     21  C   UNL     1      -9.112  -0.674  -7.911  0.00  0.00    +0.041 A 
ATOM     22  C   UNL     1      -8.193  -1.159  -8.765  0.00  0.00    +0.195 A 
ATOM     23  O   UNL     1      -6.981  -0.734  -8.372  0.00  0.00    -0.469 OA
ENDBRANCH  12  19
ENDBRANCH  11  12
ENDBRANCH   9  11
ENDBRANCH   5   7
BRANCH   1  24
ATOM     24  S   UNL     1       1.133  -0.999  -1.490  0.00  0.00    +0.075 S 
ATOM     25  O   UNL     1       1.007  -2.336  -1.954  0.00  0.00    -0.150 OA
ATOM     26  O   UNL     1       2.372  -0.303  -1.496  0.00  0.00    -0.150 OA
BRANCH  24  36
ATOM     27  C   UNL     1       2.489  -0.062   1.333  0.00  0.00    +0.030 C 
ATOM     28  C   UNL     1       0.980  -0.007   1.091  0.00  0.00    +0.099 C 
ATOM     29  C   UNL     1       0.217  -0.419   2.361  0.00  0.00    +0.061 C 
ATOM     30  C   UNL     1      -0.562  -1.649   1.954  0.00  0.00    -0.023 A 
ATOM     31  C   UNL     1      -1.421  -2.457   2.674  0.00  0.00    +0.005 A 
ATOM     32  C   UNL     1      -2.023  -3.544   2.068  0.00  0.00    +0.000 A 
ATOM     33  C   UNL     1      -1.764  -3.821   0.738  0.00  0.00    +0.002 A 
ATOM     34  C   UNL     1      -0.908  -3.018   0.015  0.00  0.00    +0.025 A 
ATOM     35  C   UNL     1      -0.296  -1.918   0.620  0.00  0.00    +0.055 A 
ATOM     36  N   UNL     1       0.592  -0.989   0.075  0.00  0.00    -0.200 N 
ENDBRANCH  24  36
ENDBRANCH   1  24
TORSDOF 7
