REMARK  Name = ZINC38584222
REMARK  16 active torsions:
REMARK  status: ('A' for Active; 'I' for Inactive)
REMARK    1  A    between atoms: C_1  and  C_2
REMARK    2  A    between atoms: C_2  and  C_3
REMARK    3  A    between atoms: C_7  and  C_40
REMARK    4  A    between atoms: C_8  and  N_9
REMARK    5  A    between atoms: N_9  and  C_10
REMARK    6  A    between atoms: C_10  and  C_12
REMARK    7  A    between atoms: C_10  and  C_13
REMARK    8  A    between atoms: C_13  and  O_14
REMARK    9  A    between atoms: O_14  and  C_15
REMARK   10  A    between atoms: C_16  and  C_18
REMARK   11  A    between atoms: C_18  and  N_19
REMARK   12  A    between atoms: C_27  and  C_28
REMARK   13  A    between atoms: C_28  and  C_29
REMARK   14  A    between atoms: C_29  and  C_30
REMARK   15  A    between atoms: C_30  and  N_31
REMARK   16  A    between atoms: C_32  and  C_34
REMARK                            x       y       z     vdW  Elec       q    Type
REMARK                         _______ _______ _______ _____ _____    ______ ____
ROOT
ATOM      1  N   UNL     1      -1.657   2.319   2.207  0.00  0.00    -0.319 N 
ATOM      2  C   UNL     1      -1.218   3.409   2.931  0.00  0.00    +0.069 A 
ATOM      3  C   UNL     1      -0.874   3.613   4.261  0.00  0.00    +0.028 A 
ATOM      4  C   UNL     1      -0.463   4.861   4.676  0.00  0.00    +0.002 A 
ATOM      5  C   UNL     1      -0.391   5.914   3.775  0.00  0.00    +0.002 A 
ATOM      6  C   UNL     1      -0.726   5.733   2.463  0.00  0.00    +0.030 A 
ATOM      7  C   UNL     1      -1.145   4.476   2.019  0.00  0.00    +0.089 A 
ATOM      8  N   UNL     1      -1.534   3.991   0.812  0.00  0.00    -0.232 NA
ATOM      9  C   UNL     1      -1.828   2.729   0.921  0.00  0.00    +0.111 A 
ENDROOT
BRANCH   1  10
ATOM     10  C   UNL     1      -1.890   0.969   2.727  0.00  0.00    +0.219 C 
BRANCH  10  12
ATOM     11  N   UNL     1      -0.598  -1.118   3.036  0.00  0.00    -0.264 N 
ATOM     12  C   UNL     1      -0.621   0.163   2.616  0.00  0.00    +0.240 C 
ATOM     13  O   UNL     1       0.379   0.666   2.150  0.00  0.00    -0.273 OA
BRANCH  11  19
ATOM     14  C   UNL     1       0.882  -2.530   1.752  0.00  0.00    -0.026 A 
ATOM     15  C   UNL     1       2.048  -3.264   1.652  0.00  0.00    +0.005 A 
ATOM     16  C   UNL     1       2.912  -3.341   2.729  0.00  0.00    +0.001 A 
ATOM     17  C   UNL     1       2.612  -2.686   3.909  0.00  0.00    +0.005 A 
ATOM     18  C   UNL     1       1.448  -1.950   4.015  0.00  0.00    -0.029 A 
ATOM     19  C   UNL     1       0.580  -1.866   2.933  0.00  0.00    +0.043 A 
ATOM     20  C   UNL     1       1.121  -1.236   5.301  0.00  0.00    +0.045 C 
BRANCH  14  22
ATOM     21  C   UNL     1       0.318  -1.246  -0.293  0.00  0.00    +0.009 C 
ATOM     22  C   UNL     1      -0.059  -2.446   0.578  0.00  0.00    +0.033 C 
ENDBRANCH  14  22
ENDBRANCH  11  19
BRANCH  11  23
ATOM     23  C   UNL     1      -1.805  -1.726   3.599  0.00  0.00    +0.104 C 
ATOM     24  C   UNL     1      -1.469  -2.379   4.941  0.00  0.00    +0.031 C 
BRANCH  23  25
ATOM     25  C   UNL     1      -2.339  -2.788   2.635  0.00  0.00    +0.182 C 
BRANCH  25  26
ATOM     26  O   UNL     1      -2.795  -2.157   1.437  0.00  0.00    -0.381 OA
ATOM     27  C   UNL     1      -3.316  -3.065   0.464  0.00  0.00    +0.194 C 
ENDBRANCH  25  26
ENDBRANCH  23  25
ENDBRANCH  11  23
ENDBRANCH  10  12
ENDBRANCH   1  10
BRANCH   9  28
ATOM     28  C   UNL     1      -2.293   1.849  -0.210  0.00  0.00    +0.076 C 
BRANCH  28  29
ATOM     29  C   UNL     1      -3.819   1.899  -0.301  0.00  0.00    +0.026 C 
BRANCH  29  30
ATOM     30  C   UNL     1      -4.292   1.006  -1.450  0.00  0.00    +0.104 C 
BRANCH  30  31
ATOM     31  N   UNL     1      -5.753   1.054  -1.537  0.00  0.00    -0.315 N 
ATOM     32  C   UNL     1      -6.396   0.340  -2.482  0.00  0.00    +0.216 C 
ATOM     33  O   UNL     1      -5.764  -0.343  -3.261  0.00  0.00    -0.276 OA
ATOM     34  H   UNL     1      -6.258   1.599  -0.914  0.00  0.00    +0.149 HD
BRANCH  32  35
ATOM     35  C   UNL     1      -7.899   0.389  -2.571  0.00  0.00    +0.075 C 
ATOM     36  C   UNL     1      -8.505  -0.109  -1.257  0.00  0.00    +0.013 C 
ATOM     37  C   UNL     1     -10.031  -0.059  -1.347  0.00  0.00    +0.001 C 
ATOM     38  C   UNL     1     -10.504  -0.952  -2.497  0.00  0.00    +0.000 C 
ATOM     39  C   UNL     1      -9.898  -0.455  -3.811  0.00  0.00    +0.001 C 
ATOM     40  C   UNL     1      -8.372  -0.504  -3.720  0.00  0.00    +0.013 C 
ENDBRANCH  32  35
ENDBRANCH  30  31
ENDBRANCH  29  30
ENDBRANCH  28  29
ENDBRANCH   9  28
TORSDOF 12
