REMARK  Name = ZINC19661496
REMARK  11 active torsions:
REMARK  status: ('A' for Active; 'I' for Inactive)
REMARK    1  A    between atoms: C_1  and  C_2
REMARK    2  A    between atoms: C_2  and  C_3
REMARK    3  A    between atoms: C_2  and  C_4
REMARK    4  A    between atoms: C_2  and  C_5
REMARK    5  A    between atoms: C_11  and  C_15
REMARK    6  A    between atoms: N_17  and  C_18
REMARK    7  A    between atoms: C_18  and  C_19
REMARK    8  A    between atoms: C_22  and  S_25
REMARK    9  A    between atoms: S_25  and  N_28
REMARK   10  A    between atoms: N_28  and  C_29
REMARK   11  A    between atoms: N_28  and  C_30
REMARK                            x       y       z     vdW  Elec       q    Type
REMARK                         _______ _______ _______ _____ _____    ______ ____
ROOT
ATOM      1  C   UNL     1       1.141   5.397   1.647  0.00  0.00    +0.265 C 
ATOM      2  O   UNL     1       1.122   6.192   0.727  0.00  0.00    -0.268 OA
ATOM      3  N   UNL     1       1.157   4.074   1.394  0.00  0.00    -0.306 N 
ATOM      4  H   UNL     1       1.174   3.355   2.226  0.00  0.00    +0.149 HD
ENDROOT
BRANCH   1  10
ATOM      5  C   UNL     1       1.514   9.654   3.551  0.00  0.00    -0.001 C 
ATOM      6  C   UNL     1       0.689   9.609   4.840  0.00  0.00    +0.010 C 
ATOM      7  C   UNL     1       1.131   8.414   5.694  0.00  0.00    +0.055 C 
ATOM      8  C   UNL     1       1.144   7.186   4.820  0.00  0.00    +0.040 A 
ATOM      9  C   UNL     1       1.133   7.222   3.464  0.00  0.00    +0.006 A 
ATOM     10  C   UNL     1       1.147   5.883   3.042  0.00  0.00    +0.150 A 
ATOM     11  N   UNL     1       1.162   5.141   4.136  0.00  0.00    -0.169 NA
ATOM     12  N   UNL     1       1.166   5.893   5.182  0.00  0.00    -0.281 N 
ATOM     13  H   UNL     1       1.185   5.620   6.248  0.00  0.00    +0.189 HD
ATOM     14  C   UNL     1       1.112   8.482   2.644  0.00  0.00    +0.043 C 
BRANCH   5  16
ATOM     15  C   UNL     1      -0.236  11.081   2.481  0.00  0.00    +0.011 C 
ATOM     16  C   UNL     1       1.251  10.974   2.824  0.00  0.00    -0.035 C 
ATOM     17  C   UNL     1       1.651  12.142   3.727  0.00  0.00    +0.011 C 
ATOM     18  C   UNL     1       2.076  11.020   1.536  0.00  0.00    +0.011 C 
ENDBRANCH   5  16
ENDBRANCH   1  10
BRANCH   3  19
ATOM     19  C   UNL     1       1.151   3.592   0.010  0.00  0.00    +0.140 C 
BRANCH  19  20
ATOM     20  C   UNL     1       1.171   2.086   0.002  0.00  0.00    -0.030 A 
ATOM     21  C   UNL     1      -0.017   1.378   0.010  0.00  0.00    +0.007 A 
ATOM     22  C   UNL     1       0.002  -0.004   0.002  0.00  0.00    +0.029 A 
ATOM     23  C   UNL     1       1.208  -0.679  -0.013  0.00  0.00    +0.105 A 
ATOM     24  C   UNL     1       2.396   0.029  -0.021  0.00  0.00    +0.029 A 
ATOM     25  C   UNL     1       2.377   1.411  -0.015  0.00  0.00    +0.007 A 
BRANCH  23  26
ATOM     26  S   UNL     1       1.232  -2.441  -0.022  0.00  0.00    +0.060 S 
ATOM     27  O   UNL     1       2.489  -2.832   0.515  0.00  0.00    -0.153 OA
ATOM     28  O   UNL     1      -0.002  -2.866   0.539  0.00  0.00    -0.153 OA
BRANCH  26  29
ATOM     29  N   UNL     1       1.223  -2.923  -1.606  0.00  0.00    -0.183 NA
ATOM     30  C   UNL     1       2.488  -3.119  -2.319  0.00  0.00    +0.131 C 
ATOM     31  C   UNL     1      -0.049  -3.153  -2.294  0.00  0.00    +0.131 C 
ENDBRANCH  26  29
ENDBRANCH  23  26
ENDBRANCH  19  20
ENDBRANCH   3  19
TORSDOF 6
