REMARK  Name = ZINC23858468
REMARK  9 active torsions:
REMARK  status: ('A' for Active; 'I' for Inactive)
REMARK    1  A    between atoms: C_1  and  N_2
REMARK    2  A    between atoms: C_10  and  C_12
REMARK    3  A    between atoms: C_12  and  C_14
REMARK    4  A    between atoms: C_12  and  N_28
REMARK    5  A    between atoms: C_14  and  N_15
REMARK    6  A    between atoms: C_16  and  C_18
REMARK    7  A    between atoms: C_21  and  N_25
REMARK    8  A    between atoms: N_28  and  C_29
REMARK    9  A    between atoms: N_28  and  C_30
REMARK                            x       y       z     vdW  Elec       q    Type
REMARK                         _______ _______ _______ _____ _____    ______ ____
ROOT
ATOM      1  C   UNL     1       0.211  -0.169   1.836  0.00  0.00    -0.021 C 
ENDROOT
BRANCH   1  11
ATOM      2  C   UNL     1       0.061   6.140   2.130  0.00  0.00    +0.129 C 
ATOM      3  N   UNL     1       1.269   5.406   1.728  0.00  0.00    -0.333 N 
ATOM      4  C   UNL     1       2.429   5.836   2.511  0.00  0.00    +0.105 C 
ATOM      5  C   UNL     1       3.650   5.020   2.069  0.00  0.00    +0.024 C 
ATOM      6  C   UNL     1       3.433   3.571   2.511  0.00  0.00    +0.038 C 
ATOM      7  C   UNL     1       2.043   3.127   2.131  0.00  0.00    -0.026 A 
ATOM      8  C   UNL     1       1.056   4.029   1.777  0.00  0.00    +0.033 A 
ATOM      9  C   UNL     1      -0.216   3.559   1.445  0.00  0.00    +0.023 A 
ATOM     10  C   UNL     1      -0.485   2.207   1.459  0.00  0.00    +0.004 A 
ATOM     11  C   UNL     1       0.504   1.310   1.816  0.00  0.00    -0.059 A 
ATOM     12  C   UNL     1       1.763   1.770   2.148  0.00  0.00    +0.007 A 
ENDBRANCH   1  11
BRANCH   1  13
ATOM     13  N   UNL     1      -1.083  -0.402   2.490  0.00  0.00    +0.382 N 
ATOM     14  C   UNL     1      -2.171  -0.447   1.504  0.00  0.00    -0.096 C 
ATOM     15  C   UNL     1      -1.052  -1.630   3.296  0.00  0.00    -0.096 C 
ATOM     16  H   UNL     1      -1.276   0.442   3.168  0.00  0.00    -0.082 HD
ENDBRANCH   1  13
BRANCH   1  17
ATOM     17  C   UNL     1       0.161  -0.698   0.402  0.00  0.00    +0.094 C 
BRANCH  17  18
ATOM     18  N   UNL     1      -0.037  -2.150   0.423  0.00  0.00    -0.313 N 
ATOM     19  C   UNL     1      -0.259  -2.817  -0.726  0.00  0.00    +0.245 C 
ATOM     20  O   UNL     1      -0.295  -2.214  -1.781  0.00  0.00    -0.270 OA
ATOM     21  H   UNL     1      -0.004  -2.695   1.378  0.00  0.00    +0.149 HD
BRANCH  19  22
ATOM     22  C   UNL     1      -0.459  -4.281  -0.704  0.00  0.00    +0.055 A 
ATOM     23  C   UNL     1      -0.417  -4.976   0.506  0.00  0.00    +0.017 A 
ATOM     24  C   UNL     1      -0.604  -6.342   0.520  0.00  0.00    +0.033 A 
ATOM     25  C   UNL     1      -0.833  -7.025  -0.662  0.00  0.00    +0.128 A 
ATOM     26  C   UNL     1      -0.875  -6.345  -1.865  0.00  0.00    +0.053 A 
ATOM     27  C   UNL     1      -0.695  -4.975  -1.893  0.00  0.00    +0.055 A 
ATOM     28 CL   UNL     1      -0.755  -4.120  -3.403  0.00  0.00    -0.083 Cl
BRANCH  25  29
ATOM     29  N   UNL     1      -1.033  -8.492  -0.639  0.00  0.00    +0.056 N 
ATOM     30  O   UNL     1      -0.997  -9.095   0.419  0.00  0.00    -0.126 OA
ATOM     31  O   UNL     1      -1.234  -9.096  -1.677  0.00  0.00    -0.126 OA
ENDBRANCH  25  29
ENDBRANCH  19  22
ENDBRANCH  17  18
ENDBRANCH   1  17
TORSDOF 6
