REMARK  Name = ZINC08610350
REMARK  12 active torsions:
REMARK  status: ('A' for Active; 'I' for Inactive)
REMARK    1  A    between atoms: C_1  and  C_2
REMARK    2  A    between atoms: C_5  and  C_8
REMARK    3  A    between atoms: C_9  and  C_10
REMARK    4  A    between atoms: C_11  and  S_16
REMARK    5  A    between atoms: C_12  and  C_15
REMARK    6  A    between atoms: S_16  and  N_19
REMARK    7  A    between atoms: C_22  and  C_25
REMARK    8  A    between atoms: C_30  and  N_33
REMARK    9  A    between atoms: N_33  and  C_34
REMARK   10  A    between atoms: N_33  and  C_35
REMARK   11  A    between atoms: C_35  and  C_36
REMARK   12  A    between atoms: C_35  and  C_37
REMARK                            x       y       z     vdW  Elec       q    Type
REMARK                         _______ _______ _______ _____ _____    ______ ____
ROOT
ATOM      1  N   UNL     1      -1.746  -6.491   4.013  0.00  0.00    -0.176 NA
ATOM      2  C   UNL     1      -2.543  -5.266   3.864  0.00  0.00    +0.110 C 
ATOM      3  C   UNL     1      -3.006  -4.807   5.251  0.00  0.00    +0.030 C 
ATOM      4  C   UNL     1      -3.742  -5.956   5.944  0.00  0.00    +0.078 C 
ATOM      5  C   UNL     1      -2.790  -7.141   6.120  0.00  0.00    +0.030 C 
ATOM      6  C   UNL     1      -2.327  -7.628   4.739  0.00  0.00    +0.110 C 
ENDROOT
BRANCH   4   7
ATOM      7  C   UNL     1      -4.228  -5.497   7.295  0.00  0.00    +0.219 C 
ATOM      8  O   UNL     1      -3.571  -5.730   8.287  0.00  0.00    -0.275 OA
ATOM      9  N   UNL     1      -5.394  -4.829   7.401  0.00  0.00    -0.301 N 
ATOM     10  C   UNL     1      -6.262  -4.649   6.229  0.00  0.00    +0.106 C 
ATOM     11  C   UNL     1      -6.568  -3.156   6.067  0.00  0.00    +0.004 C 
ATOM     12  C   UNL     1      -7.154  -2.615   7.373  0.00  0.00    -0.066 C 
ATOM     13  C   UNL     1      -6.131  -2.779   8.499  0.00  0.00    +0.004 C 
ATOM     14  C   UNL     1      -5.823  -4.271   8.690  0.00  0.00    +0.106 C 
BRANCH  12  15
ATOM     15  N   UNL     1      -7.479  -1.192   7.210  0.00  0.00    +0.381 N 
ATOM     16  C   UNL     1      -6.265  -0.451   6.844  0.00  0.00    -0.095 C 
ATOM     17  H   UNL     1      -7.846  -0.829   8.077  0.00  0.00    -0.081 HD
BRANCH  15  18
ATOM     18  C   UNL     1      -8.485  -1.037   6.151  0.00  0.00    -0.075 C 
ATOM     19  C   UNL     1      -9.719  -1.873   6.493  0.00  0.00    -0.014 C 
ATOM     20  C   UNL     1      -8.883   0.436   6.036  0.00  0.00    -0.014 C 
ENDBRANCH  15  18
ENDBRANCH  12  15
ENDBRANCH   4   7
BRANCH   1  21
ATOM     21  S   UNL     1      -0.224  -6.590   3.369  0.00  0.00    +0.066 S 
ATOM     22  O   UNL     1       0.467  -7.587   4.110  0.00  0.00    -0.153 OA
ATOM     23  O   UNL     1       0.256  -5.258   3.253  0.00  0.00    -0.153 OA
BRANCH  21  25
ATOM     24  C   UNL     1      -0.562  -6.458   0.599  0.00  0.00    +0.187 A 
ATOM     25  C   UNL     1      -0.392  -7.209   1.728  0.00  0.00    +0.174 A 
ATOM     26  C   UNL     1      -0.374  -8.557   1.350  0.00  0.00    +0.107 A 
ATOM     27  N   UNL     1      -0.526  -8.624   0.056  0.00  0.00    -0.081 NA
ATOM     28  O   UNL     1      -0.652  -7.305  -0.445  0.00  0.00    -0.353 OA
ATOM     29  C   UNL     1      -0.208  -9.732   2.280  0.00  0.00    +0.071 C 
BRANCH  24  31
ATOM     30  C   UNL     1      -0.815  -4.381  -0.649  0.00  0.00    +0.011 C 
ATOM     31  C   UNL     1      -0.638  -4.995   0.536  0.00  0.00    +0.051 C 
BRANCH  30  36
ATOM     32  C   UNL     1      -1.116   1.355  -0.897  0.00  0.00    +0.044 C 
ATOM     33  C   UNL     1      -1.037  -0.148  -0.832  0.00  0.00    -0.050 A 
ATOM     34  C   UNL     1      -1.146  -0.894  -1.993  0.00  0.00    +0.004 A 
ATOM     35  C   UNL     1      -1.074  -2.270  -1.942  0.00  0.00    +0.008 A 
ATOM     36  C   UNL     1      -0.891  -2.912  -0.713  0.00  0.00    -0.025 A 
ATOM     37  C   UNL     1      -0.782  -2.151   0.455  0.00  0.00    +0.008 A 
ATOM     38  C   UNL     1      -0.850  -0.776   0.387  0.00  0.00    +0.004 A 
ENDBRANCH  30  36
ENDBRANCH  24  31
ENDBRANCH  21  25
ENDBRANCH   1  21
TORSDOF 7
