REMARK  Name = ZINC63272532
REMARK  9 active torsions:
REMARK  status: ('A' for Active; 'I' for Inactive)
REMARK    1  A    between atoms: C_1  and  C_2
REMARK    2  A    between atoms: C_3  and  C_33
REMARK    3  A    between atoms: N_6  and  C_22
REMARK    4  A    between atoms: C_10  and  N_11
REMARK    5  A    between atoms: N_11  and  C_12
REMARK    6  A    between atoms: C_16  and  N_18
REMARK    7  A    between atoms: C_19  and  C_21
REMARK    8  A    between atoms: C_22  and  C_23
REMARK    9  A    between atoms: C_23  and  C_24
REMARK                            x       y       z     vdW  Elec       q    Type
REMARK                         _______ _______ _______ _____ _____    ______ ____
ROOT
ATOM      1  C   UNL     1      -0.011   1.565   0.032  0.00  0.00    +0.046 C 
ATOM      2  C   UNL     1       0.010   0.058   0.011  0.00  0.00    -0.015 C 
ATOM      3  C   UNL     1       0.004  -0.632  -1.193  0.00  0.00    +0.118 C 
ATOM      4  C   UNL     1       0.025  -2.096  -1.186  0.00  0.00    +0.264 C 
ATOM      5  O   UNL     1       0.020  -2.702  -2.242  0.00  0.00    -0.269 OA
ATOM      6  N   UNL     1       0.051  -2.779  -0.029  0.00  0.00    -0.233 N 
ATOM      7  C   UNL     1       0.057  -2.146   1.158  0.00  0.00    +0.255 C 
ATOM      8  O   UNL     1       0.081  -2.792   2.189  0.00  0.00    -0.269 OA
ATOM      9  C   UNL     1       0.042  -0.678   1.216  0.00  0.00    +0.055 C 
ATOM     10  C   UNL     1       0.054  -0.021   2.443  0.00  0.00    +0.085 C 
ENDROOT
BRANCH  10  11
ATOM     11  N   UNL     1      -0.040  -0.727   3.585  0.00  0.00    -0.320 N 
ATOM     12  H   UNL     1      -0.040  -1.697   3.557  0.00  0.00    +0.152 HD
BRANCH  11  13
ATOM     13  C   UNL     1      -0.137  -0.063   4.810  0.00  0.00    +0.033 A 
ATOM     14  C   UNL     1      -0.143   1.326   4.850  0.00  0.00    +0.023 A 
ATOM     15  C   UNL     1      -0.238   1.983   6.062  0.00  0.00    +0.004 A 
ATOM     16  C   UNL     1      -0.329   1.262   7.237  0.00  0.00    +0.023 A 
ATOM     17  C   UNL     1      -0.324  -0.127   7.204  0.00  0.00    +0.035 A 
ATOM     18  C   UNL     1      -0.234  -0.790   5.989  0.00  0.00    +0.046 A 
BRANCH  17  19
ATOM     19  N   UNL     1      -0.416  -0.856   8.395  0.00  0.00    -0.286 N 
ATOM     20  C   UNL     1      -1.170  -0.394   9.411  0.00  0.00    +0.214 C 
ATOM     21  O   UNL     1      -1.709   0.689   9.324  0.00  0.00    -0.276 OA
ATOM     22  C   UNL     1      -1.345  -1.224  10.657  0.00  0.00    +0.109 C 
ATOM     23  H   UNL     1       0.064  -1.694   8.488  0.00  0.00    +0.155 HD
ENDBRANCH  17  19
ENDBRANCH  11  13
ENDBRANCH  10  11
BRANCH   3  24
ATOM     24  C   UNL     1      -0.023   0.083  -2.433  0.00  0.00    +0.105 C 
ATOM     25  N   UNL     1      -0.045   0.650  -3.417  0.00  0.00    -0.191 NA
ENDBRANCH   3  24
BRANCH   6  26
ATOM     26  C   UNL     1       0.072  -4.244  -0.061  0.00  0.00    +0.121 C 
BRANCH  26  27
ATOM     27  C   UNL     1       1.521  -4.733  -0.091  0.00  0.00    +0.052 C 
BRANCH  27  28
ATOM     28  C   UNL     1       1.542  -6.239  -0.124  0.00  0.00    -0.040 C 
ATOM     29  C   UNL     1       1.639  -7.027  -1.219  0.00  0.00    -0.001 A 
ATOM     30  C   UNL     1       1.747  -6.730  -2.652  0.00  0.00    +0.010 A 
ATOM     31  C   UNL     1       1.828  -7.755  -3.530  0.00  0.00    +0.001 A 
ATOM     32  C   UNL     1       1.812  -9.091  -3.107  0.00  0.00    +0.002 A 
ATOM     33  C   UNL     1       1.715  -9.444  -1.808  0.00  0.00    +0.026 A 
ATOM     34  C   UNL     1       1.624  -8.447  -0.798  0.00  0.00    +0.043 A 
ATOM     35  N   UNL     1       1.522  -8.532   0.506  0.00  0.00    -0.380 N 
ATOM     36  C   UNL     1       1.467  -7.175   1.061  0.00  0.00    +0.144 C 
ATOM     37  H   UNL     1       1.492  -9.355   1.019  0.00  0.00    +0.160 HD
ENDBRANCH  27  28
ENDBRANCH  26  27
ENDBRANCH   6  26
TORSDOF 7
