REMARK  Name = ZINC39458439
REMARK  8 active torsions:
REMARK  status: ('A' for Active; 'I' for Inactive)
REMARK    1  A    between atoms: C_1  and  C_2
REMARK    2  A    between atoms: C_3  and  S_26
REMARK    3  A    between atoms: N_6  and  C_7
REMARK    4  A    between atoms: C_12  and  O_13
REMARK    5  A    between atoms: C_16  and  S_20
REMARK    6  A    between atoms: S_20  and  C_21
REMARK    7  A    between atoms: S_26  and  O_29
REMARK    8  A    between atoms: O_29  and  C_30
REMARK                            x       y       z     vdW  Elec       q    Type
REMARK                         _______ _______ _______ _____ _____    ______ ____
ROOT
ATOM      1  C   UNL     1      -0.229   1.294   0.159  0.00  0.00    +0.066 C 
ATOM      2  C   UNL     1       0.073  -0.178   0.038  0.00  0.00    +0.050 A 
ATOM      3  C   UNL     1       0.088  -0.889  -1.114  0.00  0.00    +0.153 A 
ATOM      4  C   UNL     1       0.409  -2.209  -0.792  0.00  0.00    +0.009 A 
ATOM      5  C   UNL     1       0.581  -2.283   0.566  0.00  0.00    +0.078 A 
ATOM      6  N   UNL     1       0.381  -1.013   1.067  0.00  0.00    -0.306 N 
ATOM      7  C   UNL     1       0.910  -3.465   1.375  0.00  0.00    +0.099 A 
ATOM      8  C   UNL     1       1.709  -4.527   0.933  0.00  0.00    +0.058 A 
ATOM      9  C   UNL     1       2.055  -5.535   1.882  0.00  0.00    +0.022 A 
ATOM     10  C   UNL     1       1.502  -5.482   3.156  0.00  0.00    +0.035 A 
ATOM     11  C   UNL     1       0.654  -4.443   3.478  0.00  0.00    +0.112 A 
ATOM     12  N   UNL     1       0.395  -3.489   2.612  0.00  0.00    -0.253 NA
ATOM     13  C   UNL     1       2.179  -4.741  -0.373  0.00  0.00    +0.167 C 
ATOM     14  O   UNL     1       2.881  -5.721  -0.517  0.00  0.00    -0.292 OA
ATOM     15  C   UNL     1       1.945  -3.956  -1.587  0.00  0.00    +0.084 C 
ATOM     16  C   UNL     1       0.556  -3.373  -1.724  0.00  0.00    +0.047 C 
ENDROOT
BRANCH   6  17
ATOM     17  C   UNL     1       0.477  -0.643   2.416  0.00  0.00    +0.089 A 
ATOM     18  C   UNL     1      -0.639  -0.712   3.237  0.00  0.00    +0.030 A 
ATOM     19  C   UNL     1      -0.542  -0.347   4.566  0.00  0.00    +0.002 A 
ATOM     20  C   UNL     1       0.666   0.086   5.082  0.00  0.00    +0.004 A 
ATOM     21  C   UNL     1       1.782   0.157   4.270  0.00  0.00    +0.047 A 
ATOM     22  C   UNL     1       1.695  -0.213   2.937  0.00  0.00    +0.141 A 
BRANCH  22  23
ATOM     23  O   UNL     1       2.794  -0.149   2.139  0.00  0.00    -0.505 OA
ATOM     24  H   UNL     1       2.908   0.702   1.694  0.00  0.00    +0.292 HD
ENDBRANCH  22  23
ENDBRANCH   6  17
BRANCH   3  25
ATOM     25  S   UNL     1      -0.238  -0.262  -2.728  0.00  0.00    +0.153 S 
ATOM     26  O   UNL     1      -1.414   0.530  -2.626  0.00  0.00    -0.131 OA
ATOM     27  O   UNL     1       0.990   0.258  -3.218  0.00  0.00    -0.131 OA
BRANCH  25  28
ATOM     28  O   UNL     1      -0.590  -1.451  -3.610  0.00  0.00    -0.342 OA
BRANCH  28  29
ATOM     29  C   UNL     1      -1.900  -1.809  -3.559  0.00  0.00    +0.157 A 
ATOM     30  C   UNL     1      -2.320  -2.782  -2.664  0.00  0.00    +0.048 A 
ATOM     31  C   UNL     1      -3.652  -3.144  -2.613  0.00  0.00    +0.004 A 
ATOM     32  C   UNL     1      -4.567  -2.537  -3.454  0.00  0.00    +0.000 A 
ATOM     33  C   UNL     1      -4.151  -1.568  -4.348  0.00  0.00    +0.004 A 
ATOM     34  C   UNL     1      -2.821  -1.198  -4.398  0.00  0.00    +0.048 A 
ENDBRANCH  28  29
ENDBRANCH  25  28
ENDBRANCH   3  25
BRANCH   9  35
ATOM     35  S   UNL     1       3.167  -6.830   1.444  0.00  0.00    -0.128 S 
ATOM     36  C   UNL     1       3.286  -7.834   2.950  0.00  0.00    +0.090 C 
ENDBRANCH   9  35
TORSDOF 6
