REMARK  Name = ZINC14023379
REMARK  8 active torsions:
REMARK  status: ('A' for Active; 'I' for Inactive)
REMARK    1  A    between atoms: C_1  and  C_2
REMARK    2  A    between atoms: C_2  and  C_3
REMARK    3  A    between atoms: C_3  and  N_63
REMARK    4  A    between atoms: C_9  and  N_14
REMARK    5  A    between atoms: C_10  and  C_11
REMARK    6  A    between atoms: C_15  and  C_17
REMARK    7  A    between atoms: N_22  and  S_24
REMARK    8  A    between atoms: S_24  and  C_27
REMARK                            x       y       z     vdW  Elec       q    Type
REMARK                         _______ _______ _______ _____ _____    ______ ____
ROOT
ATOM      1  N   UNL     1      -1.475   3.382   5.621  0.00  0.00    -0.279 N 
ATOM      2  C   UNL     1      -1.295   3.998   4.436  0.00  0.00    +0.222 C 
ATOM      3  O   UNL     1      -2.119   4.790   4.032  0.00  0.00    -0.275 OA
ATOM      4  H   UNL     1      -0.815   2.749   5.944  0.00  0.00    +0.155 HD
ENDROOT
BRANCH   1  10
ATOM      5  C   UNL     1      -5.818   4.120  10.000  0.00  0.00    -0.074 C 
ATOM      6  C   UNL     1      -4.757   3.115   9.541  0.00  0.00    +0.018 C 
ATOM      7  C   UNL     1      -4.208   3.584   8.198  0.00  0.00    -0.027 A 
ATOM      8  C   UNL     1      -4.895   4.489   7.464  0.00  0.00    -0.021 A 
ATOM      9  S   UNL     1      -3.909   4.737   6.017  0.00  0.00    -0.079 S 
ATOM     10  C   UNL     1      -2.604   3.655   6.379  0.00  0.00    +0.084 A 
ATOM     11  C   UNL     1      -2.966   3.123   7.610  0.00  0.00    +0.068 A 
ATOM     12  C   UNL     1      -6.202   5.120   7.827  0.00  0.00    -0.035 C 
ATOM     13  N   UNL     1      -6.805   4.318   8.919  0.00  0.00    +0.383 N 
ATOM     14  H   UNL     1      -7.082   3.402   8.547  0.00  0.00    -0.081 HD
BRANCH  11  15
ATOM     15  C   UNL     1      -2.121   2.136   8.290  0.00  0.00    +0.244 C 
ATOM     16  O   UNL     1      -1.255   2.505   9.061  0.00  0.00    -0.270 OA
ATOM     17  N   UNL     1      -2.304   0.820   8.062  0.00  0.00    -0.325 N 
ATOM     18  H   UNL     1      -2.995   0.526   7.447  0.00  0.00    +0.145 HD
ATOM     19  H   UNL     1      -1.746   0.168   8.512  0.00  0.00    +0.145 HD
ENDBRANCH  11  15
BRANCH  13  20
ATOM     20  C   UNL     1      -8.004   5.004   9.448  0.00  0.00    -0.079 C 
BRANCH  20  22
ATOM     21  C   UNL     1      -8.868   7.018  10.648  0.00  0.00    +0.002 C 
ATOM     22  C   UNL     1      -7.614   6.329  10.107  0.00  0.00    -0.022 C 
ENDBRANCH  20  22
ENDBRANCH  13  20
ENDBRANCH   1  10
BRANCH   2  23
ATOM     23  C   UNL     1      -0.068   3.702   3.612  0.00  0.00    +0.091 C 
ATOM     24  C   UNL     1       1.185   4.066   4.412  0.00  0.00    +0.015 C 
ATOM     25  C   UNL     1       2.432   3.735   3.589  0.00  0.00    +0.018 C 
ATOM     26  C   UNL     1       2.423   4.564   2.300  0.00  0.00    +0.109 C 
ATOM     27  N   UNL     1       1.155   4.329   1.596  0.00  0.00    -0.176 NA
ATOM     28  C   UNL     1      -0.105   4.535   2.322  0.00  0.00    +0.122 C 
BRANCH  27  29
ATOM     29  S   UNL     1       1.147   3.847   0.011  0.00  0.00    +0.061 S 
ATOM     30  O   UNL     1       2.382   4.273  -0.549  0.00  0.00    -0.153 OA
ATOM     31  O   UNL     1      -0.109   4.239  -0.526  0.00  0.00    -0.153 OA
BRANCH  29  32
ATOM     32  C   UNL     1       1.171   2.086   0.002  0.00  0.00    +0.105 A 
ATOM     33  C   UNL     1      -0.017   1.378   0.010  0.00  0.00    +0.028 A 
ATOM     34  C   UNL     1       0.002  -0.004   0.002  0.00  0.00    +0.002 A 
ATOM     35  C   UNL     1       1.208  -0.679  -0.014  0.00  0.00    +0.000 A 
ATOM     36  C   UNL     1       2.396   0.029  -0.021  0.00  0.00    +0.002 A 
ATOM     37  C   UNL     1       2.377   1.411  -0.014  0.00  0.00    +0.028 A 
ENDBRANCH  29  32
ENDBRANCH  27  29
ENDBRANCH   2  23
TORSDOF 7
