REMARK  Name = ZINC00083339
REMARK  3 active torsions:
REMARK  status: ('A' for Active; 'I' for Inactive)
REMARK    1  A    between atoms: C_12  and  C_20
REMARK    2  A    between atoms: C_14  and  C_18
REMARK    3  A    between atoms: C_15  and  N_17
REMARK                            x       y       z     vdW  Elec       q    Type
REMARK                         _______ _______ _______ _____ _____    ______ ____
ROOT
ATOM      1  C   UNL     1       1.087   2.619  -0.062  0.00  0.00    +0.001 A 
ATOM      2  C   UNL     1       0.966   1.238  -0.122  0.00  0.00    +0.004 A 
ATOM      3  C   UNL     1      -0.278   0.642  -0.132  0.00  0.00    +0.047 A 
ATOM      4  C   UNL     1      -1.423   1.426  -0.088  0.00  0.00    +0.143 A 
ATOM      5  C   UNL     1      -1.301   2.823  -0.020  0.00  0.00    +0.060 A 
ATOM      6  C   UNL     1      -0.036   3.414  -0.011  0.00  0.00    +0.015 A 
ATOM      7  C   UNL     1      -2.523   3.641   0.034  0.00  0.00    +0.151 A 
ATOM      8  C   UNL     1      -3.727   3.002   0.021  0.00  0.00    +0.088 A 
ATOM      9  C   UNL     1      -3.768   1.598  -0.043  0.00  0.00    +0.345 A 
ATOM     10  O   UNL     1      -4.849   1.037  -0.055  0.00  0.00    -0.245 OA
ATOM     11  O   UNL     1      -2.649   0.859  -0.091  0.00  0.00    -0.422 OA
ATOM     12  C   UNL     1      -5.011   3.785   0.075  0.00  0.00    +0.078 C 
ATOM     13  C   UNL     1      -4.754   5.227  -0.264  0.00  0.00    +0.094 C 
ATOM     14  C   UNL     1      -3.501   5.739  -0.236  0.00  0.00    +0.198 C 
ATOM     15  O   UNL     1      -2.438   4.983   0.094  0.00  0.00    -0.440 OA
ENDROOT
BRANCH  12  16
ATOM     16  C   UNL     1      -5.603   3.693   1.483  0.00  0.00    +0.006 C 
ATOM     17  C   UNL     1      -6.987   4.353   1.505  0.00  0.00    +0.009 C 
ATOM     18  C   UNL     1      -7.627   4.091   2.870  0.00  0.00    +0.027 C 
ATOM     19  C   UNL     1      -6.663   4.435   3.968  0.00  0.00    -0.031 C 
ATOM     20  C   UNL     1      -5.388   4.580   3.795  0.00  0.00    -0.031 C 
ATOM     21  C   UNL     1      -4.697   4.433   2.470  0.00  0.00    +0.031 C 
ENDBRANCH  12  16
BRANCH  14  22
ATOM     22  N   UNL     1      -3.310   7.061  -0.551  0.00  0.00    -0.328 N 
ATOM     23  H   UNL     1      -2.417   7.440  -0.534  0.00  0.00    +0.145 HD
ATOM     24  H   UNL     1      -4.068   7.617  -0.790  0.00  0.00    +0.145 HD
ENDBRANCH  14  22
BRANCH  13  25
ATOM     25  C   UNL     1      -5.853   6.073  -0.623  0.00  0.00    +0.100 C 
ATOM     26  N   UNL     1      -6.724   6.744  -0.907  0.00  0.00    -0.191 NA
ENDBRANCH  13  25
TORSDOF 3
