REMARK  Name = ZINC16651003
REMARK  10 active torsions:
REMARK  status: ('A' for Active; 'I' for Inactive)
REMARK    1  A    between atoms: C_1  and  C_2
REMARK    2  A    between atoms: C_5  and  C_7
REMARK    3  A    between atoms: C_7  and  N_8
REMARK    4  A    between atoms: N_8  and  C_9
REMARK    5  A    between atoms: C_9  and  C_10
REMARK    6  A    between atoms: C_16  and  C_18
REMARK    7  A    between atoms: C_18  and  N_19
REMARK    8  A    between atoms: N_19  and  C_20
REMARK    9  A    between atoms: C_20  and  C_21
REMARK   10  A    between atoms: N_29  and  C_30
REMARK                            x       y       z     vdW  Elec       q    Type
REMARK                         _______ _______ _______ _____ _____    ______ ____
ROOT
ATOM      1  N   UNL     1      -2.130   7.100  -0.950  0.00  0.00    -0.274 N 
ATOM      2  C   UNL     1      -2.112   5.752  -0.958  0.00  0.00    +0.303 C 
ATOM      3  O   UNL     1      -2.639   5.142  -1.868  0.00  0.00    -0.253 OA
ATOM      4  N   UNL     1      -1.510   5.081   0.044  0.00  0.00    -0.294 N 
ATOM      5  H   UNL     1      -1.089   5.567   0.770  0.00  0.00    +0.151 HD
ENDROOT
BRANCH   4   6
ATOM      6  C   UNL     1      -1.490   3.616   0.036  0.00  0.00    +0.037 C 
ATOM      7  C   UNL     1      -0.773   3.123  -1.223  0.00  0.00    +0.029 C 
ATOM      8  C   UNL     1      -0.753   1.593  -1.232  0.00  0.00    -0.008 C 
ATOM      9  C   UNL     1      -0.013   1.086   0.008  0.00  0.00    +0.007 C 
ATOM     10  C   UNL     1      -0.729   1.579   1.267  0.00  0.00    -0.008 C 
ATOM     11  C   UNL     1      -0.750   3.109   1.275  0.00  0.00    +0.029 C 
ATOM     12  C   UNL     1      -2.164   1.050   1.278  0.00  0.00    +0.007 C 
ATOM     13  C   UNL     1      -2.904   1.556   0.038  0.00  0.00    -0.008 C 
ATOM     14  C   UNL     1      -2.188   1.063  -1.221  0.00  0.00    +0.007 C 
ATOM     15  C   UNL     1      -2.925   3.086   0.047  0.00  0.00    +0.029 C 
ENDBRANCH   4   6
BRANCH   1  16
ATOM     16  C   UNL     1      -2.785   7.829  -2.039  0.00  0.00    +0.205 C 
BRANCH  16  18
ATOM     17  N   UNL     1      -5.037   8.715  -2.550  0.00  0.00    -0.289 N 
ATOM     18  C   UNL     1      -4.233   8.059  -1.690  0.00  0.00    +0.234 C 
ATOM     19  O   UNL     1      -4.674   7.653  -0.636  0.00  0.00    -0.274 OA
BRANCH  17  20
ATOM     20  C   UNL     1      -4.503   9.206  -3.823  0.00  0.00    +0.182 C 
BRANCH  20  25
ATOM     21  C   UNL     1      -3.541   5.234  -6.780  0.00  0.00    +0.086 C 
ATOM     22  C   UNL     1      -4.247   6.415  -6.164  0.00  0.00    +0.102 A 
ATOM     23  C   UNL     1      -5.461   6.876  -6.514  0.00  0.00    +0.045 A 
ATOM     24  C   UNL     1      -5.731   7.989  -5.685  0.00  0.00    +0.046 A 
ATOM     25  C   UNL     1      -4.665   8.142  -4.878  0.00  0.00    +0.122 A 
ATOM     26  O   UNL     1      -3.767   7.189  -5.177  0.00  0.00    -0.463 OA
ENDBRANCH  20  25
ENDBRANCH  17  20
BRANCH  17  27
ATOM     27  C   UNL     1      -6.445   8.939  -2.211  0.00  0.00    +0.143 C 
BRANCH  27  28
ATOM     28  C   UNL     1      -6.583  10.247  -1.476  0.00  0.00    -0.030 A 
ATOM     29  C   UNL     1      -6.491  10.278  -0.097  0.00  0.00    +0.005 A 
ATOM     30  C   UNL     1      -6.613  11.479   0.577  0.00  0.00    +0.000 A 
ATOM     31  C   UNL     1      -6.837  12.647  -0.128  0.00  0.00    +0.000 A 
ATOM     32  C   UNL     1      -6.934  12.615  -1.506  0.00  0.00    +0.000 A 
ATOM     33  C   UNL     1      -6.807  11.415  -2.180  0.00  0.00    +0.005 A 
ENDBRANCH  27  28
ENDBRANCH  17  27
ENDBRANCH  16  18
ENDBRANCH   1  16
BRANCH   1  34
ATOM     34  C   UNL     1      -1.495   7.835   0.146  0.00  0.00    +0.141 C 
BRANCH  34  35
ATOM     35  C   UNL     1      -0.032   8.112  -0.205  0.00  0.00    +0.136 C 
ATOM     36  C   UNL     1       0.645   8.885   0.943  0.00  0.00    +0.035 C 
ATOM     37  C   UNL     1       1.824   7.977   1.369  0.00  0.00    +0.031 C 
ATOM     38  C   UNL     1       2.023   7.092   0.112  0.00  0.00    +0.160 C 
ATOM     39  O   UNL     1       0.676   6.871  -0.360  0.00  0.00    -0.375 OA
ENDBRANCH  34  35
ENDBRANCH   1  34
TORSDOF 9
