REMARK  Name = ZINC39958003
REMARK  6 active torsions:
REMARK  status: ('A' for Active; 'I' for Inactive)
REMARK    1  A    between atoms: C_1  and  C_2
REMARK    2  A    between atoms: C_4  and  C_13
REMARK    3  A    between atoms: C_7  and  N_8
REMARK    4  A    between atoms: C_15  and  C_26
REMARK    5  A    between atoms: C_16  and  N_25
REMARK    6  A    between atoms: C_21  and  C_24
REMARK                            x       y       z     vdW  Elec       q    Type
REMARK                         _______ _______ _______ _____ _____    ______ ____
ROOT
ATOM      1  C   UNL     1       0.027  -2.815  -2.517  0.00  0.00    +0.098 C 
ATOM      2  C   UNL     1       1.247  -3.713  -2.608  0.00  0.00    +0.097 C 
ATOM      3  C   UNL     1       1.145  -5.058  -2.550  0.00  0.00    +0.195 C 
ATOM      4  O   UNL     1       0.011  -5.773  -2.435  0.00  0.00    -0.448 OA
ATOM      5  C   UNL     1      -1.136  -5.105  -1.903  0.00  0.00    +0.343 C 
ATOM      6  C   UNL     1      -1.159  -3.736  -2.595  0.00  0.00    +0.030 C 
ATOM      7  C   UNL     1      -2.331  -3.666  -3.177  0.00  0.00    +0.066 C 
ATOM      8  N   UNL     1      -3.001  -4.838  -3.031  0.00  0.00    -0.155 NA
ATOM      9  N   UNL     1      -2.395  -5.706  -2.351  0.00  0.00    -0.138 NA
ATOM     10  C   UNL     1      -2.860  -2.456  -3.903  0.00  0.00    +0.067 C 
ENDROOT
BRANCH   1  14
ATOM     11  C   UNL     1      -0.018   1.503   0.010  0.00  0.00    +0.045 C 
ATOM     12  C   UNL     1       0.002  -0.004   0.002  0.00  0.00    -0.029 A 
ATOM     13  C   UNL     1       0.006  -0.689  -1.198  0.00  0.00    +0.009 A 
ATOM     14  C   UNL     1       0.024  -2.071  -1.206  0.00  0.00    -0.034 A 
ATOM     15  C   UNL     1       0.039  -2.773  -0.014  0.00  0.00    +0.006 A 
ATOM     16  C   UNL     1       0.036  -2.095   1.188  0.00  0.00    +0.023 A 
ATOM     17  C   UNL     1       0.023  -0.706   1.200  0.00  0.00    +0.033 A 
BRANCH  17  18
ATOM     18  N   UNL     1       0.025  -0.016   2.415  0.00  0.00    -0.330 N 
ATOM     19  C   UNL     1      -1.168   0.385   3.175  0.00  0.00    +0.105 C 
ATOM     20  C   UNL     1      -0.680   1.139   4.430  0.00  0.00    +0.020 C 
ATOM     21  C   UNL     1       0.739   1.615   4.019  0.00  0.00    +0.020 C 
ATOM     22  C   UNL     1       1.224   0.424   3.151  0.00  0.00    +0.105 C 
ENDBRANCH  17  18
ENDBRANCH   1  14
BRANCH   3  23
ATOM     23  N   UNL     1       2.317  -5.768  -2.617  0.00  0.00    -0.329 N 
ATOM     24  H   UNL     1       3.163  -5.301  -2.701  0.00  0.00    +0.145 HD
ATOM     25  H   UNL     1       2.300  -6.737  -2.580  0.00  0.00    +0.145 HD
ENDBRANCH   3  23
BRANCH   2  26
ATOM     26  C   UNL     1       2.541  -3.118  -2.760  0.00  0.00    +0.101 C 
ATOM     27  N   UNL     1       3.567  -2.646  -2.881  0.00  0.00    -0.191 NA
ENDBRANCH   2  26
TORSDOF 4
