REMARK  Name = ZINC39665850
REMARK  10 active torsions:
REMARK  status: ('A' for Active; 'I' for Inactive)
REMARK    1  A    between atoms: C_1  and  C_2
REMARK    2  A    between atoms: C_6  and  C_7
REMARK    3  A    between atoms: C_11  and  C_20
REMARK    4  A    between atoms: N_22  and  C_23
REMARK    5  A    between atoms: C_23  and  C_24
REMARK    6  A    between atoms: C_24  and  C_26
REMARK    7  A    between atoms: C_24  and  O_27
REMARK    8  A    between atoms: O_27  and  C_28
REMARK    9  A    between atoms: C_31  and  O_34
REMARK   10  A    between atoms: O_34  and  C_35
REMARK                            x       y       z     vdW  Elec       q    Type
REMARK                         _______ _______ _______ _____ _____    ______ ____
ROOT
ATOM      1  C   UNL     1      -0.019  -0.266   2.597  0.00  0.00    +0.254 C 
ATOM      2  O   UNL     1       0.065   0.922   2.846  0.00  0.00    -0.269 OA
ATOM      3  N   UNL     1      -0.092  -1.161   3.602  0.00  0.00    -0.296 N 
ATOM      4  C   UNL     1      -0.075  -2.640   3.504  0.00  0.00    +0.121 C 
ATOM      5  C   UNL     1       0.784  -3.101   4.703  0.00  0.00    +0.100 C 
ATOM      6  C   UNL     1       0.691  -1.949   5.718  0.00  0.00    -0.004 C 
ATOM      7  C   UNL     1      -0.202  -0.890   5.055  0.00  0.00    +0.115 C 
ATOM      8  C   UNL     1       2.076  -1.369   5.987  0.00  0.00    -0.010 C 
ATOM      9  C   UNL     1       1.965  -0.264   7.042  0.00  0.00    -0.082 C 
ATOM     10  N   UNL     1       1.396  -0.818   8.276  0.00  0.00    +0.379 N 
ATOM     11  C   UNL     1       0.028  -1.290   8.029  0.00  0.00    -0.082 C 
ATOM     12  C   UNL     1       0.057  -2.438   7.016  0.00  0.00    -0.010 C 
ATOM     13  H   UNL     1       1.965  -1.590   8.590  0.00  0.00    -0.086 HD
ATOM     14  H   UNL     1       1.380  -0.104   8.988  0.00  0.00    -0.086 HD
ENDROOT
BRANCH   1  20
ATOM     15  C   UNL     1      -0.079   1.534   0.056  0.00  0.00    +0.045 C 
ATOM     16  C   UNL     1      -0.069   0.027   0.039  0.00  0.00    -0.031 A 
ATOM     17  C   UNL     1      -0.079  -0.691  -1.133  0.00  0.00    +0.011 A 
ATOM     18  C   UNL     1      -0.068  -2.046  -1.076  0.00  0.00    +0.046 A 
ATOM     19  S   UNL     1      -0.043  -2.389   0.569  0.00  0.00    -0.092 S 
ATOM     20  C   UNL     1      -0.041  -0.723   1.205  0.00  0.00    +0.077 A 
ENDBRANCH   1  20
BRANCH   5  21
ATOM     21  C   UNL     1       0.224  -4.369   5.293  0.00  0.00    +0.218 C 
ATOM     22  O   UNL     1      -0.951  -4.635   5.155  0.00  0.00    -0.275 OA
ATOM     23  N   UNL     1       1.030  -5.209   5.972  0.00  0.00    -0.312 N 
ATOM     24  H   UNL     1       1.970  -4.997   6.082  0.00  0.00    +0.149 HD
BRANCH  23  25
ATOM     25  C   UNL     1       0.486  -6.443   6.545  0.00  0.00    +0.148 C 
BRANCH  25  26
ATOM     26  C   UNL     1       1.601  -7.209   7.259  0.00  0.00    +0.187 C 
ATOM     27  C   UNL     1       1.062  -8.554   7.750  0.00  0.00    +0.053 C 
BRANCH  26  28
ATOM     28  O   UNL     1       2.065  -6.446   8.375  0.00  0.00    -0.488 OA
BRANCH  28  29
ATOM     29  C   UNL     1       3.333  -6.685   8.802  0.00  0.00    +0.121 A 
ATOM     30  C   UNL     1       3.811  -6.057   9.943  0.00  0.00    +0.049 A 
ATOM     31  C   UNL     1       5.100  -6.300  10.377  0.00  0.00    +0.049 A 
ATOM     32  C   UNL     1       5.916  -7.172   9.671  0.00  0.00    +0.120 A 
ATOM     33  C   UNL     1       5.438  -7.800   8.531  0.00  0.00    +0.049 A 
ATOM     34  C   UNL     1       4.148  -7.561   8.100  0.00  0.00    +0.049 A 
BRANCH  32  35
ATOM     35  O   UNL     1       7.185  -7.410  10.098  0.00  0.00    -0.495 OA
ATOM     36  C   UNL     1       7.970  -8.319   9.323  0.00  0.00    +0.277 C 
ENDBRANCH  32  35
ENDBRANCH  28  29
ENDBRANCH  26  28
ENDBRANCH  25  26
ENDBRANCH  23  25
ENDBRANCH   5  21
TORSDOF 7
