REMARK  Name = ZINC08825089
REMARK  9 active torsions:
REMARK  status: ('A' for Active; 'I' for Inactive)
REMARK    1  A    between atoms: C_1  and  C_2
REMARK    2  A    between atoms: C_2  and  O_3
REMARK    3  A    between atoms: O_3  and  C_4
REMARK    4  A    between atoms: C_4  and  C_6
REMARK    5  A    between atoms: C_7  and  C_20
REMARK    6  A    between atoms: C_12  and  C_14
REMARK    7  A    between atoms: C_20  and  N_21
REMARK    8  A    between atoms: C_23  and  C_26
REMARK    9  A    between atoms: C_30  and  C_32
REMARK                            x       y       z     vdW  Elec       q    Type
REMARK                         _______ _______ _______ _____ _____    ______ ____
ROOT
ATOM      1  C   UNL     1      -0.029   1.282  -0.238  0.00  0.00    +0.080 C 
ATOM      2  C   UNL     1       0.023  -0.038   0.044  0.00  0.00    +0.047 C 
ATOM      3  N   UNL     1       1.215  -0.661   0.280  0.00  0.00    -0.271 N 
ATOM      4  C   UNL     1       2.398  -0.036   0.252  0.00  0.00    +0.304 C 
ATOM      5  O   UNL     1       3.407  -0.677   0.475  0.00  0.00    -0.252 OA
ATOM      6  N   UNL     1       2.508   1.280  -0.016  0.00  0.00    -0.288 N 
ATOM      7  C   UNL     1       1.279   2.045  -0.285  0.00  0.00    +0.144 C 
ATOM      8  H   UNL     1       1.203  -1.611   0.479  0.00  0.00    +0.156 HD
ATOM      9  H   UNL     1       3.376   1.713  -0.032  0.00  0.00    +0.151 HD
ENDROOT
BRANCH   7  10
ATOM     10  C   UNL     1       1.407   2.665  -1.653  0.00  0.00    -0.022 A 
ATOM     11  C   UNL     1       1.840   1.900  -2.720  0.00  0.00    +0.006 A 
ATOM     12  C   UNL     1       1.953   2.467  -3.976  0.00  0.00    +0.000 A 
ATOM     13  C   UNL     1       1.643   3.801  -4.162  0.00  0.00    +0.000 A 
ATOM     14  C   UNL     1       1.215   4.567  -3.094  0.00  0.00    +0.000 A 
ATOM     15  C   UNL     1       1.098   3.999  -1.839  0.00  0.00    +0.006 A 
ENDBRANCH   7  10
BRANCH   1  16
ATOM     16  C   UNL     1      -1.262   1.928  -0.488  0.00  0.00    +0.339 C 
ATOM     17  O   UNL     1      -2.286   1.276  -0.567  0.00  0.00    -0.245 OA
BRANCH  16  18
ATOM     18  O   UNL     1      -1.303   3.269  -0.639  0.00  0.00    -0.462 OA
BRANCH  18  20
ATOM     19  C   UNL     1      -2.430   5.370  -1.031  0.00  0.00    +0.048 C 
ATOM     20  C   UNL     1      -2.582   3.855  -0.889  0.00  0.00    +0.229 C 
ENDBRANCH  18  20
ENDBRANCH  16  18
ENDBRANCH   1  16
BRANCH   2  21
ATOM     21  C   UNL     1      -1.255  -0.835   0.100  0.00  0.00    +0.219 C 
BRANCH  21  22
ATOM     22  N   UNL     1      -1.591  -1.313  -1.243  0.00  0.00    -0.157 N 
ATOM     23  N   UNL     1      -1.209  -2.432  -1.754  0.00  0.00    -0.130 NA
ATOM     24  C   UNL     1      -1.707  -2.511  -2.972  0.00  0.00    +0.205 A 
ATOM     25  N   UNL     1      -2.409  -1.387  -3.173  0.00  0.00    -0.108 NA
ATOM     26  N   UNL     1      -2.321  -0.683  -2.096  0.00  0.00    -0.045 NA
BRANCH  24  27
ATOM     27  C   UNL     1      -1.526  -3.628  -3.933  0.00  0.00    +0.023 A 
ATOM     28  C   UNL     1      -0.759  -4.737  -3.580  0.00  0.00    +0.012 A 
ATOM     29  C   UNL     1      -0.599  -5.775  -4.475  0.00  0.00    +0.001 A 
ATOM     30  C   UNL     1      -1.189  -5.711  -5.725  0.00  0.00    +0.012 A 
ATOM     31  C   UNL     1      -1.947  -4.611  -6.082  0.00  0.00    +0.055 A 
ATOM     32  C   UNL     1      -2.118  -3.569  -5.192  0.00  0.00    +0.024 A 
BRANCH  31  33
ATOM     33  C   UNL     1      -2.587  -4.548  -7.445  0.00  0.00    +0.417 C 
ATOM     34  F   UNL     1      -1.706  -3.942  -8.346  0.00  0.00    -0.166 F 
ATOM     35  F   UNL     1      -2.882  -5.845  -7.881  0.00  0.00    -0.166 F 
ATOM     36  F   UNL     1      -3.767  -3.801  -7.372  0.00  0.00    -0.166 F 
ENDBRANCH  31  33
ENDBRANCH  24  27
ENDBRANCH  21  22
ENDBRANCH   2  21
TORSDOF 8
