REMARK  Name = ZINC39638968
REMARK  9 active torsions:
REMARK  status: ('A' for Active; 'I' for Inactive)
REMARK    1  A    between atoms: C_1  and  O_2
REMARK    2  A    between atoms: O_2  and  C_3
REMARK    3  A    between atoms: C_6  and  O_34
REMARK    4  A    between atoms: C_7  and  C_9
REMARK    5  A    between atoms: C_13  and  C_22
REMARK    6  A    between atoms: N_24  and  C_25
REMARK    7  A    between atoms: C_25  and  C_26
REMARK    8  A    between atoms: C_26  and  C_27
REMARK    9  A    between atoms: O_34  and  C_35
REMARK                            x       y       z     vdW  Elec       q    Type
REMARK                         _______ _______ _______ _____ _____    ______ ____
ROOT
ATOM      1  C   UNL     1       1.305  -4.351  -2.450  0.00  0.00    +0.250 C 
ATOM      2  O   UNL     1       1.720  -4.976  -3.406  0.00  0.00    -0.270 OA
ATOM      3  N   UNL     1       0.850  -5.006  -1.363  0.00  0.00    -0.296 N 
ATOM      4  C   UNL     1       0.213  -4.429  -0.156  0.00  0.00    +0.121 C 
ATOM      5  C   UNL     1      -0.914  -5.423   0.204  0.00  0.00    +0.100 C 
ATOM      6  C   UNL     1      -0.474  -6.758  -0.420  0.00  0.00    -0.004 C 
ATOM      7  C   UNL     1       0.868  -6.466  -1.108  0.00  0.00    +0.115 C 
ATOM      8  C   UNL     1      -1.498  -7.223  -1.451  0.00  0.00    -0.010 C 
ATOM      9  C   UNL     1      -1.067  -8.579  -2.016  0.00  0.00    -0.082 C 
ATOM     10  N   UNL     1      -0.963  -9.555  -0.925  0.00  0.00    +0.379 N 
ATOM     11  C   UNL     1       0.089  -9.148   0.014  0.00  0.00    -0.082 C 
ATOM     12  C   UNL     1      -0.293  -7.815   0.665  0.00  0.00    -0.010 C 
ATOM     13  H   UNL     1      -1.845  -9.607  -0.437  0.00  0.00    -0.086 HD
ATOM     14  H   UNL     1      -0.739 -10.462  -1.306  0.00  0.00    -0.086 HD
ENDROOT
BRANCH   1  19
ATOM     15  C   UNL     1       1.516  -0.768  -1.340  0.00  0.00    +0.121 A 
ATOM     16  C   UNL     1       1.288  -0.100  -2.537  0.00  0.00    +0.049 A 
ATOM     17  C   UNL     1       1.067  -0.810  -3.700  0.00  0.00    +0.050 A 
ATOM     18  C   UNL     1       1.070  -2.196  -3.682  0.00  0.00    +0.132 A 
ATOM     19  C   UNL     1       1.300  -2.876  -2.478  0.00  0.00    +0.082 A 
ATOM     20  C   UNL     1       1.528  -2.150  -1.307  0.00  0.00    +0.062 A 
BRANCH  15  22
ATOM     21  C   UNL     1       1.707   1.364  -0.305  0.00  0.00    +0.277 C 
ATOM     22  O   UNL     1       1.734  -0.061  -0.199  0.00  0.00    -0.495 OA
ENDBRANCH  15  22
BRANCH  18  23
ATOM     23  O   UNL     1       0.852  -2.893  -4.826  0.00  0.00    -0.494 OA
ATOM     24  C   UNL     1       0.625  -2.133  -6.015  0.00  0.00    +0.277 C 
ENDBRANCH  18  23
ENDBRANCH   1  19
BRANCH   5  25
ATOM     25  C   UNL     1      -2.223  -4.970  -0.390  0.00  0.00    +0.218 C 
ATOM     26  O   UNL     1      -2.233  -4.336  -1.424  0.00  0.00    -0.275 OA
ATOM     27  N   UNL     1      -3.383  -5.270   0.227  0.00  0.00    -0.315 N 
ATOM     28  H   UNL     1      -3.375  -5.777   1.054  0.00  0.00    +0.149 HD
BRANCH  27  29
ATOM     29  C   UNL     1      -4.655  -4.830  -0.350  0.00  0.00    +0.109 C 
BRANCH  29  30
ATOM     30  C   UNL     1      -5.808  -5.297   0.540  0.00  0.00    +0.056 C 
BRANCH  30  31
ATOM     31  C   UNL     1      -7.117  -4.844  -0.054  0.00  0.00    -0.011 A 
ATOM     32  C   UNL     1      -7.697  -3.663   0.371  0.00  0.00    +0.006 A 
ATOM     33  C   UNL     1      -8.898  -3.248  -0.174  0.00  0.00    +0.000 A 
ATOM     34  C   UNL     1      -9.520  -4.012  -1.144  0.00  0.00    +0.003 A 
ATOM     35  C   UNL     1      -8.941  -5.193  -1.570  0.00  0.00    +0.038 A 
ATOM     36  C   UNL     1      -7.736  -5.607  -1.029  0.00  0.00    +0.127 A 
ATOM     37  F   UNL     1      -7.168  -6.759  -1.448  0.00  0.00    -0.205 F 
ENDBRANCH  30  31
ENDBRANCH  29  30
ENDBRANCH  27  29
ENDBRANCH   5  25
TORSDOF 7
