REMARK  Name = ZINC35004443
REMARK  11 active torsions:
REMARK  status: ('A' for Active; 'I' for Inactive)
REMARK    1  A    between atoms: C_1  and  C_2
REMARK    2  A    between atoms: C_2  and  C_3
REMARK    3  A    between atoms: C_3  and  C_5
REMARK    4  A    between atoms: C_3  and  C_6
REMARK    5  A    between atoms: C_6  and  C_8
REMARK    6  A    between atoms: C_6  and  N_24
REMARK    7  A    between atoms: C_14  and  C_17
REMARK    8  A    between atoms: N_20  and  C_21
REMARK    9  A    between atoms: C_21  and  C_22
REMARK   10  A    between atoms: C_21  and  C_23
REMARK   11  A    between atoms: N_27  and  C_28
REMARK                            x       y       z     vdW  Elec       q    Type
REMARK                         _______ _______ _______ _____ _____    ______ ____
ROOT
ATOM      1  C   UNL     1       0.088  -0.286  -1.930  0.00  0.00    +0.163 C 
ENDROOT
BRANCH   1   2
ATOM      2  C   UNL     1       0.105  -1.121  -3.184  0.00  0.00    +0.236 C 
ATOM      3  O   UNL     1       0.107  -0.583  -4.271  0.00  0.00    -0.274 OA
ATOM      4  N   UNL     1       0.119  -2.466  -3.098  0.00  0.00    -0.297 N 
ATOM      5  C   UNL     1      -0.012  -3.134  -1.795  0.00  0.00    +0.127 C 
ATOM      6  C   UNL     1       1.184  -4.075  -1.604  0.00  0.00    +0.128 C 
ATOM      7  N   UNL     1       1.329  -4.900  -2.812  0.00  0.00    -0.280 N 
ATOM      8  C   UNL     1       1.461  -4.233  -4.114  0.00  0.00    +0.092 C 
ATOM      9  C   UNL     1       0.259  -3.292  -4.306  0.00  0.00    +0.130 C 
ATOM     10  C   UNL     1       2.762  -3.429  -4.151  0.00  0.00    +0.030 C 
ATOM     11  C   UNL     1       1.343  -6.245  -2.725  0.00  0.00    +0.303 C 
ATOM     12  O   UNL     1       1.562  -6.915  -3.716  0.00  0.00    -0.253 OA
ATOM     13  N   UNL     1       1.115  -6.847  -1.541  0.00  0.00    -0.297 N 
ATOM     14  H   UNL     1       0.865  -6.317  -0.768  0.00  0.00    +0.150 HD
BRANCH  13  15
ATOM     15  C   UNL     1       1.243  -8.302  -1.422  0.00  0.00    +0.068 C 
ATOM     16  C   UNL     1       2.705  -8.664  -1.158  0.00  0.00    +0.027 C 
ATOM     17  C   UNL     1       0.377  -8.796  -0.262  0.00  0.00    +0.027 C 
ENDBRANCH  13  15
ENDBRANCH   1   2
BRANCH   1  18
ATOM     18  N   UNL     1      -0.885   0.799  -2.079  0.00  0.00    -0.288 N 
ATOM     19  C   UNL     1      -1.425   1.376  -0.987  0.00  0.00    +0.305 C 
ATOM     20  O   UNL     1      -1.038   1.059   0.121  0.00  0.00    -0.252 OA
ATOM     21  N   UNL     1      -2.393   2.303  -1.124  0.00  0.00    -0.267 N 
ATOM     22  H   UNL     1      -1.141   1.102  -2.965  0.00  0.00    +0.151 HD
ATOM     23  H   UNL     1      -2.749   2.507  -2.003  0.00  0.00    +0.156 HD
BRANCH  21  24
ATOM     24  C   UNL     1      -2.886   2.973   0.005  0.00  0.00    +0.070 A 
ATOM     25  C   UNL     1      -2.140   3.006   1.175  0.00  0.00    +0.029 A 
ATOM     26  C   UNL     1      -2.627   3.667   2.286  0.00  0.00    +0.040 A 
ATOM     27  C   UNL     1      -3.860   4.296   2.234  0.00  0.00    +0.126 A 
ATOM     28  C   UNL     1      -4.607   4.264   1.069  0.00  0.00    +0.078 A 
ATOM     29  C   UNL     1      -4.121   3.609  -0.048  0.00  0.00    +0.147 A 
ATOM     30  F   UNL     1      -4.847   3.583  -1.186  0.00  0.00    -0.203 F 
ATOM     31  F   UNL     1      -4.334   4.941   3.322  0.00  0.00    -0.205 F 
ENDBRANCH  21  24
ENDBRANCH   1  18
BRANCH   1  32
ATOM     32  C   UNL     1       1.478   0.305  -1.691  0.00  0.00    +0.015 C 
ATOM     33  C   UNL     1       1.948   1.029  -2.954  0.00  0.00    +0.010 C 
BRANCH  32  35
ATOM     34  C   UNL     1       2.092  -1.426   0.003  0.00  0.00    +0.004 C 
ATOM     35  C   UNL     1       2.459  -0.820  -1.353  0.00  0.00    +0.002 C 
ENDBRANCH  32  35
ENDBRANCH   1  32
TORSDOF 6
