REMARK  Name = ZINC00650311
REMARK  11 active torsions:
REMARK  status: ('A' for Active; 'I' for Inactive)
REMARK    1  A    between atoms: C_1  and  C_2
REMARK    2  A    between atoms: C_3  and  C_32
REMARK    3  A    between atoms: C_4  and  C_25
REMARK    4  A    between atoms: C_10  and  C_15
REMARK    5  A    between atoms: C_18  and  O_23
REMARK    6  A    between atoms: C_19  and  O_21
REMARK    7  A    between atoms: O_21  and  C_22
REMARK    8  A    between atoms: O_23  and  C_24
REMARK    9  A    between atoms: C_29  and  O_31
REMARK   10  A    between atoms: C_32  and  O_34
REMARK   11  A    between atoms: O_34  and  C_35
REMARK                            x       y       z     vdW  Elec       q    Type
REMARK                         _______ _______ _______ _____ _____    ______ ____
ROOT
ATOM      1  C   UNL     1      -2.749   6.481  -2.459  0.00  0.00    +0.061 C 
ATOM      2  C   UNL     1      -2.059   6.153  -1.160  0.00  0.00    +0.016 C 
ATOM      3  C   UNL     1      -0.806   5.666  -1.174  0.00  0.00    +0.065 C 
ATOM      4  C   UNL     1      -0.091   5.319   0.099  0.00  0.00    +0.092 C 
ATOM      5  C   UNL     1      -0.752   5.973   1.286  0.00  0.00    +0.024 C 
ATOM      6  C   UNL     1      -2.011   6.452   1.198  0.00  0.00    +0.016 C 
ATOM      7  N   UNL     1      -2.711   6.351   0.025  0.00  0.00    -0.321 N 
ATOM      8  C   UNL     1      -2.678   7.111   2.380  0.00  0.00    +0.059 C 
ATOM      9  C   UNL     1      -2.144   6.501   3.677  0.00  0.00    +0.032 C 
ATOM     10  C   UNL     1      -0.624   6.692   3.715  0.00  0.00    +0.088 C 
ATOM     11  C   UNL     1      -0.023   6.069   2.485  0.00  0.00    +0.162 C 
ATOM     12  O   UNL     1       1.114   5.641   2.527  0.00  0.00    -0.292 OA
ATOM     13  H   UNL     1      -3.808   6.432   0.042  0.00  0.00    +0.152 HD
ENDROOT
BRANCH   9  14
ATOM     14  C   UNL     1      -2.771   7.196   4.859  0.00  0.00    -0.040 A 
ATOM     15  C   UNL     1      -2.589   8.555   5.036  0.00  0.00    +0.008 A 
ATOM     16  C   UNL     1      -3.166   9.197   6.115  0.00  0.00    +0.049 A 
ATOM     17  C   UNL     1      -3.920   8.477   7.028  0.00  0.00    +0.161 A 
ATOM     18  C   UNL     1      -4.099   7.109   6.853  0.00  0.00    +0.162 A 
ATOM     19  C   UNL     1      -3.522   6.471   5.766  0.00  0.00    +0.053 A 
BRANCH  18  20
ATOM     20  O   UNL     1      -4.838   6.398   7.745  0.00  0.00    -0.491 OA
ATOM     21  C   UNL     1      -4.980   4.997   7.501  0.00  0.00    +0.277 C 
ENDBRANCH  18  20
BRANCH  17  22
ATOM     22  O   UNL     1      -4.484   9.107   8.094  0.00  0.00    -0.491 OA
ATOM     23  C   UNL     1      -4.259  10.513   8.210  0.00  0.00    +0.277 C 
ENDBRANCH  17  22
ENDBRANCH   9  14
BRANCH   4  24
ATOM     24  C   UNL     1      -0.108   3.824   0.284  0.00  0.00    -0.032 A 
ATOM     25  C   UNL     1      -1.314   3.153   0.379  0.00  0.00    +0.005 A 
ATOM     26  C   UNL     1      -1.333   1.781   0.545  0.00  0.00    +0.004 A 
ATOM     27  C   UNL     1      -0.146   1.077   0.625  0.00  0.00    +0.045 A 
ATOM     28  C   UNL     1       1.064   1.748   0.530  0.00  0.00    +0.117 A 
ATOM     29  C   UNL     1       1.081   3.124   0.359  0.00  0.00    +0.050 A 
BRANCH  28  30
ATOM     30  O   UNL     1       2.232   1.057   0.604  0.00  0.00    -0.507 OA
ATOM     31  H   UNL     1       3.192   1.590   0.528  0.00  0.00    +0.292 HD
ENDBRANCH  28  30
ENDBRANCH   4  24
BRANCH   3  32
ATOM     32  C   UNL     1      -0.149   5.477  -2.412  0.00  0.00    +0.338 C 
ATOM     33  O   UNL     1       0.732   6.242  -2.757  0.00  0.00    -0.245 OA
BRANCH  32  34
ATOM     34  O   UNL     1      -0.500   4.447  -3.212  0.00  0.00    -0.458 OA
BRANCH  34  35
ATOM     35  C   UNL     1       0.205   4.316  -4.448  0.00  0.00    +0.177 C 
ATOM     36  C   UNL     1      -0.557   5.050  -5.571  0.00  0.00    +0.044 C 
ATOM     37  C   UNL     1      -0.360   4.148  -6.814  0.00  0.00    +0.004 C 
ATOM     38  C   UNL     1      -0.444   2.721  -6.218  0.00  0.00    +0.004 C 
ATOM     39  C   UNL     1       0.277   2.836  -4.859  0.00  0.00    +0.044 C 
ENDBRANCH  34  35
ENDBRANCH  32  34
ENDBRANCH   3  32
TORSDOF 8
