REMARK  Name = ZINC34747312
REMARK  6 active torsions:
REMARK  status: ('A' for Active; 'I' for Inactive)
REMARK    1  A    between atoms: C_4  and  C_7
REMARK    2  A    between atoms: C_7  and  C_8
REMARK    3  A    between atoms: C_8  and  C_9
REMARK    4  A    between atoms: C_9  and  N_10
REMARK    5  A    between atoms: N_23  and  C_26
REMARK    6  A    between atoms: C_26  and  C_27
REMARK                            x       y       z     vdW  Elec       q    Type
REMARK                         _______ _______ _______ _____ _____    ______ ____
ROOT
ATOM      1  N   UNL     1       6.040  -2.023   2.721  0.00  0.00    -0.280 N 
ATOM      2  C   UNL     1       6.891  -1.159   3.304  0.00  0.00    +0.264 A 
ATOM      3  O   UNL     1       7.374  -0.240   2.665  0.00  0.00    -0.267 OA
ATOM      4  C   UNL     1       7.222  -1.335   4.685  0.00  0.00    +0.076 A 
ATOM      5  C   UNL     1       8.117  -0.526   5.514  0.00  0.00    -0.023 A 
ATOM      6  C   UNL     1       8.264  -0.901   6.801  0.00  0.00    -0.004 A 
ATOM      7  S   UNL     1       7.236  -2.333   6.985  0.00  0.00    -0.073 S 
ATOM      8  C   UNL     1       6.610  -2.425   5.327  0.00  0.00    +0.117 A 
ATOM      9  N   UNL     1       5.777  -3.241   4.691  0.00  0.00    -0.208 NA
ATOM     10  C   UNL     1       5.485  -3.053   3.421  0.00  0.00    +0.202 A 
ATOM     11  N   UNL     1       4.616  -3.909   2.792  0.00  0.00    -0.304 N 
ATOM     12  C   UNL     1       3.169  -3.648   2.785  0.00  0.00    +0.089 C 
ATOM     13  C   UNL     1       2.444  -4.920   3.239  0.00  0.00    -0.059 C 
ATOM     14  N   UNL     1       2.860  -6.047   2.394  0.00  0.00    +0.384 N 
ATOM     15  C   UNL     1       4.290  -6.316   2.589  0.00  0.00    -0.059 C 
ATOM     16  C   UNL     1       5.107  -5.111   2.099  0.00  0.00    +0.089 C 
ATOM     17  C   UNL     1       9.116  -0.245   7.846  0.00  0.00    +0.043 C 
ATOM     18  C   UNL     1      10.095   0.707   7.145  0.00  0.00    +0.005 C 
ATOM     19  C   UNL     1       9.316   1.559   6.139  0.00  0.00    +0.005 C 
ATOM     20  C   UNL     1       8.858   0.690   4.966  0.00  0.00    +0.037 C 
ATOM     21  H   UNL     1       2.691  -5.820   1.425  0.00  0.00    -0.081 HD
ENDROOT
BRANCH   1  22
ATOM     22  C   UNL     1       5.697  -1.849   1.307  0.00  0.00    +0.128 C 
BRANCH  22  23
ATOM     23  C   UNL     1       4.555  -0.838   1.180  0.00  0.00    +0.026 C 
BRANCH  23  24
ATOM     24  C   UNL     1       4.197  -0.656  -0.296  0.00  0.00    +0.037 C 
BRANCH  24  28
ATOM     25  C   UNL     1       1.009   2.165  -0.653  0.00  0.00    +0.000 A 
ATOM     26  C   UNL     1       2.321   2.598  -0.678  0.00  0.00    +0.000 A 
ATOM     27  C   UNL     1       3.353   1.685  -0.562  0.00  0.00    +0.003 A 
ATOM     28  C   UNL     1       3.072   0.339  -0.421  0.00  0.00    -0.047 A 
ATOM     29  C   UNL     1       1.760  -0.094  -0.396  0.00  0.00    +0.003 A 
ATOM     30  C   UNL     1       0.728   0.819  -0.513  0.00  0.00    +0.000 A 
ENDBRANCH  24  28
ENDBRANCH  23  24
ENDBRANCH  22  23
ENDBRANCH   1  22
BRANCH  14  31
ATOM     31  C   UNL     1       2.084  -7.240   2.756  0.00  0.00    -0.043 C 
BRANCH  31  32
ATOM     32  C   UNL     1       2.421  -8.364   1.810  0.00  0.00    -0.064 A 
ATOM     33  C   UNL     1       1.698  -8.525   0.643  0.00  0.00    +0.003 A 
ATOM     34  C   UNL     1       2.007  -9.556  -0.225  0.00  0.00    +0.020 A 
ATOM     35  C   UNL     1       3.040 -10.427   0.075  0.00  0.00    +0.041 A 
ATOM     36  C   UNL     1       3.763 -10.265   1.243  0.00  0.00    +0.020 A 
ATOM     37  C   UNL     1       3.457  -9.230   2.107  0.00  0.00    +0.003 A 
ATOM     38 CL   UNL     1       3.428 -11.722  -1.014  0.00  0.00    -0.084 Cl
ENDBRANCH  31  32
ENDBRANCH  14  31
TORSDOF 6
