REMARK  Name = ZINC52909930
REMARK  11 active torsions:
REMARK  status: ('A' for Active; 'I' for Inactive)
REMARK    1  A    between atoms: C_1  and  C_2
REMARK    2  A    between atoms: C_5  and  N_8
REMARK    3  A    between atoms: C_9  and  C_11
REMARK    4  A    between atoms: C_11  and  C_13
REMARK    5  A    between atoms: C_11  and  N_14
REMARK    6  A    between atoms: C_17  and  N_20
REMARK    7  A    between atoms: C_21  and  O_23
REMARK    8  A    between atoms: O_23  and  C_24
REMARK    9  A    between atoms: C_24  and  C_25
REMARK   10  A    between atoms: C_24  and  C_26
REMARK   11  A    between atoms: C_24  and  C_27
REMARK                            x       y       z     vdW  Elec       q    Type
REMARK                         _______ _______ _______ _____ _____    ______ ____
ROOT
ATOM      1  N   UNL     1      -1.748  -3.264   5.931  0.00  0.00    +0.387 N 
ATOM      2  C   UNL     1      -0.325  -3.327   6.283  0.00  0.00    -0.076 C 
ATOM      3  C   UNL     1      -0.107  -4.395   7.357  0.00  0.00    +0.004 C 
ATOM      4  C   UNL     1      -0.927  -4.036   8.599  0.00  0.00    +0.073 C 
ATOM      5  C   UNL     1      -2.400  -3.901   8.205  0.00  0.00    +0.004 C 
ATOM      6  C   UNL     1      -2.533  -2.851   7.100  0.00  0.00    -0.076 C 
ATOM      7  H   UNL     1      -2.057  -4.175   5.625  0.00  0.00    -0.081 HD
ENDROOT
BRANCH   4   8
ATOM      8  N   UNL     1      -0.783  -5.093   9.603  0.00  0.00    -0.278 N 
ATOM      9  C   UNL     1      -0.964  -4.812  10.909  0.00  0.00    +0.401 C 
ATOM     10  O   UNL     1      -1.246  -3.682  11.253  0.00  0.00    -0.226 OA
ATOM     11  H   UNL     1      -0.558  -5.996   9.328  0.00  0.00    +0.152 HD
BRANCH   9  12
ATOM     12  O   UNL     1      -0.832  -5.784  11.831  0.00  0.00    -0.445 OA
BRANCH  12  13
ATOM     13  C   UNL     1      -1.038  -5.415  13.196  0.00  0.00    +0.107 C 
ATOM     14  C   UNL     1      -2.458  -4.874  13.370  0.00  0.00    +0.055 C 
ATOM     15  C   UNL     1      -0.846  -6.642  14.091  0.00  0.00    +0.055 C 
ATOM     16  C   UNL     1      -0.028  -4.334  13.590  0.00  0.00    +0.055 C 
ENDBRANCH  12  13
ENDBRANCH   9  12
ENDBRANCH   4   8
BRANCH   1  17
ATOM     17  C   UNL     1      -1.941  -2.293   4.845  0.00  0.00    +0.016 C 
ATOM     18  C   UNL     1      -3.430  -2.191   4.511  0.00  0.00    -0.004 C 
BRANCH  17  20
ATOM     19  N   UNL     1      -0.743  -1.841   2.729  0.00  0.00    -0.314 N 
ATOM     20  C   UNL     1      -1.182  -2.747   3.625  0.00  0.00    +0.199 C 
ATOM     21  O   UNL     1      -0.967  -3.928   3.449  0.00  0.00    -0.278 OA
ATOM     22  H   UNL     1      -0.915  -0.897   2.869  0.00  0.00    +0.149 HD
BRANCH  19  27
ATOM     23  C   UNL     1       2.432   1.288   1.729  0.00  0.00    +0.007 C 
ATOM     24  C   UNL     1       1.876  -0.056   1.254  0.00  0.00    -0.014 C 
ATOM     25  C   UNL     1       0.395   0.100   0.905  0.00  0.00    +0.005 C 
ATOM     26  C   UNL     1      -0.161  -1.244   0.430  0.00  0.00    +0.022 C 
ATOM     27  C   UNL     1      -0.006  -2.283   1.542  0.00  0.00    +0.073 C 
ATOM     28  C   UNL     1       1.476  -2.438   1.891  0.00  0.00    +0.022 C 
ATOM     29  C   UNL     1       2.032  -1.094   2.367  0.00  0.00    +0.005 C 
ENDBRANCH  19  27
ENDBRANCH  17  20
ENDBRANCH   1  17
TORSDOF 6
