REMARK  Name = ZINC20706682
REMARK  7 active torsions:
REMARK  status: ('A' for Active; 'I' for Inactive)
REMARK    1  A    between atoms: C_1  and  C_2
REMARK    2  A    between atoms: C_2  and  N_3
REMARK    3  A    between atoms: N_3  and  C_4
REMARK    4  A    between atoms: N_3  and  C_6
REMARK    5  A    between atoms: C_4  and  C_5
REMARK    6  A    between atoms: C_19  and  C_22
REMARK    7  A    between atoms: C_27  and  O_28
REMARK                            x       y       z     vdW  Elec       q    Type
REMARK                         _______ _______ _______ _____ _____    ______ ____
ROOT
ATOM      1  C   UNL     1      -5.203   3.283   1.988  0.00  0.00    +0.030 A 
ATOM      2  C   UNL     1      -4.923   3.244   3.348  0.00  0.00    +0.025 A 
ATOM      3  C   UNL     1      -3.779   2.621   3.801  0.00  0.00    +0.025 A 
ATOM      4  C   UNL     1      -2.899   2.028   2.905  0.00  0.00    +0.031 A 
ATOM      5  C   UNL     1      -3.189   2.059   1.537  0.00  0.00    -0.018 A 
ATOM      6  C   UNL     1      -4.330   2.688   1.087  0.00  0.00    +0.029 A 
ATOM      7  C   UNL     1      -2.234   1.399   0.620  0.00  0.00    +0.049 C 
ATOM      8  C   UNL     1      -2.087   1.821  -0.796  0.00  0.00    -0.023 C 
ATOM      9  C   UNL     1      -0.827   1.629  -1.167  0.00  0.00    -0.030 C 
ATOM     10  C   UNL     1      -0.013   1.086   0.008  0.00  0.00    +0.033 C 
ATOM     11  C   UNL     1      -0.807   1.618   1.208  0.00  0.00    +0.029 C 
ATOM     12  C   UNL     1      -0.767   0.771   2.477  0.00  0.00    +0.108 C 
ATOM     13  N   UNL     1      -1.732   1.418   3.393  0.00  0.00    -0.336 N 
ATOM     14  H   UNL     1      -1.541   1.427   4.476  0.00  0.00    +0.147 HD
ENDROOT
BRANCH  12  15
ATOM     15  C   UNL     1       0.615   0.793   3.077  0.00  0.00    +0.014 A 
ATOM     16  C   UNL     1       0.920   1.694   4.079  0.00  0.00    +0.009 A 
ATOM     17  C   UNL     1       2.187   1.714   4.630  0.00  0.00    +0.001 A 
ATOM     18  C   UNL     1       3.154   0.834   4.180  0.00  0.00    +0.004 A 
ATOM     19  C   UNL     1       2.855  -0.068   3.178  0.00  0.00    +0.046 A 
ATOM     20  C   UNL     1       1.581  -0.095   2.627  0.00  0.00    +0.122 A 
BRANCH  20  21
ATOM     21  O   UNL     1       1.283  -0.985   1.645  0.00  0.00    -0.506 OA
ATOM     22  H   UNL     1       2.050  -1.689   1.289  0.00  0.00    +0.292 HD
ENDBRANCH  20  21
ENDBRANCH  12  15
BRANCH   1  23
ATOM     23  N   UNL     1      -6.361   3.921   1.527  0.00  0.00    -0.330 N 
BRANCH  23  25
ATOM     24  C   UNL     1      -6.871   6.007   2.697  0.00  0.00    +0.024 C 
ATOM     25  C   UNL     1      -7.279   4.548   2.480  0.00  0.00    +0.102 C 
ENDBRANCH  23  25
BRANCH  23  26
ATOM     26  C   UNL     1      -6.653   3.960   0.092  0.00  0.00    +0.102 C 
ATOM     27  C   UNL     1      -7.484   2.734  -0.293  0.00  0.00    +0.024 C 
ENDBRANCH  23  26
ENDBRANCH   1  23
TORSDOF 5
