REMARK  Name = ZINC41645594
REMARK  6 active torsions:
REMARK  status: ('A' for Active; 'I' for Inactive)
REMARK    1  A    between atoms: C_1  and  C_2
REMARK    2  A    between atoms: C_2  and  C_13
REMARK    3  A    between atoms: N_15  and  C_16
REMARK    4  A    between atoms: C_16  and  C_17
REMARK    5  A    between atoms: C_20  and  S_23
REMARK    6  A    between atoms: S_23  and  N_26
REMARK                            x       y       z     vdW  Elec       q    Type
REMARK                         _______ _______ _______ _____ _____    ______ ____
ROOT
ATOM      1  C   UNL     1      -1.410  -0.530   0.002  0.00  0.00    +0.238 C 
ATOM      2  O   UNL     1      -1.886  -0.991  -1.014  0.00  0.00    -0.274 OA
ATOM      3  N   UNL     1      -2.145  -0.488   1.132  0.00  0.00    -0.310 N 
ATOM      4  H   UNL     1      -1.764  -0.119   1.944  0.00  0.00    +0.149 HD
ENDROOT
BRANCH   1   6
ATOM      5  C   UNL     1      -0.019   1.526   0.010  0.00  0.00    +0.043 C 
ATOM      6  C   UNL     1       0.002  -0.004   0.002  0.00  0.00    +0.170 C 
ATOM      7  C   UNL     1       0.729  -0.494  -1.223  0.00  0.00    +0.242 C 
ATOM      8  O   UNL     1       0.073  -0.838  -2.184  0.00  0.00    -0.273 OA
ATOM      9  N   UNL     1       2.054  -0.567  -1.303  0.00  0.00    -0.283 N 
ATOM     10  C   UNL     1       2.962  -0.331  -0.276  0.00  0.00    +0.047 A 
ATOM     11  C   UNL     1       4.299  -0.110  -0.589  0.00  0.00    +0.024 A 
ATOM     12  C   UNL     1       5.218   0.136   0.411  0.00  0.00    +0.002 A 
ATOM     13  C   UNL     1       4.821   0.166   1.736  0.00  0.00    +0.001 A 
ATOM     14  C   UNL     1       3.495  -0.055   2.063  0.00  0.00    +0.016 A 
ATOM     15  C   UNL     1       2.571  -0.307   1.063  0.00  0.00    +0.031 A 
ATOM     16  S   UNL     1       0.881  -0.612   1.474  0.00  0.00    -0.098 S 
ATOM     17  H   UNL     1       2.425  -0.810  -2.166  0.00  0.00    +0.155 HD
ENDBRANCH   1   6
BRANCH   3  18
ATOM     18  C   UNL     1      -3.518  -0.999   1.132  0.00  0.00    +0.139 C 
BRANCH  18  19
ATOM     19  C   UNL     1      -4.113  -0.837   2.507  0.00  0.00    -0.030 A 
ATOM     20  C   UNL     1      -3.978  -1.846   3.442  0.00  0.00    +0.007 A 
ATOM     21  C   UNL     1      -4.524  -1.697   4.703  0.00  0.00    +0.029 A 
ATOM     22  C   UNL     1      -5.206  -0.540   5.029  0.00  0.00    +0.105 A 
ATOM     23  C   UNL     1      -5.341   0.469   4.094  0.00  0.00    +0.029 A 
ATOM     24  C   UNL     1      -4.791   0.323   2.834  0.00  0.00    +0.007 A 
BRANCH  22  25
ATOM     25  S   UNL     1      -5.904  -0.351   6.636  0.00  0.00    +0.056 S 
ATOM     26  O   UNL     1      -6.959   0.593   6.512  0.00  0.00    -0.153 OA
ATOM     27  O   UNL     1      -6.110  -1.661   7.146  0.00  0.00    -0.153 OA
BRANCH  25  28
ATOM     28  N   UNL     1      -4.749   0.353   7.592  0.00  0.00    -0.204 NA
ATOM     29  H   UNL     1      -5.012   0.925   8.329  0.00  0.00    +0.144 HD
ATOM     30  H   UNL     1      -3.809   0.193   7.414  0.00  0.00    +0.144 HD
ENDBRANCH  25  28
ENDBRANCH  22  25
ENDBRANCH  18  19
ENDBRANCH   3  18
TORSDOF 5
