REMARK  Name = ZINC67178395
REMARK  7 active torsions:
REMARK  status: ('A' for Active; 'I' for Inactive)
REMARK    1  A    between atoms: C_1  and  C_2
REMARK    2  A    between atoms: C_4  and  C_10
REMARK    3  A    between atoms: C_5  and  O_9
REMARK    4  A    between atoms: C_19  and  C_21
REMARK    5  A    between atoms: C_21  and  C_22
REMARK    6  A    between atoms: C_21  and  C_23
REMARK    7  A    between atoms: C_21  and  C_24
REMARK                            x       y       z     vdW  Elec       q    Type
REMARK                         _______ _______ _______ _____ _____    ______ ____
ROOT
ATOM      1  C   UNL     1      -0.811  -2.963  -2.965  0.00  0.00    +0.250 C 
ATOM      2  O   UNL     1      -0.835  -4.174  -3.071  0.00  0.00    -0.270 OA
ATOM      3  N   UNL     1      -0.746  -2.191  -4.068  0.00  0.00    -0.296 N 
ATOM      4  C   UNL     1      -0.827  -2.751  -5.371  0.00  0.00    +0.109 C 
ATOM      5  C   UNL     1       0.527  -3.297  -5.931  0.00  0.00    +0.038 C 
ATOM      6  C   UNL     1       1.652  -2.314  -5.468  0.00  0.00    +0.109 C 
ATOM      7  N   UNL     1       1.280  -0.943  -5.477  0.00  0.00    -0.299 N 
ATOM      8  C   UNL     1       0.812  -0.361  -4.193  0.00  0.00    +0.126 C 
ATOM      9  C   UNL     1      -0.591  -0.716  -3.974  0.00  0.00    +0.127 C 
ATOM     10  C   UNL     1       1.351  -0.202  -6.601  0.00  0.00    +0.221 C 
ATOM     11  O   UNL     1       1.641  -0.727  -7.655  0.00  0.00    -0.275 OA
ENDROOT
BRANCH   1  15
ATOM     12  C   UNL     1      -2.874   0.274   0.218  0.00  0.00    +0.044 C 
ATOM     13  C   UNL     1      -1.844  -0.781  -0.091  0.00  0.00    -0.048 A 
ATOM     14  C   UNL     1      -1.808  -1.360  -1.341  0.00  0.00    +0.020 A 
ATOM     15  C   UNL     1      -0.854  -2.339  -1.629  0.00  0.00    +0.080 A 
ATOM     16  C   UNL     1       0.062  -2.725  -0.641  0.00  0.00    +0.143 A 
ATOM     17  C   UNL     1       0.012  -2.131   0.612  0.00  0.00    +0.060 A 
ATOM     18  C   UNL     1      -0.933  -1.161   0.881  0.00  0.00    +0.022 A 
ATOM     19 BR   UNL     1       1.244  -2.647   1.951  0.00  0.00    -0.046 Br
BRANCH  16  20
ATOM     20  O   UNL     1       0.993  -3.675  -0.909  0.00  0.00    -0.505 OA
ATOM     21  H   UNL     1       1.823  -3.324  -1.261  0.00  0.00    +0.292 HD
ENDBRANCH  16  20
ENDBRANCH   1  15
BRANCH  10  22
ATOM     22  C   UNL     1       1.070   1.277  -6.548  0.00  0.00    +0.039 C 
ATOM     23  C   UNL     1       1.186   1.870  -7.954  0.00  0.00    +0.020 C 
ATOM     24  C   UNL     1      -0.344   1.509  -6.012  0.00  0.00    +0.020 C 
ATOM     25  C   UNL     1       2.083   1.956  -5.623  0.00  0.00    +0.020 C 
ENDBRANCH  10  22
TORSDOF 3
