REMARK  Name = ZINC39686716
REMARK  9 active torsions:
REMARK  status: ('A' for Active; 'I' for Inactive)
REMARK    1  A    between atoms: C_1  and  C_2
REMARK    2  A    between atoms: C_2  and  C_4
REMARK    3  A    between atoms: C_2  and  N_13
REMARK    4  A    between atoms: C_4  and  C_5
REMARK    5  A    between atoms: C_10  and  O_11
REMARK    6  A    between atoms: O_11  and  C_12
REMARK    7  A    between atoms: C_14  and  C_16
REMARK    8  A    between atoms: C_27  and  C_29
REMARK    9  A    between atoms: C_32  and  C_34
REMARK                            x       y       z     vdW  Elec       q    Type
REMARK                         _______ _______ _______ _____ _____    ______ ____
ROOT
ATOM      1  C   UNL     1       0.780  -1.133   3.576  0.00  0.00    +0.100 C 
ATOM      2  C   UNL     1       1.973  -0.207   3.907  0.00  0.00    +0.121 C 
ATOM      3  N   UNL     1       1.444   0.739   4.916  0.00  0.00    -0.294 N 
ATOM      4  C   UNL     1       0.577  -0.093   5.784  0.00  0.00    +0.115 C 
ATOM      5  C   UNL     1      -0.132  -1.058   4.812  0.00  0.00    -0.004 C 
ATOM      6  C   UNL     1      -0.275  -2.438   5.448  0.00  0.00    -0.010 C 
ATOM      7  C   UNL     1      -1.232  -2.349   6.640  0.00  0.00    -0.082 C 
ATOM      8  N   UNL     1      -2.539  -1.860   6.184  0.00  0.00    +0.379 N 
ATOM      9  C   UNL     1      -2.409  -0.496   5.660  0.00  0.00    -0.082 C 
ATOM     10  C   UNL     1      -1.501  -0.506   4.426  0.00  0.00    -0.010 C 
ATOM     11  C   UNL     1       1.694   2.059   5.022  0.00  0.00    +0.282 C 
ATOM     12  O   UNL     1       1.179   2.707   5.915  0.00  0.00    -0.267 OA
ATOM     13  H   UNL     1      -2.889  -2.466   5.458  0.00  0.00    -0.086 HD
ATOM     14  H   UNL     1      -3.186  -1.861   6.959  0.00  0.00    -0.086 HD
ENDROOT
BRANCH  11  15
ATOM     15  C   UNL     1       2.586   2.715   4.062  0.00  0.00    +0.190 A 
ATOM     16  C   UNL     1       2.931   4.049   4.059  0.00  0.00    +0.055 A 
ATOM     17  C   UNL     1       3.796   4.239   2.977  0.00  0.00    +0.050 A 
ATOM     18  C   UNL     1       3.947   3.028   2.366  0.00  0.00    +0.136 A 
ATOM     19  O   UNL     1       3.219   2.116   3.031  0.00  0.00    -0.450 OA
BRANCH  18  20
ATOM     20  C   UNL     1       4.779   2.762   1.174  0.00  0.00    +0.017 A 
ATOM     21  C   UNL     1       5.501   3.798   0.578  0.00  0.00    +0.011 A 
ATOM     22  C   UNL     1       6.276   3.543  -0.535  0.00  0.00    +0.001 A 
ATOM     23  C   UNL     1       6.338   2.264  -1.060  0.00  0.00    +0.000 A 
ATOM     24  C   UNL     1       5.624   1.233  -0.474  0.00  0.00    +0.001 A 
ATOM     25  C   UNL     1       4.850   1.473   0.642  0.00  0.00    +0.011 A 
ENDBRANCH  18  20
ENDBRANCH  11  15
BRANCH   1  27
ATOM     26  N   UNL     1      -0.569  -1.506   1.537  0.00  0.00    -0.312 N 
ATOM     27  C   UNL     1       0.051  -0.633   2.355  0.00  0.00    +0.218 C 
ATOM     28  O   UNL     1       0.022   0.554   2.110  0.00  0.00    -0.275 OA
ATOM     29  H   UNL     1      -0.545  -2.456   1.733  0.00  0.00    +0.149 HD
BRANCH  26  31
ATOM     30  C   UNL     1      -0.287  -0.865  -0.806  0.00  0.00    +0.028 C 
ATOM     31  C   UNL     1      -1.277  -1.021   0.350  0.00  0.00    +0.074 C 
BRANCH  31  32
ATOM     32  C   UNL     1      -2.364  -2.025  -0.041  0.00  0.00    +0.060 C 
BRANCH  32  33
ATOM     33  C   UNL     1      -3.405  -2.087   1.047  0.00  0.00    -0.004 A 
ATOM     34  C   UNL     1      -3.320  -3.055   2.029  0.00  0.00    +0.007 A 
ATOM     35  C   UNL     1      -4.275  -3.113   3.027  0.00  0.00    +0.000 A 
ATOM     36  C   UNL     1      -5.317  -2.203   3.045  0.00  0.00    +0.004 A 
ATOM     37  C   UNL     1      -5.405  -1.234   2.065  0.00  0.00    +0.046 A 
ATOM     38  C   UNL     1      -4.445  -1.170   1.065  0.00  0.00    +0.123 A 
BRANCH  38  39
ATOM     39  O   UNL     1      -4.527  -0.214   0.103  0.00  0.00    -0.495 OA
ATOM     40  C   UNL     1      -5.625   0.697   0.185  0.00  0.00    +0.277 C 
ENDBRANCH  38  39
ENDBRANCH  32  33
ENDBRANCH  31  32
ENDBRANCH  26  31
ENDBRANCH   1  27
TORSDOF 7
