REMARK  Name = ZINC21108812
REMARK  7 active torsions:
REMARK  status: ('A' for Active; 'I' for Inactive)
REMARK    1  A    between atoms: C_1  and  C_2
REMARK    2  A    between atoms: C_15  and  C_17
REMARK    3  A    between atoms: C_17  and  S_18
REMARK    4  A    between atoms: S_18  and  C_19
REMARK    5  A    between atoms: C_22  and  C_25
REMARK    6  A    between atoms: N_23  and  N_24
REMARK    7  A    between atoms: C_25  and  C_26
REMARK                            x       y       z     vdW  Elec       q    Type
REMARK                         _______ _______ _______ _____ _____    ______ ____
ROOT
ATOM      1  C   UNL     1       3.115   3.598   0.762  0.00  0.00    +0.173 C 
ENDROOT
BRANCH   1  15
ATOM      2  C   UNL     1      -0.761   2.031  -1.228  0.00  0.00    +0.029 C 
ATOM      3  C   UNL     1      -0.019   1.526   0.010  0.00  0.00    +0.087 C 
ATOM      4  C   UNL     1       0.002  -0.004   0.002  0.00  0.00    +0.118 C 
ATOM      5  C   UNL     1       1.040  -0.514   0.967  0.00  0.00    +0.219 C 
ATOM      6  O   UNL     1       0.694  -0.981   2.031  0.00  0.00    -0.275 OA
ATOM      7  N   UNL     1       2.354  -0.453   0.655  0.00  0.00    -0.284 N 
ATOM      8  C   UNL     1       2.777   0.163  -0.528  0.00  0.00    +0.055 A 
ATOM      9  C   UNL     1       3.669  -0.467  -1.379  0.00  0.00    +0.025 A 
ATOM     10  C   UNL     1       4.092   0.175  -2.529  0.00  0.00    +0.002 A 
ATOM     11  C   UNL     1       3.628   1.443  -2.830  0.00  0.00    +0.002 A 
ATOM     12  C   UNL     1       2.730   2.074  -1.989  0.00  0.00    +0.025 A 
ATOM     13  C   UNL     1       2.292   1.433  -0.842  0.00  0.00    +0.058 A 
ATOM     14  N   UNL     1       1.351   2.041   0.000  0.00  0.00    -0.266 N 
ATOM     15  C   UNL     1       1.701   3.079   0.784  0.00  0.00    +0.230 C 
ATOM     16  O   UNL     1       0.876   3.597   1.508  0.00  0.00    -0.274 OA
ATOM     17  H   UNL     1       3.101  -0.891   1.334  0.00  0.00    +0.155 HD
ENDBRANCH   1  15
BRANCH   1  18
ATOM     18  S   UNL     1       3.268   4.985   1.915  0.00  0.00    -0.075 S 
BRANCH  18  19
ATOM     19  C   UNL     1       4.970   5.383   1.692  0.00  0.00    +0.209 A 
ATOM     20  N   UNL     1       5.815   4.776   0.891  0.00  0.00    -0.121 NA
ATOM     21  N   UNL     1       6.972   5.328   0.978  0.00  0.00    -0.132 NA
ATOM     22  C   UNL     1       6.938   6.306   1.837  0.00  0.00    +0.155 A 
ATOM     23  N   UNL     1       5.661   6.377   2.323  0.00  0.00    -0.228 N 
BRANCH  23  24
ATOM     24  N   UNL     1       5.178   7.258   3.248  0.00  0.00    -0.295 N 
ATOM     25  H   UNL     1       5.843   8.017   3.685  0.00  0.00    +0.163 HD
ATOM     26  H   UNL     1       4.123   7.209   3.556  0.00  0.00    +0.163 HD
ENDBRANCH  23  24
BRANCH  22  27
ATOM     27  C   UNL     1       8.091   7.196   2.225  0.00  0.00    +0.116 C 
BRANCH  27  28
ATOM     28  C   UNL     1       8.822   6.590   3.395  0.00  0.00    -0.005 A 
ATOM     29  C   UNL     1       8.517   6.990   4.683  0.00  0.00    +0.007 A 
ATOM     30  C   UNL     1       9.183   6.430   5.757  0.00  0.00    +0.000 A 
ATOM     31  C   UNL     1      10.163   5.478   5.544  0.00  0.00    +0.003 A 
ATOM     32  C   UNL     1      10.473   5.081   4.257  0.00  0.00    +0.038 A 
ATOM     33  C   UNL     1       9.802   5.637   3.181  0.00  0.00    +0.127 A 
ATOM     34  F   UNL     1      10.105   5.249   1.923  0.00  0.00    -0.205 F 
ENDBRANCH  27  28
ENDBRANCH  22  27
ENDBRANCH  18  19
ENDBRANCH   1  18
TORSDOF 6
