REMARK  Name = ZINC06511255
REMARK  17 active torsions:
REMARK  status: ('A' for Active; 'I' for Inactive)
REMARK    1  A    between atoms: C_1  and  C_2
REMARK    2  A    between atoms: C_2  and  N_69
REMARK    3  A    between atoms: C_3  and  C_4
REMARK    4  A    between atoms: C_3  and  N_69
REMARK    5  A    between atoms: C_5  and  C_6
REMARK    6  A    between atoms: C_5  and  N_69
REMARK    7  A    between atoms: C_6  and  C_7
REMARK    8  A    between atoms: C_7  and  N_8
REMARK    9  A    between atoms: C_11  and  C_14
REMARK   10  A    between atoms: C_16  and  O_22
REMARK   11  A    between atoms: C_19  and  O_20
REMARK   12  A    between atoms: O_20  and  C_21
REMARK   13  A    between atoms: O_22  and  C_23
REMARK   14  A    between atoms: C_24  and  C_26
REMARK   15  A    between atoms: C_26  and  O_27
REMARK   16  A    between atoms: O_27  and  C_28
REMARK   17  A    between atoms: C_31  and  N_34
REMARK                            x       y       z     vdW  Elec       q    Type
REMARK                         _______ _______ _______ _____ _____    ______ ____
ROOT
ATOM      1  N   UNL     1       3.202   6.529   0.401  0.00  0.00    -0.248 N 
ATOM      2  C   UNL     1       3.065   7.911   0.338  0.00  0.00    +0.168 A 
ATOM      3  N   UNL     1       1.980   8.649   0.482  0.00  0.00    -0.224 NA
ATOM      4  C   UNL     1       2.030   9.970   0.391  0.00  0.00    +0.084 A 
ATOM      5  C   UNL     1       3.228  10.580   0.142  0.00  0.00    +0.077 A 
ATOM      6  S   UNL     1       4.310   9.159   0.048  0.00  0.00    -0.060 S 
ATOM      7  C   UNL     1       2.126   5.755   0.640  0.00  0.00    +0.259 C 
ATOM      8  O   UNL     1       1.036   6.264   0.799  0.00  0.00    -0.271 OA
ENDROOT
BRANCH   4   9
ATOM      9  C   UNL     1       0.798  10.779   0.556  0.00  0.00    +0.046 A 
ATOM     10  C   UNL     1       0.805  11.904   1.377  0.00  0.00    +0.059 A 
ATOM     11  C   UNL     1      -0.347  12.656   1.528  0.00  0.00    +0.121 A 
ATOM     12  C   UNL     1      -1.509  12.290   0.861  0.00  0.00    +0.049 A 
ATOM     13  C   UNL     1      -1.522  11.175   0.044  0.00  0.00    +0.050 A 
ATOM     14  C   UNL     1      -0.373  10.419  -0.117  0.00  0.00    +0.129 A 
BRANCH  14  15
ATOM     15  O   UNL     1      -0.386   9.325  -0.924  0.00  0.00    -0.494 OA
ATOM     16  C   UNL     1      -1.617   9.017  -1.580  0.00  0.00    +0.277 C 
ENDBRANCH  14  15
BRANCH  11  17
ATOM     17  O   UNL     1      -0.342  13.754   2.329  0.00  0.00    -0.495 OA
ATOM     18  C   UNL     1      -1.566  14.483   2.439  0.00  0.00    +0.277 C 
ENDBRANCH  11  17
ENDBRANCH   4   9
BRANCH   1  19
ATOM     19  C   UNL     1       4.518   5.915   0.208  0.00  0.00    +0.114 C 
BRANCH  19  20
ATOM     20  C   UNL     1       4.727   5.612  -1.277  0.00  0.00    +0.001 C 
BRANCH  20  21
ATOM     21  C   UNL     1       6.101   4.970  -1.478  0.00  0.00    -0.077 C 
BRANCH  21  22
ATOM     22  N   UNL     1       6.227   4.554  -2.891  0.00  0.00    +0.379 N 
ATOM     23  H   UNL     1       5.343   4.128  -3.193  0.00  0.00    -0.082 HD
BRANCH  22  25
ATOM     24  C   UNL     1       6.412   5.312  -5.209  0.00  0.00    -0.017 C 
ATOM     25  C   UNL     1       6.508   5.730  -3.741  0.00  0.00    -0.082 C 
ENDBRANCH  22  25
BRANCH  22  26
ATOM     26  C   UNL     1       7.311   3.559  -3.030  0.00  0.00    -0.082 C 
ATOM     27  C   UNL     1       6.800   2.204  -2.537  0.00  0.00    -0.017 C 
ENDBRANCH  22  26
ENDBRANCH  21  22
ENDBRANCH  20  21
ENDBRANCH  19  20
ENDBRANCH   1  19
BRANCH   7  28
ATOM     28  C   UNL     1       2.275   4.257   0.708  0.00  0.00    +0.325 C 
BRANCH  28  29
ATOM     29  O   UNL     1       1.002   3.663   0.970  0.00  0.00    -0.483 OA
BRANCH  29  30
ATOM     30  C   UNL     1       0.961   2.308   1.062  0.00  0.00    +0.121 A 
ATOM     31  C   UNL     1      -0.242   1.664   1.315  0.00  0.00    +0.048 A 
ATOM     32  C   UNL     1      -0.281   0.287   1.409  0.00  0.00    +0.036 A 
ATOM     33  C   UNL     1       0.878  -0.451   1.252  0.00  0.00    +0.126 A 
ATOM     34  C   UNL     1       2.078   0.188   1.001  0.00  0.00    +0.036 A 
ATOM     35  C   UNL     1       2.123   1.565   0.906  0.00  0.00    +0.048 A 
BRANCH  33  36
ATOM     36  N   UNL     1       0.834  -1.927   1.354  0.00  0.00    +0.056 N 
ATOM     37  O   UNL     1      -0.223  -2.491   1.576  0.00  0.00    -0.126 OA
ATOM     38  O   UNL     1       1.854  -2.578   1.216  0.00  0.00    -0.126 OA
ENDBRANCH  33  36
ENDBRANCH  29  30
ENDBRANCH  28  29
ENDBRANCH   7  28
TORSDOF 13
