REMARK  Name = ZINC41551572
REMARK  8 active torsions:
REMARK  status: ('A' for Active; 'I' for Inactive)
REMARK    1  A    between atoms: C_1  and  C_2
REMARK    2  A    between atoms: C_9  and  N_14
REMARK    3  A    between atoms: C_10  and  C_11
REMARK    4  A    between atoms: C_15  and  C_17
REMARK    5  A    between atoms: C_26  and  O_28
REMARK    6  A    between atoms: O_28  and  C_29
REMARK    7  A    between atoms: C_29  and  C_30
REMARK    8  A    between atoms: C_29  and  C_31
REMARK                            x       y       z     vdW  Elec       q    Type
REMARK                         _______ _______ _______ _____ _____    ______ ____
ROOT
ATOM      1  N   UNL     1       0.015  -5.666   3.239  0.00  0.00    -0.275 N 
ATOM      2  C   UNL     1       1.123  -5.959   3.949  0.00  0.00    +0.250 C 
ATOM      3  O   UNL     1       1.981  -5.115   4.112  0.00  0.00    -0.270 OA
ATOM      4  H   UNL     1      -0.635  -6.360   3.047  0.00  0.00    +0.156 HD
ENDROOT
BRANCH   2   5
ATOM      5  C   UNL     1       1.293  -7.311   4.533  0.00  0.00    +0.054 A 
ATOM      6  C   UNL     1       0.401  -8.312   4.263  0.00  0.00    +0.105 A 
ATOM      7  C   UNL     1       0.592  -9.593   4.835  0.00  0.00    +0.338 A 
ATOM      8  O   UNL     1      -0.207 -10.478   4.589  0.00  0.00    -0.245 OA
ATOM      9  O   UNL     1       1.631  -9.856   5.642  0.00  0.00    -0.422 OA
ATOM     10  C   UNL     1       2.548  -8.914   5.949  0.00  0.00    +0.143 A 
ATOM     11  C   UNL     1       2.431  -7.618   5.415  0.00  0.00    +0.030 A 
ATOM     12  C   UNL     1       3.382  -6.643   5.727  0.00  0.00    +0.016 A 
ATOM     13  C   UNL     1       4.428  -6.952   6.548  0.00  0.00    +0.046 A 
ATOM     14  C   UNL     1       4.554  -8.235   7.076  0.00  0.00    +0.124 A 
ATOM     15  C   UNL     1       3.614  -9.211   6.786  0.00  0.00    +0.092 A 
BRANCH  14  16
ATOM     16  O   UNL     1       5.600  -8.529   7.890  0.00  0.00    -0.489 OA
BRANCH  16  17
ATOM     17  C   UNL     1       5.737  -9.889   8.305  0.00  0.00    +0.167 C 
ATOM     18  C   UNL     1       7.202 -10.174   8.642  0.00  0.00    +0.051 C 
ATOM     19  C   UNL     1       4.872 -10.135   9.543  0.00  0.00    +0.051 C 
ENDBRANCH  16  17
ENDBRANCH  14  16
ENDBRANCH   2   5
BRANCH   1  27
ATOM     20  C   UNL     1      -0.700   1.696   0.790  0.00  0.00    +0.008 C 
ATOM     21  C   UNL     1      -0.767   0.168   0.818  0.00  0.00    -0.009 C 
ATOM     22  C   UNL     1      -2.205  -0.278   1.099  0.00  0.00    +0.008 C 
ATOM     23  C   UNL     1      -2.333  -1.788   0.885  0.00  0.00    +0.037 C 
ATOM     24  C   UNL     1      -1.247  -2.488   1.689  0.00  0.00    -0.023 A 
ATOM     25  C   UNL     1      -0.162  -1.818   2.135  0.00  0.00    -0.004 A 
ATOM     26  S   UNL     1       0.791  -3.033   2.998  0.00  0.00    -0.077 S 
ATOM     27  C   UNL     1      -0.194  -4.376   2.784  0.00  0.00    +0.085 A 
ATOM     28  C   UNL     1      -1.265  -3.895   2.045  0.00  0.00    +0.068 A 
ATOM     29  C   UNL     1       0.148  -0.367   1.929  0.00  0.00    +0.046 C 
BRANCH  28  30
ATOM     30  C   UNL     1      -2.369  -4.772   1.641  0.00  0.00    +0.244 C 
ATOM     31  O   UNL     1      -2.316  -5.368   0.581  0.00  0.00    -0.270 OA
ATOM     32  N   UNL     1      -3.442  -4.918   2.443  0.00  0.00    -0.325 N 
ATOM     33  H   UNL     1      -3.484  -4.442   3.288  0.00  0.00    +0.145 HD
ATOM     34  H   UNL     1      -4.172  -5.498   2.176  0.00  0.00    +0.145 HD
ENDBRANCH  28  30
ENDBRANCH   1  27
TORSDOF 5
