REMARK  Name = ZINC20343894
REMARK  3 active torsions:
REMARK  status: ('A' for Active; 'I' for Inactive)
REMARK    1  A    between atoms: C_1  and  C_2
REMARK    2  A    between atoms: N_9  and  C_10
REMARK    3  A    between atoms: N_18  and  C_19
REMARK                            x       y       z     vdW  Elec       q    Type
REMARK                         _______ _______ _______ _____ _____    ______ ____
ROOT
ATOM      1  C   UNL     1      -3.243  -1.278  -3.431  0.00  0.00    +0.053 C 
ATOM      2  C   UNL     1      -3.123   0.143  -2.944  0.00  0.00    +0.007 A 
ATOM      3  C   UNL     1      -2.515   1.188  -3.550  0.00  0.00    +0.058 A 
ATOM      4  C   UNL     1      -2.550   2.412  -2.887  0.00  0.00    +0.140 A 
ATOM      5  N   UNL     1      -1.991   3.491  -3.397  0.00  0.00    -0.283 NA
ATOM      6  N   UNL     1      -3.193   2.439  -1.670  0.00  0.00    -0.237 N 
ATOM      7  S   UNL     1      -3.732   0.829  -1.476  0.00  0.00    -0.008 S 
ATOM      8  C   UNL     1      -3.366   3.506  -0.818  0.00  0.00    +0.186 C 
ATOM      9  N   UNL     1      -2.412   3.839   0.019  0.00  0.00    -0.286 N 
ATOM     10  N   UNL     1      -4.538   4.221  -0.843  0.00  0.00    -0.355 N 
ATOM     11  H   UNL     1      -1.482   3.430  -4.221  0.00  0.00    +0.188 HD
ATOM     12  H   UNL     1      -5.338   3.942  -1.544  0.00  0.00    +0.163 HD
ATOM     13  H   UNL     1      -2.567   4.663   0.731  0.00  0.00    +0.155 HD
ENDROOT
BRANCH   9  14
ATOM     14  C   UNL     1      -1.221   3.162   0.004  0.00  0.00    +0.035 A 
ATOM     15  C   UNL     1      -1.199   1.780   0.205  0.00  0.00    +0.025 A 
ATOM     16  C   UNL     1       0.003   1.103   0.195  0.00  0.00    +0.023 A 
ATOM     17  C   UNL     1       1.186   1.790  -0.023  0.00  0.00    +0.059 A 
ATOM     18  C   UNL     1       1.170   3.160  -0.228  0.00  0.00    +0.061 A 
ATOM     19  C   UNL     1      -0.026   3.849  -0.215  0.00  0.00    +0.044 A 
ATOM     20 CL   UNL     1       2.658   4.012  -0.502  0.00  0.00    -0.082 Cl
ATOM     21 CL   UNL     1       2.694   0.930  -0.040  0.00  0.00    -0.082 Cl
ENDBRANCH   9  14
BRANCH  10  22
ATOM     22  C   UNL     1      -4.722   5.357   0.064  0.00  0.00    +0.082 C 
ATOM     23  C   UNL     1      -5.231   4.853   1.416  0.00  0.00    +0.024 C 
ATOM     24  C   UNL     1      -5.048   5.947   2.470  0.00  0.00    +0.002 C 
ATOM     25  C   UNL     1      -3.665   6.582   2.312  0.00  0.00    +0.000 C 
ATOM     26  C   UNL     1      -3.819   8.033   1.849  0.00  0.00    +0.000 C 
ATOM     27  C   UNL     1      -4.177   8.057   0.362  0.00  0.00    +0.000 C 
ATOM     28  C   UNL     1      -5.648   7.675   0.184  0.00  0.00    +0.002 C 
ATOM     29  C   UNL     1      -5.742   6.328  -0.535  0.00  0.00    +0.024 C 
ENDBRANCH  10  22
TORSDOF 2
