REMARK  Name = ZINC15228652
REMARK  12 active torsions:
REMARK  status: ('A' for Active; 'I' for Inactive)
REMARK    1  A    between atoms: C_1  and  C_2
REMARK    2  A    between atoms: C_2  and  N_3
REMARK    3  A    between atoms: C_4  and  C_25
REMARK    4  A    between atoms: C_7  and  S_8
REMARK    5  A    between atoms: S_8  and  C_9
REMARK    6  A    between atoms: C_9  and  C_10
REMARK    7  A    between atoms: C_15  and  C_18
REMARK    8  A    between atoms: C_21  and  C_24
REMARK    9  A    between atoms: C_25  and  C_27
REMARK   10  A    between atoms: C_25  and  N_28
REMARK   11  A    between atoms: C_29  and  C_31
REMARK   12  A    between atoms: C_35  and  C_37
REMARK                            x       y       z     vdW  Elec       q    Type
REMARK                         _______ _______ _______ _____ _____    ______ ____
ROOT
ATOM      1  N   UNL     1       2.477   8.999   1.542  0.00  0.00    -0.305 N 
ATOM      2  C   UNL     1       2.354   7.994   0.623  0.00  0.00    +0.154 A 
ATOM      3  N   UNL     1       3.555   7.570   0.349  0.00  0.00    -0.132 NA
ATOM      4  N   UNL     1       4.422   8.230   1.031  0.00  0.00    -0.122 NA
ATOM      5  C   UNL     1       3.816   9.118   1.783  0.00  0.00    +0.192 A 
ENDROOT
BRANCH   1   7
ATOM      6  C   UNL     1       0.918   9.092   3.424  0.00  0.00    +0.027 C 
ATOM      7  C   UNL     1       1.397   9.783   2.146  0.00  0.00    +0.122 C 
ENDBRANCH   1   7
BRANCH   2   8
ATOM      8  C   UNL     1       1.068   7.478   0.032  0.00  0.00    +0.138 C 
ATOM      9  C   UNL     1       0.922   7.994  -1.401  0.00  0.00    +0.036 C 
BRANCH   8  10
ATOM     10  N   UNL     1       1.088   6.013   0.024  0.00  0.00    -0.302 N 
ATOM     11  C   UNL     1      -0.070   5.323   0.030  0.00  0.00    +0.245 C 
ATOM     12  O   UNL     1      -1.131   5.916   0.043  0.00  0.00    -0.270 OA
ATOM     13  H   UNL     1       1.934   5.539   0.013  0.00  0.00    +0.150 HD
BRANCH  11  14
ATOM     14  C   UNL     1      -0.050   3.845   0.022  0.00  0.00    +0.037 A 
ATOM     15  C   UNL     1       1.166   3.160   0.007  0.00  0.00    +0.013 A 
ATOM     16  C   UNL     1       1.178   1.781   0.000  0.00  0.00    +0.001 A 
ATOM     17  C   UNL     1      -0.013   1.076   0.008  0.00  0.00    +0.003 A 
ATOM     18  C   UNL     1      -1.222   1.748   0.017  0.00  0.00    -0.050 A 
ATOM     19  C   UNL     1      -1.247   3.128   0.030  0.00  0.00    +0.016 A 
ATOM     20  C   UNL     1      -2.513   0.972   0.020  0.00  0.00    +0.044 C 
ENDBRANCH  11  14
ENDBRANCH   8  10
ENDBRANCH   2   8
BRANCH   5  21
ATOM     21  S   UNL     1       4.585  10.254   2.889  0.00  0.00    -0.077 S 
BRANCH  21  22
ATOM     22  C   UNL     1       6.321   9.806   2.644  0.00  0.00    +0.173 C 
BRANCH  22  23
ATOM     23  C   UNL     1       7.192  10.673   3.515  0.00  0.00    +0.229 C 
ATOM     24  O   UNL     1       6.688  11.512   4.232  0.00  0.00    -0.275 OA
ATOM     25  N   UNL     1       8.530  10.517   3.499  0.00  0.00    -0.264 N 
ATOM     26  C   UNL     1       9.334  11.317   4.302  0.00  0.00    +0.165 A 
ATOM     27  N   UNL     1      10.647  11.321   4.429  0.00  0.00    -0.225 NA
ATOM     28  C   UNL     1      11.256  12.162   5.251  0.00  0.00    +0.080 A 
ATOM     29  C   UNL     1      10.510  13.044   5.982  0.00  0.00    +0.076 A 
ATOM     30  S   UNL     1       8.862  12.619   5.432  0.00  0.00    -0.060 S 
ATOM     31  H   UNL     1       8.933   9.846   2.926  0.00  0.00    +0.157 HD
BRANCH  28  32
ATOM     32  C   UNL     1      12.734  12.149   5.377  0.00  0.00    +0.001 A 
ATOM     33  C   UNL     1      13.371  13.040   6.239  0.00  0.00    +0.010 A 
ATOM     34  C   UNL     1      14.746  13.019   6.356  0.00  0.00    +0.004 A 
ATOM     35  C   UNL     1      15.492  12.123   5.612  0.00  0.00    -0.050 A 
ATOM     36  C   UNL     1      14.866  11.240   4.751  0.00  0.00    +0.004 A 
ATOM     37  C   UNL     1      13.491  11.248   4.630  0.00  0.00    +0.010 A 
ATOM     38  C   UNL     1      16.994  12.109   5.740  0.00  0.00    +0.044 C 
ENDBRANCH  28  32
ENDBRANCH  22  23
ENDBRANCH  21  22
ENDBRANCH   5  21
TORSDOF 8
