REMARK  Name = ZINC35270723
REMARK  13 active torsions:
REMARK  status: ('A' for Active; 'I' for Inactive)
REMARK    1  A    between atoms: C_1  and  C_2
REMARK    2  A    between atoms: C_6  and  C_45
REMARK    3  A    between atoms: C_12  and  C_44
REMARK    4  A    between atoms: C_18  and  C_43
REMARK    5  A    between atoms: C_19  and  O_39
REMARK    6  A    between atoms: C_25  and  C_37
REMARK    7  A    between atoms: C_25  and  C_38
REMARK    8  A    between atoms: C_28  and  O_36
REMARK    9  A    between atoms: C_30  and  O_32
REMARK   10  A    between atoms: O_32  and  C_33
REMARK   11  A    between atoms: C_33  and  C_35
REMARK   12  A    between atoms: O_39  and  C_40
REMARK   13  A    between atoms: C_40  and  C_42
REMARK                            x       y       z     vdW  Elec       q    Type
REMARK                         _______ _______ _______ _____ _____    ______ ____
ROOT
ATOM      1  C   UNL     1      -0.135   1.821   0.160  0.00  0.00    +0.060 C 
ATOM      2  C   UNL     1      -0.036   0.302   0.011  0.00  0.00    +0.240 C 
ATOM      3  C   UNL     1      -1.434  -0.304  -0.007  0.00  0.00    +0.184 C 
ATOM      4  O   UNL     1      -2.193  -0.039  -0.905  0.00  0.00    -0.293 OA
ATOM      5  C   UNL     1      -1.780  -1.212   1.149  0.00  0.00    +0.064 C 
ATOM      6  C   UNL     1      -0.668  -2.248   1.246  0.00  0.00    +0.125 C 
ATOM      7  C   UNL     1       0.676  -1.597   1.234  0.00  0.00    +0.313 C 
ATOM      8  O   UNL     1       1.708  -2.230   1.310  0.00  0.00    -0.250 OA
ATOM      9  O   UNL     1       0.709  -0.244   1.105  0.00  0.00    -0.454 OA
ATOM     10  C   UNL     1      -0.903  -3.368   2.236  0.00  0.00    +0.025 C 
ATOM     11  C   UNL     1      -2.208  -3.290   2.990  0.00  0.00    +0.013 C 
ATOM     12  C   UNL     1      -3.416  -2.912   2.152  0.00  0.00    +0.036 C 
ATOM     13  C   UNL     1      -3.056  -1.986   0.996  0.00  0.00    -0.062 C 
ATOM     14  C   UNL     1      -3.846  -1.909  -0.050  0.00  0.00    +0.008 C 
ATOM     15  C   UNL     1      -2.478  -4.469   3.921  0.00  0.00    +0.018 C 
ATOM     16  C   UNL     1      -3.431  -4.058   5.026  0.00  0.00    +0.194 C 
ATOM     17  C   UNL     1      -2.790  -3.161   6.081  0.00  0.00    +0.165 C 
ATOM     18  C   UNL     1      -2.405  -4.139   7.204  0.00  0.00    +0.311 C 
ATOM     19  O   UNL     1      -2.960  -4.154   8.281  0.00  0.00    -0.251 OA
ATOM     20  O   UNL     1      -1.421  -4.935   6.864  0.00  0.00    -0.458 OA
ATOM     21  C   UNL     1      -1.317  -5.828   5.788  0.00  0.00    +0.114 C 
ATOM     22  C   UNL     1      -1.206  -5.149   4.431  0.00  0.00    +0.074 C 
ATOM     23  C   UNL     1       0.026  -4.267   4.434  0.00  0.00    +0.163 C 
ATOM     24  C   UNL     1       0.250  -3.372   3.238  0.00  0.00    +0.212 C 
ATOM     25  C   UNL     1      -2.414  -6.891   5.839  0.00  0.00    +0.056 C 
ATOM     26  C   UNL     1       0.003  -6.618   6.016  0.00  0.00    +0.056 C 
ATOM     27  C   UNL     1      -3.255  -5.541   3.123  0.00  0.00    +0.016 C 
ATOM     28  C   UNL     1      -0.821  -4.658   1.409  0.00  0.00    +0.016 C 
ATOM     29  C   UNL     1      -1.862  -0.343   2.408  0.00  0.00    +0.025 C 
ENDROOT
BRANCH  23  30
ATOM     30  O   UNL     1       0.087  -3.467   5.620  0.00  0.00    -0.388 OA
ATOM     31  H   UNL     1       0.859  -2.887   5.664  0.00  0.00    +0.210 HD
ENDBRANCH  23  30
BRANCH  24  32
ATOM     32  O   UNL     1       0.461  -2.039   3.724  0.00  0.00    -0.458 OA
BRANCH  32  33
ATOM     33  C   UNL     1       1.713  -1.712   4.083  0.00  0.00    +0.304 C 
ATOM     34  O   UNL     1       2.600  -2.527   3.989  0.00  0.00    -0.251 OA
ATOM     35  C   UNL     1       2.011  -0.330   4.603  0.00  0.00    +0.136 C 
ENDBRANCH  32  33
ENDBRANCH  24  32
BRANCH  16  36
ATOM     36  O   UNL     1      -4.573  -3.391   4.480  0.00  0.00    -0.460 OA
BRANCH  36  37
ATOM     37  C   UNL     1      -5.729  -3.512   5.153  0.00  0.00    +0.304 C 
ATOM     38  O   UNL     1      -5.770  -4.162   6.170  0.00  0.00    -0.251 OA
ATOM     39  C   UNL     1      -6.974  -2.837   4.638  0.00  0.00    +0.136 C 
ENDBRANCH  36  37
ENDBRANCH  16  36
TORSDOF 5
