REMARK  Name = ZINC60427162
REMARK  4 active torsions:
REMARK  status: ('A' for Active; 'I' for Inactive)
REMARK    1  A    between atoms: N_9  and  C_12
REMARK    2  A    between atoms: C_12  and  C_13
REMARK    3  A    between atoms: C_16  and  O_19
REMARK    4  A    between atoms: O_19  and  C_20
REMARK                            x       y       z     vdW  Elec       q    Type
REMARK                         _______ _______ _______ _____ _____    ______ ____
ROOT
ATOM      1  C   UNL     1      -0.017   1.373   0.010  0.00  0.00    +0.001 A 
ATOM      2  C   UNL     1       1.170   2.095   0.002  0.00  0.00    +0.002 A 
ATOM      3  C   UNL     1       2.386   1.452  -0.013  0.00  0.00    +0.030 A 
ATOM      4  C   UNL     1       2.432   0.055  -0.021  0.00  0.00    +0.100 A 
ATOM      5  C   UNL     1       1.224  -0.675  -0.013  0.00  0.00    +0.068 A 
ATOM      6  C   UNL     1       0.002  -0.004   0.002  0.00  0.00    +0.015 A 
ATOM      7  C   UNL     1       1.298  -2.144  -0.022  0.00  0.00    +0.278 A 
ATOM      8  O   UNL     1       0.291  -2.829  -0.016  0.00  0.00    -0.265 OA
ATOM      9  N   UNL     1       2.530  -2.705  -0.037  0.00  0.00    -0.206 N 
ATOM     10  N   UNL     1       3.668  -1.894  -0.044  0.00  0.00    -0.062 NA
ATOM     11  N   UNL     1       3.612  -0.612  -0.037  0.00  0.00    -0.131 NA
ENDROOT
BRANCH   9  12
ATOM     12  C   UNL     1       2.670  -4.163  -0.046  0.00  0.00    +0.184 C 
BRANCH  12  13
ATOM     13  C   UNL     1       2.704  -4.655  -1.470  0.00  0.00    -0.026 A 
ATOM     14  C   UNL     1       1.527  -4.990  -2.113  0.00  0.00    +0.009 A 
ATOM     15  C   UNL     1       1.555  -5.442  -3.418  0.00  0.00    +0.046 A 
ATOM     16  C   UNL     1       2.767  -5.560  -4.084  0.00  0.00    +0.127 A 
ATOM     17  C   UNL     1       3.947  -5.223  -3.437  0.00  0.00    +0.046 A 
ATOM     18  C   UNL     1       3.912  -4.766  -2.134  0.00  0.00    +0.009 A 
BRANCH  16  19
ATOM     19  O   UNL     1       2.797  -6.005  -5.368  0.00  0.00    -0.434 OA
BRANCH  19  20
ATOM     20  C   UNL     1       4.080  -6.100  -5.991  0.00  0.00    +0.541 C 
ATOM     21  F   UNL     1       4.681  -4.837  -6.016  0.00  0.00    -0.166 F 
ATOM     22  F   UNL     1       4.885  -6.986  -5.267  0.00  0.00    -0.166 F 
ENDBRANCH  19  20
ENDBRANCH  16  19
ENDBRANCH  12  13
ENDBRANCH   9  12
TORSDOF 4
