REMARK  Name = ZINC22294412
REMARK  6 active torsions:
REMARK  status: ('A' for Active; 'I' for Inactive)
REMARK    1  A    between atoms: C_1  and  C_2
REMARK    2  A    between atoms: C_7  and  C_8
REMARK    3  A    between atoms: C_13  and  C_16
REMARK    4  A    between atoms: C_16  and  N_17
REMARK    5  A    between atoms: C_19  and  C_26
REMARK    6  A    between atoms: C_22  and  C_25
REMARK                            x       y       z     vdW  Elec       q    Type
REMARK                         _______ _______ _______ _____ _____    ______ ____
ROOT
ATOM      1  C   UNL     1       4.628   1.016  -0.036  0.00  0.00    +0.266 C 
ATOM      2  O   UNL     1       4.449  -0.188  -0.042  0.00  0.00    -0.268 OA
ATOM      3  N   UNL     1       3.574   1.854  -0.022  0.00  0.00    -0.259 N 
ATOM      4  C   UNL     1       2.282   1.345  -0.013  0.00  0.00    +0.165 A 
ATOM      5  N   UNL     1       1.134   1.996   0.002  0.00  0.00    -0.231 NA
ATOM      6  C   UNL     1      -0.016   1.351   0.009  0.00  0.00    +0.034 A 
ATOM      7  C   UNL     1       0.002  -0.004   0.002  0.00  0.00    +0.070 A 
ATOM      8  S   UNL     1       1.762  -0.312  -0.016  0.00  0.00    -0.060 S 
ATOM      9  H   UNL     1       3.736   2.942  -0.017  0.00  0.00    +0.157 HD
ENDROOT
BRANCH   1  16
ATOM     10  C   UNL     1       7.249  -0.689  -0.058  0.00  0.00    +0.047 C 
ATOM     11  C   UNL     1       7.144   0.815  -0.056  0.00  0.00    -0.010 A 
ATOM     12  C   UNL     1       8.207   1.727  -0.066  0.00  0.00    +0.042 A 
ATOM     13  C   UNL     1       7.662   3.011  -0.051  0.00  0.00    +0.027 A 
ATOM     14  N   UNL     1       6.334   2.893  -0.041  0.00  0.00    -0.354 N 
ATOM     15  H   UNL     1       5.702   3.794  -0.031  0.00  0.00    +0.166 HD
ATOM     16  C   UNL     1       5.994   1.554  -0.046  0.00  0.00    +0.106 A 
ATOM     17  C   UNL     1       8.509   4.259  -0.045  0.00  0.00    +0.054 C 
ATOM     18  C   UNL     1       9.916   3.911   0.448  0.00  0.00    +0.014 C 
ATOM     19  C   UNL     1      10.499   2.745  -0.357  0.00  0.00    +0.080 C 
ATOM     20  C   UNL     1       9.661   1.506  -0.084  0.00  0.00    +0.165 C 
ATOM     21  O   UNL     1      10.155   0.414   0.105  0.00  0.00    -0.292 OA
ENDBRANCH   1  16
BRANCH   6  22
ATOM     22  C   UNL     1      -1.321   2.104   0.020  0.00  0.00    -0.022 C 
BRANCH  22  23
ATOM     23  N   UNL     1      -1.679   2.446   1.403  0.00  0.00    +0.384 N 
ATOM     24  C   UNL     1      -1.961   1.237   2.188  0.00  0.00    -0.075 C 
ATOM     25  C   UNL     1      -2.185   1.619   3.653  0.00  0.00    -0.031 C 
ATOM     26  C   UNL     1      -3.361   2.597   3.746  0.00  0.00    +0.003 C 
ATOM     27  C   UNL     1      -3.063   3.825   2.881  0.00  0.00    -0.031 C 
ATOM     28  C   UNL     1      -2.812   3.379   1.439  0.00  0.00    -0.075 C 
ATOM     29  C   UNL     1      -4.258   4.779   2.921  0.00  0.00    +0.005 C 
ATOM     30  C   UNL     1      -0.924   2.284   4.207  0.00  0.00    +0.005 C 
ATOM     31  H   UNL     1      -0.815   2.950   1.862  0.00  0.00    -0.081 HD
ENDBRANCH  22  23
ENDBRANCH   6  22
TORSDOF 3
