REMARK  Name = ZINC06818680
REMARK  7 active torsions:
REMARK  status: ('A' for Active; 'I' for Inactive)
REMARK    1  A    between atoms: C_1  and  C_2
REMARK    2  A    between atoms: C_7  and  N_8
REMARK    3  A    between atoms: C_9  and  C_11
REMARK    4  A    between atoms: C_11  and  N_12
REMARK    5  A    between atoms: N_20  and  C_23
REMARK    6  A    between atoms: C_25  and  C_30
REMARK    7  A    between atoms: C_27  and  C_29
REMARK                            x       y       z     vdW  Elec       q    Type
REMARK                         _______ _______ _______ _____ _____    ______ ____
ROOT
ATOM      1  N   UNL     1       2.390   0.054  -0.014  0.00  0.00    -0.284 N 
ATOM      2  C   UNL     1       2.391   1.458   0.046  0.00  0.00    +0.066 A 
ATOM      3  C   UNL     1       3.470   2.334   0.123  0.00  0.00    +0.034 A 
ATOM      4  C   UNL     1       3.253   3.669   0.172  0.00  0.00    +0.048 A 
ATOM      5  S   UNL     1       1.525   3.799   0.116  0.00  0.00    -0.090 S 
ATOM      6  C   UNL     1       1.136   2.072   0.027  0.00  0.00    +0.101 A 
ATOM      7  C   UNL     1      -0.043   1.324  -0.047  0.00  0.00    +0.275 A 
ATOM      8  O   UNL     1      -1.127   1.879  -0.068  0.00  0.00    -0.266 OA
ATOM      9  N   UNL     1       0.038  -0.025  -0.101  0.00  0.00    -0.228 N 
ATOM     10  C   UNL     1       1.238  -0.629  -0.084  0.00  0.00    +0.337 A 
ATOM     11  O   UNL     1       1.282  -1.843  -0.134  0.00  0.00    -0.246 OA
ENDROOT
BRANCH   9  12
ATOM     12  C   UNL     1      -1.131  -0.794  -0.175  0.00  0.00    +0.055 A 
ATOM     13  C   UNL     1      -1.400  -1.543  -1.313  0.00  0.00    +0.029 A 
ATOM     14  C   UNL     1      -2.550  -2.305  -1.381  0.00  0.00    -0.048 A 
ATOM     15  C   UNL     1      -3.440  -2.312  -0.322  0.00  0.00    +0.006 A 
ATOM     16  C   UNL     1      -3.178  -1.562   0.810  0.00  0.00    -0.048 A 
ATOM     17  C   UNL     1      -2.027  -0.803   0.886  0.00  0.00    +0.029 A 
ATOM     18  C   UNL     1      -4.150  -1.572   1.961  0.00  0.00    +0.044 C 
ATOM     19  C   UNL     1      -2.839  -3.124  -2.612  0.00  0.00    +0.044 C 
ENDBRANCH   9  12
BRANCH   1  20
ATOM     20  C   UNL     1       3.662  -0.672   0.000  0.00  0.00    +0.222 C 
BRANCH  20  22
ATOM     21  N   UNL     1       5.309  -1.507  -1.646  0.00  0.00    -0.284 N 
ATOM     22  C   UNL     1       4.149  -0.860  -1.413  0.00  0.00    +0.237 C 
ATOM     23  O   UNL     1       3.497  -0.431  -2.342  0.00  0.00    -0.274 OA
ATOM     24  H   UNL     1       5.801  -1.900  -0.909  0.00  0.00    +0.155 HD
BRANCH  21  31
ATOM     25  C   UNL     1       8.111  -1.848  -2.000  0.00  0.00    +0.045 C 
ATOM     26  C   UNL     1       7.163  -1.777  -3.170  0.00  0.00    -0.029 A 
ATOM     27  C   UNL     1       7.647  -1.879  -4.459  0.00  0.00    +0.005 A 
ATOM     28  C   UNL     1       6.778  -1.815  -5.532  0.00  0.00    +0.000 A 
ATOM     29  C   UNL     1       5.422  -1.648  -5.319  0.00  0.00    +0.002 A 
ATOM     30  C   UNL     1       4.931  -1.551  -4.032  0.00  0.00    +0.023 A 
ATOM     31  C   UNL     1       5.802  -1.610  -2.951  0.00  0.00    +0.036 A 
ENDBRANCH  21  31
ENDBRANCH  20  22
ENDBRANCH   1  20
TORSDOF 4
