REMARK  Name = ZINC63350414
REMARK  3 active torsions:
REMARK  status: ('A' for Active; 'I' for Inactive)
REMARK    1  A    between atoms: N_18  and  C_22
REMARK    2  A    between atoms: C_22  and  C_23
REMARK    3  A    between atoms: C_23  and  O_24
REMARK                            x       y       z     vdW  Elec       q    Type
REMARK                         _______ _______ _______ _____ _____    ______ ____
ROOT
ATOM      1  C   UNL     1      -0.016   1.355   0.009  0.00  0.00    +0.001 A 
ATOM      2  C   UNL     1       1.141   2.140   0.003  0.00  0.00    +0.002 A 
ATOM      3  C   UNL     1       2.404   1.644  -0.012  0.00  0.00    +0.026 A 
ATOM      4  C   UNL     1       2.553   0.226  -0.019  0.00  0.00    +0.043 A 
ATOM      5  N   UNL     1       3.625  -0.506  -0.042  0.00  0.00    -0.376 N 
ATOM      6  C   UNL     1       3.231  -1.920  -0.005  0.00  0.00    +0.124 C 
ATOM      7  C   UNL     1       3.680  -2.635  -1.279  0.00  0.00    +0.137 C 
ATOM      8  N   UNL     1       2.916  -3.850  -1.517  0.00  0.00    -0.286 N 
ATOM      9  C   UNL     1       1.593  -4.170  -1.024  0.00  0.00    +0.166 C 
ATOM     10  C   UNL     1       0.907  -3.178  -0.122  0.00  0.00    +0.065 C 
ATOM     11  C   UNL     1       1.704  -1.909  -0.024  0.00  0.00    -0.035 C 
ATOM     12  C   UNL     1       1.332  -0.636  -0.013  0.00  0.00    -0.001 A 
ATOM     13  C   UNL     1       0.002  -0.004   0.002  0.00  0.00    +0.010 A 
ATOM     14  C   UNL     1       0.717  -4.608  -2.170  0.00  0.00    +0.237 C 
ATOM     15  O   UNL     1      -0.407  -4.178  -2.326  0.00  0.00    -0.274 OA
ATOM     16  N   UNL     1       1.271  -5.523  -3.020  0.00  0.00    -0.289 N 
ATOM     17  C   UNL     1       2.629  -5.994  -2.692  0.00  0.00    +0.203 C 
ATOM     18  C   UNL     1       3.482  -4.794  -2.339  0.00  0.00    +0.234 C 
ATOM     19  O   UNL     1       4.612  -4.671  -2.762  0.00  0.00    -0.274 OA
ATOM     20  H   UNL     1       4.536  -0.173  -0.078  0.00  0.00    +0.160 HD
ENDROOT
BRANCH  16  21
ATOM     21  C   UNL     1       0.552  -6.012  -4.199  0.00  0.00    +0.136 C 
BRANCH  21  22
ATOM     22  C   UNL     1       0.863  -5.110  -5.396  0.00  0.00    +0.174 C 
BRANCH  22  23
ATOM     23  O   UNL     1       2.248  -5.219  -5.726  0.00  0.00    -0.393 OA
ATOM     24  H   UNL     1       2.517  -4.673  -6.478  0.00  0.00    +0.209 HD
ENDBRANCH  22  23
ENDBRANCH  21  22
ENDBRANCH  16  21
TORSDOF 3
