REMARK  Name = ZINC12053107
REMARK  6 active torsions:
REMARK  status: ('A' for Active; 'I' for Inactive)
REMARK    1  A    between atoms: C_1  and  C_2
REMARK    2  A    between atoms: C_6  and  S_31
REMARK    3  A    between atoms: C_16  and  N_63
REMARK    4  A    between atoms: C_20  and  C_21
REMARK    5  A    between atoms: C_20  and  N_63
REMARK    6  A    between atoms: S_31  and  C_34
REMARK                            x       y       z     vdW  Elec       q    Type
REMARK                         _______ _______ _______ _____ _____    ______ ____
ROOT
ATOM      1  C   UNL     1       4.877  -4.339  -0.019  0.00  0.00    +0.066 C 
ATOM      2  C   UNL     1       4.053  -3.551   0.967  0.00  0.00    +0.051 A 
ATOM      3  C   UNL     1       3.902  -3.992   2.295  0.00  0.00    +0.022 A 
ATOM      4  C   UNL     1       4.504  -5.170   2.760  0.00  0.00    +0.013 A 
ATOM      5  C   UNL     1       4.324  -5.548   4.057  0.00  0.00    +0.028 A 
ATOM      6  C   UNL     1       3.552  -4.781   4.927  0.00  0.00    +0.090 A 
ATOM      7  C   UNL     1       2.954  -3.631   4.508  0.00  0.00    +0.055 A 
ATOM      8  C   UNL     1       3.115  -3.210   3.179  0.00  0.00    +0.078 A 
ATOM      9  N   UNL     1       2.553  -2.086   2.719  0.00  0.00    -0.214 NA
ATOM     10  C   UNL     1       2.725  -1.725   1.462  0.00  0.00    +0.219 A 
ATOM     11  N   UNL     1       3.457  -2.434   0.605  0.00  0.00    -0.219 NA
ATOM     12  N   UNL     1       2.125  -0.560   1.018  0.00  0.00    -0.300 N 
ATOM     13  C   UNL     1       0.700  -0.595   1.241  0.00  0.00    +0.108 C 
ATOM     14  C   UNL     1       0.002  -0.004   0.002  0.00  0.00    +0.017 C 
ATOM     15  C   UNL     1      -0.018   1.454   0.010  0.00  0.00    -0.014 C 
ATOM     16  C   UNL     1       1.410   2.045  -0.000  0.00  0.00    -0.070 C 
ATOM     17  C   UNL     1       1.994   1.932   1.383  0.00  0.00    +0.003 C 
ATOM     18  C   UNL     1       2.787   0.630   1.595  0.00  0.00    +0.106 C 
ENDROOT
BRANCH   6  19
ATOM     19  S   UNL     1       3.346  -5.306   6.596  0.00  0.00    -0.006 S 
ATOM     20  O   UNL     1       2.110  -4.739   7.005  0.00  0.00    -0.170 OA
ATOM     21  O   UNL     1       3.519  -6.716   6.556  0.00  0.00    -0.170 OA
ATOM     22  C   UNL     1       4.717  -4.535   7.500  0.00  0.00    +0.200 C 
ENDBRANCH   6  19
BRANCH  16  23
ATOM     23  N   UNL     1       1.348   3.464  -0.397  0.00  0.00    +0.384 N 
ATOM     24  H   UNL     1       1.148   4.038   0.431  0.00  0.00    -0.085 HD
ATOM     25  H   UNL     1       0.600   3.590  -1.089  0.00  0.00    -0.085 HD
BRANCH  23  26
ATOM     26  C   UNL     1       2.632   3.889  -0.985  0.00  0.00    -0.046 C 
BRANCH  26  27
ATOM     27  C   UNL     1       2.538   5.340  -1.380  0.00  0.00    -0.057 A 
ATOM     28  C   UNL     1       2.315   5.683  -2.678  0.00  0.00    +0.002 A 
ATOM     29  C   UNL     1       2.220   7.019  -3.061  0.00  0.00    +0.001 A 
ATOM     30  C   UNL     1       2.358   8.021  -2.150  0.00  0.00    +0.008 A 
ATOM     31  C   UNL     1       2.595   7.706  -0.801  0.00  0.00    -0.018 A 
ATOM     32  C   UNL     1       2.687   6.346  -0.411  0.00  0.00    -0.017 A 
ATOM     33  C   UNL     1       2.924   6.032   0.938  0.00  0.00    +0.009 A 
ATOM     34  C   UNL     1       3.063   7.033   1.849  0.00  0.00    +0.001 A 
ATOM     35  C   UNL     1       2.973   8.370   1.465  0.00  0.00    +0.001 A 
ATOM     36  C   UNL     1       2.744   8.713   0.168  0.00  0.00    +0.008 A 
ENDBRANCH  26  27
ENDBRANCH  23  26
ENDBRANCH  16  23
TORSDOF 4
