REMARK  Name = ZINC04999656
REMARK  12 active torsions:
REMARK  status: ('A' for Active; 'I' for Inactive)
REMARK    1  A    between atoms: C_1  and  C_2
REMARK    2  A    between atoms: C_2  and  C_3
REMARK    3  A    between atoms: C_4  and  C_16
REMARK    4  A    between atoms: N_6  and  C_9
REMARK    5  A    between atoms: C_16  and  C_17
REMARK    6  A    between atoms: C_17  and  O_19
REMARK    7  A    between atoms: O_19  and  C_20
REMARK    8  A    between atoms: N_21  and  C_22
REMARK    9  A    between atoms: C_24  and  C_29
REMARK   10  A    between atoms: C_24  and  C_30
REMARK   11  A    between atoms: C_25  and  C_27
REMARK   12  A    between atoms: C_25  and  C_28
REMARK                            x       y       z     vdW  Elec       q    Type
REMARK                         _______ _______ _______ _____ _____    ______ ____
ROOT
ATOM      1  C   UNL     1      -2.814   3.672   0.029  0.00  0.00    +0.167 C 
ATOM      2  C   UNL     1      -3.444   2.343   0.022  0.00  0.00    +0.065 C 
ATOM      3  N   UNL     1      -2.494   1.459  -0.001  0.00  0.00    -0.180 NA
ATOM      4  N   UNL     1      -1.238   2.065   0.001  0.00  0.00    -0.160 N 
ATOM      5  C   UNL     1      -1.371   3.407   0.015  0.00  0.00    +0.254 C 
ATOM      6  O   UNL     1      -0.473   4.233   0.015  0.00  0.00    -0.272 OA
ENDROOT
BRANCH   4   7
ATOM      7  C   UNL     1      -0.016   1.379  -0.015  0.00  0.00    +0.060 A 
ATOM      8  C   UNL     1       1.179   2.088  -0.025  0.00  0.00    +0.028 A 
ATOM      9  C   UNL     1       2.382   1.410  -0.046  0.00  0.00    +0.040 A 
ATOM     10  C   UNL     1       2.398   0.025  -0.059  0.00  0.00    +0.124 A 
ATOM     11  C   UNL     1       1.208  -0.683  -0.051  0.00  0.00    +0.040 A 
ATOM     12  C   UNL     1       0.003  -0.009  -0.029  0.00  0.00    +0.028 A 
ATOM     13  F   UNL     1       3.576  -0.636  -0.080  0.00  0.00    -0.205 F 
ENDBRANCH   4   7
BRANCH   1  15
ATOM     14  C   UNL     1      -4.947   4.983  -0.061  0.00  0.00    +0.061 C 
ATOM     15  C   UNL     1      -3.446   4.904   0.046  0.00  0.00    +0.028 C 
ATOM     16  N   UNL     1      -2.717   6.033   0.157  0.00  0.00    -0.288 NA
BRANCH  16  17
ATOM     17  C   UNL     1      -3.386   7.340   0.175  0.00  0.00    +0.103 C 
ATOM     18  C   UNL     1      -3.606   7.813  -1.262  0.00  0.00    +0.014 C 
ATOM     19  C   UNL     1      -4.283   9.181  -1.273  0.00  0.00    -0.071 C 
ATOM     20  C   UNL     1      -3.154   9.730   0.902  0.00  0.00    -0.071 C 
ATOM     21  C   UNL     1      -2.493   8.354   0.889  0.00  0.00    +0.014 C 
ATOM     22  C   UNL     1      -4.282   9.746   1.940  0.00  0.00    -0.010 C 
ATOM     23  C   UNL     1      -2.092  10.752   1.366  0.00  0.00    -0.010 C 
ATOM     24  C   UNL     1      -5.766   9.021  -0.918  0.00  0.00    -0.010 C 
ATOM     25  C   UNL     1      -4.215   9.722  -2.719  0.00  0.00    -0.010 C 
ATOM     26  N   UNL     1      -3.627  10.211  -0.423  0.00  0.00    +0.386 N 
ATOM     27  H   UNL     1      -4.302  10.968  -0.264  0.00  0.00    -0.084 HD
ATOM     28  H   UNL     1      -2.817  10.577  -0.936  0.00  0.00    -0.084 HD
ENDBRANCH  16  17
ENDBRANCH   1  15
BRANCH   2  29
ATOM     29  C   UNL     1      -4.924   2.059   0.030  0.00  0.00    +0.174 C 
BRANCH  29  30
ATOM     30  C   UNL     1      -5.150   0.573   0.143  0.00  0.00    +0.312 C 
ATOM     31  O   UNL     1      -4.206  -0.178   0.209  0.00  0.00    -0.250 OA
BRANCH  30  32
ATOM     32  O   UNL     1      -6.399   0.084   0.169  0.00  0.00    -0.468 OA
ATOM     33  C   UNL     1      -6.542  -1.357   0.279  0.00  0.00    +0.280 C 
ENDBRANCH  30  32
ENDBRANCH  29  30
ENDBRANCH   2  29
TORSDOF 6
