REMARK  Name = ZINC46056359
REMARK  7 active torsions:
REMARK  status: ('A' for Active; 'I' for Inactive)
REMARK    1  A    between atoms: C_1  and  C_2
REMARK    2  A    between atoms: C_2  and  C_3
REMARK    3  A    between atoms: C_6  and  C_8
REMARK    4  A    between atoms: C_8  and  C_10
REMARK    5  A    between atoms: C_18  and  C_29
REMARK    6  A    between atoms: N_20  and  C_21
REMARK    7  A    between atoms: C_26  and  C_27
REMARK                            x       y       z     vdW  Elec       q    Type
REMARK                         _______ _______ _______ _____ _____    ______ ____
ROOT
ATOM      1  C   UNL     1       0.945  -1.395  -5.879  0.00  0.00    +0.104 C 
ATOM      2  C   UNL     1       0.288  -2.733  -5.526  0.00  0.00    +0.112 C 
ATOM      3  C   UNL     1       1.002  -3.880  -6.184  0.00  0.00    +0.219 C 
ATOM      4  O   UNL     1       1.142  -4.916  -5.569  0.00  0.00    -0.275 OA
ATOM      5  N   UNL     1       1.492  -3.793  -7.439  0.00  0.00    -0.270 N 
ATOM      6  C   UNL     1       1.501  -2.542  -8.055  0.00  0.00    +0.133 A 
ATOM      7  C   UNL     1       1.246  -1.390  -7.357  0.00  0.00    +0.026 A 
ATOM      8  C   UNL     1       1.322  -0.325  -8.242  0.00  0.00    +0.066 A 
ATOM      9  N   UNL     1       1.625  -0.797  -9.429  0.00  0.00    -0.170 NA
ATOM     10  N   UNL     1       1.753  -2.195  -9.334  0.00  0.00    -0.218 N 
ATOM     11  C   UNL     1       1.096   1.125  -7.900  0.00  0.00    +0.068 C 
ATOM     12  H   UNL     1       1.829  -4.578  -7.899  0.00  0.00    +0.156 HD
ENDROOT
BRANCH  10  13
ATOM     13  C   UNL     1       2.083  -3.069 -10.379  0.00  0.00    +0.072 A 
ATOM     14  C   UNL     1       3.059  -4.039 -10.192  0.00  0.00    +0.028 A 
ATOM     15  C   UNL     1       3.382  -4.899 -11.223  0.00  0.00    +0.004 A 
ATOM     16  C   UNL     1       2.735  -4.796 -12.441  0.00  0.00    +0.020 A 
ATOM     17  C   UNL     1       1.762  -3.831 -12.630  0.00  0.00    +0.046 A 
ATOM     18  C   UNL     1       1.430  -2.971 -11.600  0.00  0.00    -0.007 A 
ATOM     19  C   UNL     1       0.365  -1.924 -11.804  0.00  0.00    +0.047 C 
ATOM     20 CL   UNL     1       0.952  -3.704 -14.161  0.00  0.00    -0.083 Cl
ENDBRANCH  10  13
BRANCH   1  21
ATOM     21  C   UNL     1       2.224  -1.235  -5.100  0.00  0.00    +0.178 C 
ATOM     22  O   UNL     1       3.283  -1.563  -5.596  0.00  0.00    -0.291 OA
BRANCH  21  26
ATOM     23  C   UNL     1       1.592   0.321  -1.437  0.00  0.00    -0.010 A 
ATOM     24  C   UNL     1       2.899   0.058  -1.696  0.00  0.00    +0.012 A 
ATOM     25  C   UNL     1       3.245  -0.475  -2.911  0.00  0.00    +0.019 A 
ATOM     26  C   UNL     1       2.192  -0.703  -3.792  0.00  0.00    +0.055 A 
ATOM     27  S   UNL     1       0.791  -0.154  -2.835  0.00  0.00    -0.090 S 
BRANCH  23  29
ATOM     28  C   UNL     1       0.948   2.425  -0.294  0.00  0.00    +0.009 C 
ATOM     29  C   UNL     1       0.996   0.900  -0.180  0.00  0.00    +0.039 C 
ENDBRANCH  23  29
ENDBRANCH  21  26
ENDBRANCH   1  21
TORSDOF 4
