REMARK  Name = ZINC16670039
REMARK  10 active torsions:
REMARK  status: ('A' for Active; 'I' for Inactive)
REMARK    1  A    between atoms: C_1  and  C_2
REMARK    2  A    between atoms: C_4  and  C_27
REMARK    3  A    between atoms: C_5  and  C_26
REMARK    4  A    between atoms: C_6  and  S_9
REMARK    5  A    between atoms: C_7  and  C_8
REMARK    6  A    between atoms: S_9  and  C_10
REMARK    7  A    between atoms: C_10  and  C_11
REMARK    8  A    between atoms: C_11  and  C_13
REMARK    9  A    between atoms: C_14  and  N_25
REMARK   10  A    between atoms: N_15  and  C_22
REMARK                            x       y       z     vdW  Elec       q    Type
REMARK                         _______ _______ _______ _____ _____    ______ ____
ROOT
ATOM      1  C   UNL     1       1.218   1.917   0.143  0.00  0.00    +0.120 A 
ATOM      2  C   UNL     1       2.453   1.270  -0.033  0.00  0.00    +0.116 A 
ATOM      3  N   UNL     1       3.580   2.028  -0.182  0.00  0.00    -0.278 N 
ATOM      4  C   UNL     1       3.527   3.369  -0.153  0.00  0.00    +0.331 A 
ATOM      5  O   UNL     1       4.559   3.998  -0.286  0.00  0.00    -0.246 OA
ATOM      6  N   UNL     1       2.377   4.041   0.016  0.00  0.00    -0.274 N 
ATOM      7  H   UNL     1       2.387   5.041   0.031  0.00  0.00    +0.173 HD
ATOM      8  C   UNL     1       1.208   3.385   0.168  0.00  0.00    +0.266 A 
ATOM      9  O   UNL     1       0.167   3.997   0.321  0.00  0.00    -0.267 OA
ENDROOT
BRANCH   3  10
ATOM     10  C   UNL     1       4.872   1.365  -0.372  0.00  0.00    +0.094 C 
ATOM     11  C   UNL     1       5.772   1.879  -1.497  0.00  0.00    +0.027 C 
ATOM     12  C   UNL     1       5.059   0.532  -1.642  0.00  0.00    +0.027 C 
ENDBRANCH   3  10
BRANCH   2  13
ATOM     13  N   UNL     1       2.526  -0.088  -0.059  0.00  0.00    -0.344 N 
ATOM     14  H   UNL     1       1.725  -0.614  -0.213  0.00  0.00    +0.144 HD
ATOM     15  H   UNL     1       3.378  -0.531   0.077  0.00  0.00    +0.144 HD
ENDBRANCH   2  13
BRANCH   1  16
ATOM     16  C   UNL     1       0.025   1.178   0.297  0.00  0.00    +0.182 C 
ATOM     17  O   UNL     1       0.034  -0.028   0.151  0.00  0.00    -0.291 OA
BRANCH  16  18
ATOM     18  C   UNL     1      -1.262   1.886   0.635  0.00  0.00    +0.154 C 
BRANCH  18  19
ATOM     19  S   UNL     1      -2.605   0.673   0.756  0.00  0.00    -0.117 S 
BRANCH  19  25
ATOM     20  C   UNL     1      -5.817   2.916   4.226  0.00  0.00    +0.044 C 
ATOM     21  C   UNL     1      -5.460   2.651   2.786  0.00  0.00    -0.046 A 
ATOM     22  C   UNL     1      -6.245   3.170   1.773  0.00  0.00    +0.007 A 
ATOM     23  C   UNL     1      -5.922   2.929   0.450  0.00  0.00    -0.046 A 
ATOM     24  C   UNL     1      -4.813   2.168   0.137  0.00  0.00    -0.034 A 
ATOM     25  C   UNL     1      -4.021   1.645   1.152  0.00  0.00    +0.015 A 
ATOM     26  C   UNL     1      -4.353   1.884   2.480  0.00  0.00    -0.034 A 
ATOM     27  C   UNL     1      -3.501   1.314   3.585  0.00  0.00    +0.045 C 
ATOM     28  C   UNL     1      -4.461   1.906  -1.305  0.00  0.00    +0.045 C 
ATOM     29  C   UNL     1      -6.780   3.497  -0.650  0.00  0.00    +0.044 C 
ENDBRANCH  19  25
ENDBRANCH  18  19
ENDBRANCH  16  18
ENDBRANCH   1  16
TORSDOF 6
