REMARK  Name = ZINC35842615
REMARK  20 active torsions:
REMARK  status: ('A' for Active; 'I' for Inactive)
REMARK    1  A    between atoms: C_1  and  C_2
REMARK    2  A    between atoms: C_2  and  C_4
REMARK    3  A    between atoms: C_2  and  O_38
REMARK    4  A    between atoms: C_4  and  N_5
REMARK    5  A    between atoms: N_5  and  C_6
REMARK    6  A    between atoms: N_5  and  C_11
REMARK    7  A    between atoms: C_6  and  C_7
REMARK    8  A    between atoms: C_7  and  C_8
REMARK    9  A    between atoms: C_8  and  O_9
REMARK   10  A    between atoms: O_9  and  C_10
REMARK   11  A    between atoms: C_11  and  C_12
REMARK   12  A    between atoms: N_14  and  C_15
REMARK   13  A    between atoms: N_14  and  C_27
REMARK   14  A    between atoms: C_15  and  C_16
REMARK   15  A    between atoms: C_16  and  C_17
REMARK   16  A    between atoms: C_27  and  C_28
REMARK   17  A    between atoms: C_31  and  C_34
REMARK   18  A    between atoms: C_34  and  C_35
REMARK   19  A    between atoms: C_34  and  C_36
REMARK   20  A    between atoms: C_34  and  C_37
REMARK                            x       y       z     vdW  Elec       q    Type
REMARK                         _______ _______ _______ _____ _____    ______ ____
ROOT
ATOM      1  C   UNL     1       1.549  -1.991  -1.361  0.00  0.00    +0.199 C 
ATOM      2  O   UNL     1       0.642  -1.191  -1.446  0.00  0.00    -0.278 OA
ATOM      3  N   UNL     1       2.172  -2.425  -2.475  0.00  0.00    -0.298 N 
ENDROOT
BRANCH   1   4
ATOM      4  C   UNL     1       1.981  -2.501  -0.010  0.00  0.00    +0.019 C 
BRANCH   4   5
ATOM      5  N   UNL     1       1.140  -1.896   1.032  0.00  0.00    +0.387 N 
ATOM      6  H   UNL     1       0.168  -2.062   0.818  0.00  0.00    -0.081 HD
BRANCH   5   7
ATOM      7  C   UNL     1       1.390  -0.450   1.085  0.00  0.00    -0.047 C 
BRANCH   7   9
ATOM      8  C   UNL     1       3.172   1.301   1.117  0.00  0.00    +0.035 C 
ATOM      9  C   UNL     1       2.889  -0.197   1.253  0.00  0.00    +0.095 C 
BRANCH   9  10
ATOM     10  O   UNL     1       3.306  -0.645   2.544  0.00  0.00    -0.394 OA
ATOM     11  H   UNL     1       2.811  -0.252   3.276  0.00  0.00    +0.210 HD
ENDBRANCH   9  10
ENDBRANCH   7   9
ENDBRANCH   5   7
BRANCH   5  12
ATOM     12  C   UNL     1       1.465  -2.497   2.333  0.00  0.00    -0.076 C 
BRANCH  12  13
ATOM     13  C   UNL     1       0.534  -1.927   3.405  0.00  0.00    +0.009 C 
BRANCH  13  14
ATOM     14  C   UNL     1       0.873  -2.553   4.759  0.00  0.00    +0.157 C 
BRANCH  14  15
ATOM     15  O   UNL     1       0.003  -2.021   5.760  0.00  0.00    -0.383 OA
ATOM     16  C   UNL     1       0.236  -2.543   7.070  0.00  0.00    +0.193 C 
ENDBRANCH  14  15
ENDBRANCH  13  14
ENDBRANCH  12  13
ENDBRANCH   5  12
ENDBRANCH   4   5
ENDBRANCH   1   4
BRANCH   3  17
ATOM     17  C   UNL     1       3.267  -3.393  -2.373  0.00  0.00    +0.113 C 
BRANCH  17  18
ATOM     18  C   UNL     1       2.703  -4.813  -2.443  0.00  0.00    +0.056 C 
BRANCH  18  19
ATOM     19  C   UNL     1       3.830  -5.807  -2.337  0.00  0.00    -0.021 A 
ATOM     20  C   UNL     1       4.478  -6.391  -3.358  0.00  0.00    +0.087 A 
ATOM     21  N   UNL     1       5.440  -7.236  -2.877  0.00  0.00    -0.360 N 
ATOM     22  H   UNL     1       6.038  -7.770  -3.424  0.00  0.00    +0.165 HD
ATOM     23  C   UNL     1       5.435  -7.217  -1.500  0.00  0.00    +0.047 A 
ATOM     24  C   UNL     1       4.430  -6.316  -1.102  0.00  0.00    +0.003 A 
ATOM     25  C   UNL     1       4.198  -6.087   0.255  0.00  0.00    +0.010 A 
ATOM     26  C   UNL     1       4.952  -6.737   1.192  0.00  0.00    +0.001 A 
ATOM     27  C   UNL     1       5.947  -7.624   0.804  0.00  0.00    +0.002 A 
ATOM     28  C   UNL     1       6.186  -7.872  -0.530  0.00  0.00    +0.026 A 
ENDBRANCH  18  19
ENDBRANCH  17  18
ENDBRANCH   3  17
BRANCH   3  29
ATOM     29  C   UNL     1       1.752  -1.931  -3.789  0.00  0.00    +0.142 C 
BRANCH  29  30
ATOM     30  C   UNL     1       2.541  -0.694  -4.135  0.00  0.00    -0.030 A 
ATOM     31  C   UNL     1       2.069   0.552  -3.765  0.00  0.00    +0.005 A 
ATOM     32  C   UNL     1       2.792   1.687  -4.082  0.00  0.00    +0.004 A 
ATOM     33  C   UNL     1       3.987   1.576  -4.769  0.00  0.00    -0.042 A 
ATOM     34  C   UNL     1       4.459   0.330  -5.137  0.00  0.00    +0.004 A 
ATOM     35  C   UNL     1       3.738  -0.805  -4.816  0.00  0.00    +0.005 A 
BRANCH  33  36
ATOM     36  C   UNL     1       4.775   2.813  -5.115  0.00  0.00    -0.013 C 
ATOM     37  C   UNL     1       5.153   3.553  -3.831  0.00  0.00    +0.015 C 
ATOM     38  C   UNL     1       6.046   2.414  -5.867  0.00  0.00    +0.015 C 
ATOM     39  C   UNL     1       3.925   3.728  -5.999  0.00  0.00    +0.015 C 
ENDBRANCH  33  36
ENDBRANCH  29  30
ENDBRANCH   3  29
TORSDOF 15
