REMARK  Name = ZINC36007245
REMARK  9 active torsions:
REMARK  status: ('A' for Active; 'I' for Inactive)
REMARK    1  A    between atoms: C_1  and  C_2
REMARK    2  A    between atoms: N_11  and  C_15
REMARK    3  A    between atoms: C_15  and  C_16
REMARK    4  A    between atoms: N_18  and  C_19
REMARK    5  A    between atoms: C_19  and  C_21
REMARK    6  A    between atoms: C_19  and  C_30
REMARK    7  A    between atoms: C_24  and  C_27
REMARK    8  A    between atoms: C_27  and  C_28
REMARK    9  A    between atoms: C_27  and  C_29
REMARK                            x       y       z     vdW  Elec       q    Type
REMARK                         _______ _______ _______ _____ _____    ______ ____
ROOT
ATOM      1  C   UNL     1       3.425   2.876   2.253  0.00  0.00    +0.232 C 
ATOM      2  O   UNL     1       2.503   3.237   1.554  0.00  0.00    -0.274 OA
ATOM      3  N   UNL     1       4.441   3.721   2.519  0.00  0.00    -0.303 N 
ATOM      4  H   UNL     1       5.178   3.433   3.078  0.00  0.00    +0.150 HD
ENDROOT
BRANCH   1   5
ATOM      5  C   UNL     1       3.436   1.482   2.825  0.00  0.00    +0.213 C 
BRANCH   5  15
ATOM      6  C   UNL     1      -0.019   1.526   0.010  0.00  0.00    +0.010 C 
ATOM      7  C   UNL     1       0.002  -0.004   0.002  0.00  0.00    +0.018 C 
ATOM      8  C   UNL     1      -1.434  -0.534   0.012  0.00  0.00    +0.006 C 
ATOM      9  C   UNL     1      -1.412  -2.064   0.024  0.00  0.00    +0.000 C 
ATOM     10  C   UNL     1      -0.687  -2.556   1.279  0.00  0.00    +0.003 C 
ATOM     11  C   UNL     1       0.752  -2.033   1.273  0.00  0.00    +0.035 C 
ATOM     12  C   UNL     1       0.740  -0.509   1.237  0.00  0.00    +0.115 C 
ATOM     13  C   UNL     1       2.151   0.030   1.266  0.00  0.00    +0.247 C 
ATOM     14  O   UNL     1       3.026  -0.158   0.448  0.00  0.00    -0.273 OA
ATOM     15  N   UNL     1       2.233   0.767   2.394  0.00  0.00    -0.215 N 
ATOM     16  C   UNL     1       1.077   0.763   3.069  0.00  0.00    +0.310 C 
ATOM     17  O   UNL     1       0.904   1.356   4.116  0.00  0.00    -0.252 OA
ATOM     18  N   UNL     1       0.127   0.030   2.458  0.00  0.00    -0.285 N 
ATOM     19  H   UNL     1      -0.782  -0.114   2.764  0.00  0.00    +0.151 HD
ENDBRANCH   5  15
ENDBRANCH   1   5
BRANCH   3  20
ATOM     20  C   UNL     1       4.430   5.077   1.963  0.00  0.00    +0.140 C 
BRANCH  20  21
ATOM     21  C   UNL     1       5.260   5.984   2.834  0.00  0.00    -0.022 A 
ATOM     22  C   UNL     1       6.452   5.530   3.366  0.00  0.00    +0.006 A 
ATOM     23  C   UNL     1       7.214   6.362   4.165  0.00  0.00    +0.004 A 
ATOM     24  C   UNL     1       6.784   7.648   4.432  0.00  0.00    -0.045 A 
ATOM     25  C   UNL     1       5.592   8.102   3.899  0.00  0.00    +0.004 A 
ATOM     26  C   UNL     1       4.832   7.272   3.096  0.00  0.00    +0.006 A 
BRANCH  24  27
ATOM     27  C   UNL     1       7.614   8.555   5.303  0.00  0.00    +0.013 C 
ATOM     28  C   UNL     1       8.015   9.799   4.509  0.00  0.00    +0.012 C 
ATOM     29  C   UNL     1       6.797   8.973   6.528  0.00  0.00    +0.012 C 
ENDBRANCH  24  27
ENDBRANCH  20  21
BRANCH  20  30
ATOM     30  C   UNL     1       5.005   5.053   0.570  0.00  0.00    +0.014 A 
ATOM     31  C   UNL     1       4.601   5.731  -0.532  0.00  0.00    +0.013 A 
ATOM     32  C   UNL     1       5.288   5.552  -1.718  0.00  0.00    +0.008 A 
ATOM     33  C   UNL     1       6.345   4.704  -1.744  0.00  0.00    +0.045 A 
ATOM     34  S   UNL     1       6.400   4.131  -0.054  0.00  0.00    -0.099 S 
ENDBRANCH  20  30
ENDBRANCH   3  20
TORSDOF 6
