REMARK  Name = ZINC24749511
REMARK  11 active torsions:
REMARK  status: ('A' for Active; 'I' for Inactive)
REMARK    1  A    between atoms: C_1  and  C_2
REMARK    2  A    between atoms: C_2  and  C_3
REMARK    3  A    between atoms: C_3  and  C_4
REMARK    4  A    between atoms: C_4  and  N_5
REMARK    5  A    between atoms: C_6  and  N_38
REMARK    6  A    between atoms: C_7  and  N_14
REMARK    7  A    between atoms: N_14  and  C_15
REMARK    8  A    between atoms: C_15  and  C_16
REMARK    9  A    between atoms: C_16  and  C_17
REMARK   10  A    between atoms: C_17  and  C_18
REMARK   11  A    between atoms: C_19  and  C_21
REMARK                            x       y       z     vdW  Elec       q    Type
REMARK                         _______ _______ _______ _____ _____    ______ ____
ROOT
ATOM      1  N   UNL     1       4.959  -3.913   3.300  0.00  0.00    -0.260 N 
ATOM      2  C   UNL     1       5.668  -3.179   2.420  0.00  0.00    +0.251 C 
ATOM      3  O   UNL     1       6.843  -2.946   2.630  0.00  0.00    -0.270 OA
ENDROOT
BRANCH   2   4
ATOM      4  C   UNL     1       5.019  -2.659   1.201  0.00  0.00    +0.039 A 
ATOM      5  C   UNL     1       3.651  -2.373   1.203  0.00  0.00    +0.015 A 
ATOM      6  C   UNL     1       3.038  -1.898   0.064  0.00  0.00    +0.026 A 
ATOM      7  C   UNL     1       3.790  -1.696  -1.089  0.00  0.00    +0.062 A 
ATOM      8  C   UNL     1       5.153  -1.960  -1.080  0.00  0.00    +0.134 A 
ATOM      9  C   UNL     1       5.774  -2.444   0.041  0.00  0.00    +0.044 A 
ATOM     10  S   UNL     1       6.054  -1.607  -2.556  0.00  0.00    +0.102 S 
ATOM     11  O   UNL     1       7.216  -0.886  -2.171  0.00  0.00    -0.146 OA
ATOM     12  O   UNL     1       6.109  -2.812  -3.308  0.00  0.00    -0.146 OA
ATOM     13  N   UNL     1       5.088  -0.557  -3.394  0.00  0.00    -0.118 NA
ATOM     14  C   UNL     1       3.806  -0.468  -3.162  0.00  0.00    +0.124 C 
ATOM     15  N   UNL     1       3.159  -1.243  -2.266  0.00  0.00    -0.286 N 
ATOM     16  C   UNL     1       1.801  -1.730  -2.414  0.00  0.00    +0.112 C 
ATOM     17  C   UNL     1       1.200  -1.940  -3.733  0.00  0.00    +0.019 C 
ATOM     18  C   UNL     1       1.323  -1.002  -4.876  0.00  0.00    +0.002 C 
ATOM     19  C   UNL     1       1.825   0.396  -4.654  0.00  0.00    +0.008 C 
ATOM     20  C   UNL     1       3.100   0.544  -3.955  0.00  0.00    +0.073 C 
ENDBRANCH   2   4
BRANCH   1  23
ATOM     21  N   UNL     1       1.318  -3.818   3.786  0.00  0.00    -0.280 N 
ATOM     22  C   UNL     1       2.660  -3.611   4.006  0.00  0.00    +0.127 A 
ATOM     23  C   UNL     1       3.576  -4.109   3.102  0.00  0.00    +0.140 A 
ATOM     24  C   UNL     1       3.106  -4.815   1.978  0.00  0.00    +0.277 A 
ATOM     25  O   UNL     1       3.894  -5.266   1.164  0.00  0.00    -0.266 OA
ATOM     26  N   UNL     1       1.781  -4.990   1.810  0.00  0.00    -0.273 N 
ATOM     27  H   UNL     1       1.456  -5.476   1.036  0.00  0.00    +0.173 HD
ATOM     28  C   UNL     1       0.903  -4.502   2.704  0.00  0.00    +0.331 A 
ATOM     29  O   UNL     1      -0.287  -4.679   2.530  0.00  0.00    -0.246 OA
BRANCH  22  30
ATOM     30  N   UNL     1       3.084  -2.917   5.114  0.00  0.00    -0.343 N 
ATOM     31  H   UNL     1       2.434  -2.531   5.723  0.00  0.00    +0.144 HD
ATOM     32  H   UNL     1       4.032  -2.812   5.288  0.00  0.00    +0.144 HD
ENDBRANCH  22  30
BRANCH  21  33
ATOM     33  C   UNL     1       0.335  -3.295   4.738  0.00  0.00    +0.128 C 
BRANCH  33  34
ATOM     34  C   UNL     1       0.065  -4.343   5.819  0.00  0.00    +0.021 C 
BRANCH  34  36
ATOM     35  C   UNL     1      -1.232  -4.845   7.895  0.00  0.00    +0.004 C 
ATOM     36  C   UNL     1      -0.962  -3.797   6.813  0.00  0.00    -0.002 C 
ENDBRANCH  34  36
ENDBRANCH  33  34
ENDBRANCH  21  33
ENDBRANCH   1  23
BRANCH   1  37
ATOM     37  C   UNL     1       5.624  -4.508   4.462  0.00  0.00    +0.114 C 
BRANCH  37  38
ATOM     38  C   UNL     1       6.258  -5.841   4.060  0.00  0.00    +0.019 C 
BRANCH  38  39
ATOM     39  C   UNL     1       6.952  -6.462   5.274  0.00  0.00    -0.002 C 
ATOM     40  C   UNL     1       7.586  -7.795   4.872  0.00  0.00    +0.004 C 
ENDBRANCH  38  39
ENDBRANCH  37  38
ENDBRANCH   1  37
TORSDOF 9
