REMARK  Name = ZINC14622175
REMARK  9 active torsions:
REMARK  status: ('A' for Active; 'I' for Inactive)
REMARK    1  A    between atoms: C_1  and  C_2
REMARK    2  A    between atoms: C_4  and  C_32
REMARK    3  A    between atoms: C_5  and  C_31
REMARK    4  A    between atoms: C_6  and  S_9
REMARK    5  A    between atoms: C_7  and  C_8
REMARK    6  A    between atoms: S_9  and  N_12
REMARK    7  A    between atoms: C_15  and  C_18
REMARK    8  A    between atoms: N_20  and  N_21
REMARK    9  A    between atoms: C_22  and  C_24
REMARK                            x       y       z     vdW  Elec       q    Type
REMARK                         _______ _______ _______ _____ _____    ______ ____
ROOT
ATOM      1  N   UNL     1       0.058  -0.572   0.857  0.00  0.00    -0.177 NA
ATOM      2  C   UNL     1      -1.214  -0.400   0.143  0.00  0.00    +0.110 C 
ATOM      3  C   UNL     1      -1.526   1.097   0.043  0.00  0.00    +0.030 C 
ATOM      4  C   UNL     1      -0.340   1.819  -0.602  0.00  0.00    +0.079 C 
ATOM      5  C   UNL     1       0.904   1.641   0.272  0.00  0.00    +0.030 C 
ATOM      6  C   UNL     1       1.243   0.151   0.374  0.00  0.00    +0.110 C 
ENDROOT
BRANCH   4   7
ATOM      7  C   UNL     1      -0.656   3.286  -0.733  0.00  0.00    +0.232 C 
ATOM      8  O   UNL     1      -1.725   3.713  -0.348  0.00  0.00    -0.274 OA
ATOM      9  N   UNL     1       0.248   4.124  -1.277  0.00  0.00    -0.234 N 
ATOM     10  H   UNL     1       1.102   3.783  -1.585  0.00  0.00    +0.173 HD
BRANCH   9  11
ATOM     11  N   UNL     1      -0.046   5.489  -1.399  0.00  0.00    -0.230 N 
ATOM     12  C   UNL     1       0.858   6.327  -1.943  0.00  0.00    +0.260 C 
ATOM     13  O   UNL     1       1.928   5.900  -2.328  0.00  0.00    -0.269 OA
ATOM     14  H   UNL     1      -0.901   5.830  -1.091  0.00  0.00    +0.173 HD
BRANCH  12  15
ATOM     15  C   UNL     1       0.547   7.767  -2.072  0.00  0.00    +0.040 A 
ATOM     16  C   UNL     1      -0.684   8.260  -1.635  0.00  0.00    +0.013 A 
ATOM     17  C   UNL     1      -0.966   9.605  -1.753  0.00  0.00    +0.002 A 
ATOM     18  C   UNL     1      -0.036  10.464  -2.312  0.00  0.00    +0.020 A 
ATOM     19  C   UNL     1       1.185   9.981  -2.752  0.00  0.00    +0.042 A 
ATOM     20  C   UNL     1       1.481   8.637  -2.635  0.00  0.00    +0.033 A 
ATOM     21 CL   UNL     1       2.344  11.067  -3.452  0.00  0.00    -0.084 Cl
ENDBRANCH  12  15
ENDBRANCH   9  11
ENDBRANCH   4   7
BRANCH   1  22
ATOM     22  S   UNL     1       0.155  -1.560   2.183  0.00  0.00    +0.061 S 
ATOM     23  O   UNL     1       1.262  -1.106   2.948  0.00  0.00    -0.153 OA
ATOM     24  O   UNL     1      -1.158  -1.648   2.720  0.00  0.00    -0.153 OA
BRANCH  22  30
ATOM     25  C   UNL     1       3.633  -5.352   1.264  0.00  0.00    +0.044 C 
ATOM     26  C   UNL     1       2.205  -4.873   1.202  0.00  0.00    -0.045 A 
ATOM     27  C   UNL     1       1.222  -5.698   0.690  0.00  0.00    +0.007 A 
ATOM     28  C   UNL     1      -0.088  -5.259   0.633  0.00  0.00    -0.045 A 
ATOM     29  C   UNL     1      -0.414  -3.996   1.089  0.00  0.00    -0.021 A 
ATOM     30  C   UNL     1       0.570  -3.171   1.602  0.00  0.00    +0.112 A 
ATOM     31  C   UNL     1       1.880  -3.608   1.654  0.00  0.00    -0.021 A 
ATOM     32  C   UNL     1       2.954  -2.706   2.207  0.00  0.00    +0.046 C 
ATOM     33  C   UNL     1      -1.841  -3.517   1.027  0.00  0.00    +0.046 C 
ATOM     34  C   UNL     1      -1.161  -6.159   0.075  0.00  0.00    +0.044 C 
ENDBRANCH  22  30
ENDBRANCH   1  22
TORSDOF 5
