REMARK  Name = ZINC01803132
REMARK  14 active torsions:
REMARK  status: ('A' for Active; 'I' for Inactive)
REMARK    1  A    between atoms: C_1  and  C_2
REMARK    2  A    between atoms: C_2  and  C_3
REMARK    3  A    between atoms: C_11  and  C_12
REMARK    4  A    between atoms: C_15  and  O_20
REMARK    5  A    between atoms: C_16  and  O_18
REMARK    6  A    between atoms: O_18  and  C_19
REMARK    7  A    between atoms: O_20  and  C_21
REMARK    8  A    between atoms: C_21  and  C_22
REMARK    9  A    between atoms: C_22  and  O_23
REMARK   10  A    between atoms: O_23  and  C_24
REMARK   11  A    between atoms: C_26  and  C_33
REMARK   12  A    between atoms: C_29  and  C_30
REMARK   13  A    between atoms: C_30  and  C_31
REMARK   14  A    between atoms: C_30  and  C_32
REMARK                            x       y       z     vdW  Elec       q    Type
REMARK                         _______ _______ _______ _____ _____    ______ ____
ROOT
ATOM      1  C   UNL     1       6.397  -6.580  -2.578  0.00  0.00    -0.021 A 
ATOM      2  C   UNL     1       6.612  -6.777  -1.207  0.00  0.00    +0.012 A 
ATOM      3  C   UNL     1       7.310  -7.880  -0.772  0.00  0.00    +0.050 A 
ATOM      4  C   UNL     1       7.803  -8.801  -1.689  0.00  0.00    +0.162 A 
ATOM      5  C   UNL     1       7.594  -8.613  -3.055  0.00  0.00    +0.162 A 
ATOM      6  C   UNL     1       6.890  -7.513  -3.501  0.00  0.00    +0.057 A 
ENDROOT
BRANCH   1  15
ATOM      7  C   UNL     1       2.661   0.435  -0.074  0.00  0.00    +0.007 C 
ATOM      8  C   UNL     1       3.572  -0.485  -0.379  0.00  0.00    +0.092 A 
ATOM      9  N   UNL     1       3.604  -1.365  -1.463  0.00  0.00    -0.283 N 
ATOM     10  H   UNL     1       2.876  -1.388  -2.104  0.00  0.00    +0.188 HD
ATOM     11  N   UNL     1       4.693  -2.200  -1.604  0.00  0.00    -0.212 N 
ATOM     12  C   UNL     1       4.941  -3.025  -2.721  0.00  0.00    +0.160 A 
ATOM     13  N   UNL     1       4.457  -2.788  -3.911  0.00  0.00    -0.281 NA
ATOM     14  C   UNL     1       5.809  -4.196  -2.408  0.00  0.00    +0.085 A 
ATOM     15  C   UNL     1       5.654  -5.407  -3.044  0.00  0.00    +0.025 C 
ATOM     16  C   UNL     1       6.851  -3.984  -1.372  0.00  0.00    +0.283 A 
ATOM     17  O   UNL     1       7.858  -4.671  -1.347  0.00  0.00    -0.265 OA
ATOM     18  N   UNL     1       6.652  -3.009  -0.460  0.00  0.00    -0.182 NA
ATOM     19  C   UNL     1       5.623  -2.213  -0.582  0.00  0.00    +0.199 A 
ATOM     20  S   UNL     1       5.074  -0.911   0.490  0.00  0.00    -0.031 S 
ATOM     21  H   UNL     1       3.897  -2.010  -4.060  0.00  0.00    +0.188 HD
BRANCH   7  23
ATOM     22  C   UNL     1       2.778   2.766   0.765  0.00  0.00    +0.008 C 
ATOM     23  C   UNL     1       2.833   1.288   1.157  0.00  0.00    +0.026 C 
ENDBRANCH   7  23
ENDBRANCH   1  15
BRANCH   5  24
ATOM     24  O   UNL     1       8.079  -9.517  -3.948  0.00  0.00    -0.491 OA
ATOM     25  C   UNL     1       7.828  -9.261  -5.332  0.00  0.00    +0.277 C 
ENDBRANCH   5  24
BRANCH   4  26
ATOM     26  O   UNL     1       8.491  -9.887  -1.253  0.00  0.00    -0.485 OA
BRANCH  26  27
ATOM     27  C   UNL     1       8.670 -10.019   0.158  0.00  0.00    +0.270 C 
BRANCH  27  28
ATOM     28  C   UNL     1       9.462 -11.294   0.456  0.00  0.00    +0.270 C 
BRANCH  28  29
ATOM     29  O   UNL     1      10.780 -11.171  -0.083  0.00  0.00    -0.488 OA
BRANCH  29  30
ATOM     30  C   UNL     1      11.620 -12.225   0.096  0.00  0.00    +0.124 A 
ATOM     31  C   UNL     1      11.182 -13.356   0.770  0.00  0.00    +0.049 A 
ATOM     32  C   UNL     1      12.037 -14.426   0.949  0.00  0.00    -0.047 A 
ATOM     33  C   UNL     1      13.328 -14.371   0.458  0.00  0.00    +0.004 A 
ATOM     34  C   UNL     1      13.767 -13.245  -0.214  0.00  0.00    +0.008 A 
ATOM     35  C   UNL     1      12.914 -12.175  -0.401  0.00  0.00    -0.003 A 
ATOM     36  C   UNL     1      11.562 -15.655   1.681  0.00  0.00    +0.044 C 
BRANCH  35  37
ATOM     37  C   UNL     1      13.391 -10.950  -1.138  0.00  0.00    +0.016 C 
ATOM     38  C   UNL     1      14.592 -10.348  -0.405  0.00  0.00    +0.012 C 
ATOM     39  C   UNL     1      13.804 -11.339  -2.559  0.00  0.00    +0.012 C 
ENDBRANCH  35  37
ENDBRANCH  29  30
ENDBRANCH  28  29
ENDBRANCH  27  28
ENDBRANCH  26  27
ENDBRANCH   4  26
TORSDOF 9
