REMARK  Name = ZINC04736099
REMARK  9 active torsions:
REMARK  status: ('A' for Active; 'I' for Inactive)
REMARK    1  A    between atoms: C_1  and  C_2
REMARK    2  A    between atoms: C_7  and  N_8
REMARK    3  A    between atoms: C_9  and  C_11
REMARK    4  A    between atoms: C_11  and  S_12
REMARK    5  A    between atoms: S_12  and  C_13
REMARK    6  A    between atoms: C_16  and  C_21
REMARK    7  A    between atoms: N_17  and  C_18
REMARK    8  A    between atoms: C_18  and  C_19
REMARK    9  A    between atoms: C_18  and  C_20
REMARK                            x       y       z     vdW  Elec       q    Type
REMARK                         _______ _______ _______ _____ _____    ______ ____
ROOT
ATOM      1  S   UNL     1      -5.062   0.939  -0.304  0.00  0.00    -0.077 S 
ENDROOT
BRANCH   1   2
ATOM      2  C   UNL     1      -6.428   2.047  -0.410  0.00  0.00    +0.193 A 
ATOM      3  N   UNL     1      -6.370   3.360  -0.391  0.00  0.00    -0.122 NA
ATOM      4  N   UNL     1      -7.551   3.857  -0.491  0.00  0.00    -0.125 NA
ATOM      5  C   UNL     1      -8.439   2.890  -0.571  0.00  0.00    +0.201 A 
ATOM      6  N   UNL     1      -7.746   1.701  -0.521  0.00  0.00    -0.297 N 
BRANCH   5   7
ATOM      7  C   UNL     1      -9.897   3.049  -0.690  0.00  0.00    +0.172 A 
ATOM      8  C   UNL     1     -10.599   4.192  -0.449  0.00  0.00    +0.053 A 
ATOM      9  C   UNL     1     -11.954   3.892  -0.687  0.00  0.00    +0.042 A 
ATOM     10  C   UNL     1     -12.015   2.595  -1.050  0.00  0.00    +0.196 A 
ATOM     11  O   UNL     1     -10.771   2.089  -1.050  0.00  0.00    -0.460 OA
ENDBRANCH   5   7
BRANCH   6  12
ATOM     12  C   UNL     1      -8.304   0.347  -0.576  0.00  0.00    +0.085 C 
ATOM     13  C   UNL     1      -7.731  -0.392  -1.786  0.00  0.00    +0.030 C 
ATOM     14  C   UNL     1      -7.938  -0.407   0.704  0.00  0.00    +0.030 C 
ENDBRANCH   6  12
ENDBRANCH   1   2
BRANCH   1  15
ATOM     15  C   UNL     1      -3.702   2.127  -0.184  0.00  0.00    +0.173 C 
BRANCH  15  17
ATOM     16  N   UNL     1      -1.238   2.069   0.019  0.00  0.00    -0.285 N 
ATOM     17  C   UNL     1      -2.395   1.385  -0.081  0.00  0.00    +0.227 C 
ATOM     18  O   UNL     1      -2.383   0.172  -0.088  0.00  0.00    -0.275 OA
ATOM     19  H   UNL     1      -1.251   3.037   0.090  0.00  0.00    +0.155 HD
BRANCH  16  26
ATOM     20  C   UNL     1       0.999   3.305  -1.232  0.00  0.00    +0.046 C 
ATOM     21  C   UNL     1       1.099   1.950  -0.581  0.00  0.00    -0.028 A 
ATOM     22  C   UNL     1       2.301   1.269  -0.584  0.00  0.00    +0.025 A 
ATOM     23  C   UNL     1       2.393   0.024   0.013  0.00  0.00    +0.041 A 
ATOM     24  C   UNL     1       1.282  -0.543   0.614  0.00  0.00    +0.022 A 
ATOM     25  C   UNL     1       0.078   0.134   0.619  0.00  0.00    +0.025 A 
ATOM     26  C   UNL     1      -0.017   1.384   0.021  0.00  0.00    +0.036 A 
ATOM     27 CL   UNL     1       3.905  -0.830   0.008  0.00  0.00    -0.084 Cl
ENDBRANCH  16  26
ENDBRANCH  15  17
ENDBRANCH   1  15
TORSDOF 6
