REMARK  Name = ZINC15841527
REMARK  6 active torsions:
REMARK  status: ('A' for Active; 'I' for Inactive)
REMARK    1  A    between atoms: C_1  and  C_2
REMARK    2  A    between atoms: C_2  and  C_3
REMARK    3  A    between atoms: C_3  and  C_26
REMARK    4  A    between atoms: C_11  and  N_15
REMARK    5  A    between atoms: C_12  and  C_13
REMARK    6  A    between atoms: N_18  and  C_19
REMARK                            x       y       z     vdW  Elec       q    Type
REMARK                         _______ _______ _______ _____ _____    ______ ____
ROOT
ATOM      1  C   UNL     1       1.242  -0.558  -0.954  0.00  0.00    +0.008 C 
ATOM      2  C   UNL     1       0.061  -0.068  -0.121  0.00  0.00    +0.047 C 
ATOM      3  C   UNL     1       0.031   1.437  -0.091  0.00  0.00    -0.038 A 
ATOM      4  C   UNL     1      -1.171   2.112  -0.067  0.00  0.00    +0.004 A 
ATOM      5  C   UNL     1      -1.187   3.496  -0.030  0.00  0.00    +0.000 A 
ATOM      6  C   UNL     1      -0.002   4.210  -0.010  0.00  0.00    +0.001 A 
ATOM      7  C   UNL     1       1.208   3.547  -0.035  0.00  0.00    +0.010 A 
ATOM      8  C   UNL     1       1.230   2.153  -0.083  0.00  0.00    +0.000 A 
ATOM      9  C   UNL     1       2.510   1.420  -0.134  0.00  0.00    +0.056 C 
ATOM     10  C   UNL     1       2.515   0.118  -0.523  0.00  0.00    +0.057 C 
ATOM     11  C   UNL     1       0.982  -0.247  -2.429  0.00  0.00    +0.017 C 
ENDROOT
BRANCH   9  12
ATOM     12  N   UNL     1       3.693   2.053   0.209  0.00  0.00    -0.268 N 
ATOM     13  C   UNL     1       3.842   2.579   1.441  0.00  0.00    +0.308 C 
ATOM     14  O   UNL     1       2.978   2.416   2.281  0.00  0.00    -0.252 OA
ATOM     15  N   UNL     1       4.950   3.285   1.742  0.00  0.00    -0.267 N 
ATOM     16  H   UNL     1       4.413   2.117  -0.437  0.00  0.00    +0.156 HD
ATOM     17  H   UNL     1       5.667   3.363   1.093  0.00  0.00    +0.156 HD
BRANCH  15  18
ATOM     18  C   UNL     1       5.066   3.906   2.992  0.00  0.00    +0.070 A 
ATOM     19  C   UNL     1       4.522   3.308   4.120  0.00  0.00    +0.026 A 
ATOM     20  C   UNL     1       4.638   3.923   5.351  0.00  0.00    +0.002 A 
ATOM     21  C   UNL     1       5.296   5.134   5.463  0.00  0.00    +0.003 A 
ATOM     22  C   UNL     1       5.841   5.734   4.342  0.00  0.00    +0.040 A 
ATOM     23  C   UNL     1       5.732   5.122   3.107  0.00  0.00    +0.145 A 
ATOM     24  F   UNL     1       6.269   5.705   2.013  0.00  0.00    -0.204 F 
ENDBRANCH  15  18
ENDBRANCH   9  12
BRANCH   1  26
ATOM     25  C   UNL     1       0.069  -2.757  -1.128  0.00  0.00    +0.005 C 
ATOM     26  C   UNL     1       1.391  -2.071  -0.777  0.00  0.00    +0.009 C 
ENDBRANCH   1  26
BRANCH  10  27
ATOM     27  C   UNL     1       3.744  -0.618  -0.523  0.00  0.00    +0.097 C 
ATOM     28  N   UNL     1       4.719  -1.201  -0.522  0.00  0.00    -0.191 NA
ENDBRANCH  10  27
TORSDOF 4
