REMARK  Name = ZINC36044982
REMARK  13 active torsions:
REMARK  status: ('A' for Active; 'I' for Inactive)
REMARK    1  A    between atoms: C_1  and  C_2
REMARK    2  A    between atoms: C_5  and  N_8
REMARK    3  A    between atoms: C_10  and  C_32
REMARK    4  A    between atoms: N_13  and  C_14
REMARK    5  A    between atoms: C_14  and  C_16
REMARK    6  A    between atoms: C_16  and  N_17
REMARK    7  A    between atoms: N_17  and  C_18
REMARK    8  A    between atoms: C_18  and  C_19
REMARK    9  A    between atoms: C_19  and  N_20
REMARK   10  A    between atoms: N_20  and  C_21
REMARK   11  A    between atoms: N_20  and  C_22
REMARK   12  A    between atoms: C_23  and  C_25
REMARK   13  A    between atoms: C_30  and  C_31
REMARK                            x       y       z     vdW  Elec       q    Type
REMARK                         _______ _______ _______ _____ _____    ______ ____
ROOT
ATOM      1  N   UNL     1      -0.049  -4.159  -0.036  0.00  0.00    -0.287 N 
ATOM      2  C   UNL     1       0.046  -4.974  -1.146  0.00  0.00    +0.120 A 
ATOM      3  C   UNL     1       0.176  -6.243  -0.721  0.00  0.00    +0.066 A 
ATOM      4  N   UNL     1       0.162  -6.232   0.668  0.00  0.00    -0.326 N 
ATOM      5  C   UNL     1       0.029  -4.942   1.073  0.00  0.00    +0.205 A 
ATOM      6  N   UNL     1      -0.019  -4.519   2.336  0.00  0.00    -0.145 NA
ATOM      7  H   UNL     1       0.238  -7.007   1.246  0.00  0.00    +0.169 HD
ENDROOT
BRANCH   1  12
ATOM      8  C   UNL     1      -0.642   1.484  -0.091  0.00  0.00    +0.044 C 
ATOM      9  C   UNL     1      -0.484  -0.014  -0.077  0.00  0.00    -0.050 A 
ATOM     10  C   UNL     1      -0.407  -0.712  -1.268  0.00  0.00    +0.005 A 
ATOM     11  C   UNL     1      -0.262  -2.085  -1.258  0.00  0.00    +0.026 A 
ATOM     12  C   UNL     1      -0.195  -2.766  -0.050  0.00  0.00    +0.049 A 
ATOM     13  C   UNL     1      -0.273  -2.063   1.145  0.00  0.00    +0.026 A 
ATOM     14  C   UNL     1      -0.412  -0.689   1.128  0.00  0.00    +0.005 A 
ENDBRANCH   1  12
BRANCH   3  15
ATOM     15  C   UNL     1       0.308  -7.440  -1.581  0.00  0.00    -0.000 A 
ATOM     16  C   UNL     1       0.311  -7.307  -2.970  0.00  0.00    +0.010 A 
ATOM     17  C   UNL     1       0.435  -8.427  -3.767  0.00  0.00    +0.001 A 
ATOM     18  C   UNL     1       0.555  -9.679  -3.191  0.00  0.00    +0.000 A 
ATOM     19  C   UNL     1       0.552  -9.817  -1.814  0.00  0.00    +0.001 A 
ATOM     20  C   UNL     1       0.436  -8.705  -1.007  0.00  0.00    +0.010 A 
ENDBRANCH   3  15
BRANCH   6  21
ATOM     21  C   UNL     1       0.069  -5.391   3.333  0.00  0.00    +0.256 C 
ATOM     22  O   UNL     1       0.194  -6.577   3.093  0.00  0.00    -0.272 OA
BRANCH  21  23
ATOM     23  C   UNL     1       0.014  -4.913   4.760  0.00  0.00    +0.205 C 
BRANCH  23  24
ATOM     24  N   UNL     1       0.132  -6.059   5.665  0.00  0.00    -0.290 N 
ATOM     25  C   UNL     1      -0.975  -6.708   6.077  0.00  0.00    +0.247 C 
ATOM     26  O   UNL     1      -2.063  -6.396   5.634  0.00  0.00    -0.270 OA
BRANCH  25  27
ATOM     27  C   UNL     1      -0.866  -7.800   7.068  0.00  0.00    +0.040 A 
ATOM     28  C   UNL     1      -0.085  -8.923   6.791  0.00  0.00    +0.013 A 
ATOM     29  C   UNL     1       0.013  -9.938   7.720  0.00  0.00    +0.001 A 
ATOM     30  C   UNL     1      -0.661  -9.844   8.925  0.00  0.00    +0.000 A 
ATOM     31  C   UNL     1      -1.437  -8.734   9.206  0.00  0.00    +0.004 A 
ATOM     32  C   UNL     1      -1.539  -7.709   8.288  0.00  0.00    -0.038 A 
ATOM     33  C   UNL     1      -2.379  -6.497   8.598  0.00  0.00    +0.044 C 
ENDBRANCH  25  27
BRANCH  24  34
ATOM     34  C   UNL     1       1.452  -6.500   6.121  0.00  0.00    +0.090 C 
BRANCH  34  35
ATOM     35  C   UNL     1       1.860  -5.695   7.357  0.00  0.00    -0.060 C 
BRANCH  35  36
ATOM     36  N   UNL     1       3.184  -6.137   7.814  0.00  0.00    +0.377 N 
ATOM     37  C   UNL     1       4.188  -5.815   6.792  0.00  0.00    -0.097 C 
ATOM     38  C   UNL     1       3.523  -5.450   9.068  0.00  0.00    -0.097 C 
ATOM     39  H   UNL     1       3.170  -7.134   7.970  0.00  0.00    -0.083 HD
ENDBRANCH  35  36
ENDBRANCH  34  35
ENDBRANCH  24  34
ENDBRANCH  23  24
ENDBRANCH  21  23
ENDBRANCH   6  21
TORSDOF 9
