REMARK  Name = ZINC08462731
REMARK  15 active torsions:
REMARK  status: ('A' for Active; 'I' for Inactive)
REMARK    1  A    between atoms: C_1  and  C_2
REMARK    2  A    between atoms: C_2  and  N_64
REMARK    3  A    between atoms: C_3  and  C_4
REMARK    4  A    between atoms: C_3  and  N_64
REMARK    5  A    between atoms: C_5  and  C_6
REMARK    6  A    between atoms: C_5  and  N_64
REMARK    7  A    between atoms: C_6  and  C_7
REMARK    8  A    between atoms: C_7  and  N_8
REMARK    9  A    between atoms: C_9  and  C_23
REMARK   10  A    between atoms: C_12  and  C_13
REMARK   11  A    between atoms: C_12  and  O_18
REMARK   12  A    between atoms: C_26  and  O_29
REMARK   13  A    between atoms: O_29  and  C_30
REMARK   14  A    between atoms: C_30  and  C_31
REMARK   15  A    between atoms: C_30  and  C_32
REMARK                            x       y       z     vdW  Elec       q    Type
REMARK                         _______ _______ _______ _____ _____    ______ ____
ROOT
ATOM      1  N   UNL     1       1.959   1.945   0.985  0.00  0.00    -0.284 N 
ATOM      2  C   UNL     1       1.980   0.508   0.698  0.00  0.00    +0.145 C 
ATOM      3  C   UNL     1       1.283  -0.174   1.853  0.00  0.00    +0.074 C 
ATOM      4  C   UNL     1       1.069  -1.536   2.010  0.00  0.00    +0.168 C 
ATOM      5  C   UNL     1       0.898   0.843   2.732  0.00  0.00    +0.249 C 
ATOM      6  O   UNL     1       0.307   0.690   3.787  0.00  0.00    -0.282 OA
ATOM      7  C   UNL     1       1.335   2.144   2.160  0.00  0.00    +0.288 C 
ATOM      8  O   UNL     1       1.154   3.227   2.677  0.00  0.00    -0.266 OA
ENDROOT
BRANCH   2   9
ATOM      9  C   UNL     1       3.403   0.022   0.594  0.00  0.00    -0.022 A 
ATOM     10  C   UNL     1       4.322   0.367   1.567  0.00  0.00    +0.009 A 
ATOM     11  C   UNL     1       5.626  -0.081   1.477  0.00  0.00    +0.046 A 
ATOM     12  C   UNL     1       6.015  -0.868   0.403  0.00  0.00    +0.121 A 
ATOM     13  C   UNL     1       5.091  -1.208  -0.575  0.00  0.00    +0.046 A 
ATOM     14  C   UNL     1       3.788  -0.762  -0.477  0.00  0.00    +0.009 A 
BRANCH  12  15
ATOM     15  O   UNL     1       7.298  -1.305   0.309  0.00  0.00    -0.489 OA
BRANCH  15  16
ATOM     16  C   UNL     1       8.232  -0.786   1.258  0.00  0.00    +0.167 C 
ATOM     17  C   UNL     1       8.123  -1.575   2.564  0.00  0.00    +0.051 C 
ATOM     18  C   UNL     1       9.651  -0.914   0.701  0.00  0.00    +0.051 C 
ENDBRANCH  15  16
ENDBRANCH  12  15
ENDBRANCH   2   9
BRANCH   4  19
ATOM     19  C   UNL     1       1.324  -2.422   0.935  0.00  0.00    +0.169 A 
ATOM     20  C   UNL     1       1.727  -3.739   1.043  0.00  0.00    +0.053 A 
ATOM     21  C   UNL     1       1.855  -4.225  -0.265  0.00  0.00    +0.042 A 
ATOM     22  C   UNL     1       1.542  -3.209  -1.102  0.00  0.00    +0.196 A 
ATOM     23  O   UNL     1       1.224  -2.128  -0.379  0.00  0.00    -0.460 OA
ENDBRANCH   4  19
BRANCH   4  24
ATOM     24  O   UNL     1       0.615  -2.017   3.189  0.00  0.00    -0.503 OA
ATOM     25  H   UNL     1       0.518  -3.011   3.128  0.00  0.00    +0.292 HD
ENDBRANCH   4  24
BRANCH   1  26
ATOM     26  C   UNL     1       2.525   2.993   0.132  0.00  0.00    +0.107 C 
BRANCH  26  27
ATOM     27  C   UNL     1       1.461   3.477  -0.855  0.00  0.00    +0.000 C 
BRANCH  27  28
ATOM     28  C   UNL     1       2.053   4.571  -1.746  0.00  0.00    -0.077 C 
BRANCH  28  29
ATOM     29  N   UNL     1       1.021   5.013  -2.707  0.00  0.00    +0.379 N 
ATOM     30  H   UNL     1       0.633   4.189  -3.182  0.00  0.00    -0.082 HD
BRANCH  29  32
ATOM     31  C   UNL     1       0.446   7.014  -1.374  0.00  0.00    -0.017 C 
ATOM     32  C   UNL     1      -0.068   5.713  -1.993  0.00  0.00    -0.082 C 
ENDBRANCH  29  32
BRANCH  29  33
ATOM     33  C   UNL     1       1.621   5.910  -3.716  0.00  0.00    -0.082 C 
ATOM     34  C   UNL     1       0.686   5.985  -4.925  0.00  0.00    -0.017 C 
ENDBRANCH  29  33
ENDBRANCH  28  29
ENDBRANCH  27  28
ENDBRANCH  26  27
ENDBRANCH   1  26
TORSDOF 11
