REMARK  Name = ZINC39674074
REMARK  10 active torsions:
REMARK  status: ('A' for Active; 'I' for Inactive)
REMARK    1  A    between atoms: C_1  and  C_2
REMARK    2  A    between atoms: C_4  and  C_12
REMARK    3  A    between atoms: C_12  and  C_13
REMARK    4  A    between atoms: C_13  and  N_14
REMARK    5  A    between atoms: C_15  and  C_17
REMARK    6  A    between atoms: C_28  and  C_30
REMARK    7  A    between atoms: C_32  and  O_38
REMARK    8  A    between atoms: C_35  and  O_36
REMARK    9  A    between atoms: O_36  and  C_37
REMARK   10  A    between atoms: O_38  and  C_39
REMARK                            x       y       z     vdW  Elec       q    Type
REMARK                         _______ _______ _______ _____ _____    ______ ____
ROOT
ATOM      1  C   UNL     1      -5.413   3.609   3.660  0.00  0.00    +0.100 C 
ATOM      2  C   UNL     1      -6.839   3.454   3.084  0.00  0.00    +0.121 C 
ATOM      3  N   UNL     1      -7.710   4.173   4.043  0.00  0.00    -0.296 N 
ATOM      4  C   UNL     1      -6.928   5.375   4.422  0.00  0.00    +0.115 C 
ATOM      5  C   UNL     1      -5.476   4.871   4.537  0.00  0.00    -0.004 C 
ATOM      6  C   UNL     1      -5.151   4.523   5.986  0.00  0.00    -0.010 C 
ATOM      7  C   UNL     1      -5.164   5.802   6.828  0.00  0.00    -0.082 C 
ATOM      8  N   UNL     1      -4.176   6.750   6.297  0.00  0.00    +0.379 N 
ATOM      9  C   UNL     1      -4.547   7.150   4.935  0.00  0.00    -0.082 C 
ATOM     10  C   UNL     1      -4.508   5.928   4.013  0.00  0.00    -0.010 C 
ATOM     11  C   UNL     1      -8.936   3.816   4.474  0.00  0.00    +0.250 C 
ATOM     12  O   UNL     1      -9.408   2.745   4.144  0.00  0.00    -0.270 OA
ATOM     13  H   UNL     1      -4.143   7.566   6.889  0.00  0.00    -0.086 HD
ATOM     14  H   UNL     1      -3.267   6.312   6.282  0.00  0.00    -0.086 HD
ENDROOT
BRANCH  11  15
ATOM     15  C   UNL     1      -9.705   4.724   5.346  0.00  0.00    +0.082 A 
ATOM     16  C   UNL     1      -9.613   6.107   5.174  0.00  0.00    +0.062 A 
ATOM     17  C   UNL     1     -10.337   6.952   5.994  0.00  0.00    +0.121 A 
ATOM     18  C   UNL     1     -11.156   6.429   6.988  0.00  0.00    +0.049 A 
ATOM     19  C   UNL     1     -11.253   5.064   7.164  0.00  0.00    +0.050 A 
ATOM     20  C   UNL     1     -10.537   4.203   6.346  0.00  0.00    +0.132 A 
BRANCH  20  21
ATOM     21  O   UNL     1     -10.637   2.860   6.516  0.00  0.00    -0.494 OA
ATOM     22  C   UNL     1     -11.504   2.401   7.556  0.00  0.00    +0.277 C 
ENDBRANCH  20  21
BRANCH  17  23
ATOM     23  O   UNL     1     -10.248   8.299   5.828  0.00  0.00    -0.495 OA
ATOM     24  C   UNL     1     -11.024   9.114   6.710  0.00  0.00    +0.277 C 
ENDBRANCH  17  23
ENDBRANCH  11  15
BRANCH   1  26
ATOM     25  N   UNL     1      -3.109   3.535   2.762  0.00  0.00    -0.315 N 
ATOM     26  C   UNL     1      -4.415   3.793   2.546  0.00  0.00    +0.218 C 
ATOM     27  O   UNL     1      -4.785   4.174   1.456  0.00  0.00    -0.275 OA
ATOM     28  H   UNL     1      -2.813   3.231   3.634  0.00  0.00    +0.149 HD
BRANCH  25  29
ATOM     29  C   UNL     1      -2.139   3.714   1.679  0.00  0.00    +0.109 C 
BRANCH  29  30
ATOM     30  C   UNL     1      -0.740   3.356   2.184  0.00  0.00    +0.056 C 
BRANCH  30  34
ATOM     31  C   UNL     1       0.825   5.959   1.544  0.00  0.00    +0.063 C 
ATOM     32  C   UNL     1       0.940   4.662   0.787  0.00  0.00    +0.017 A 
ATOM     33  H   UNL     1       2.336   5.119  -0.690  0.00  0.00    +0.166 HD
ATOM     34  C   UNL     1       0.259   3.540   1.071  0.00  0.00    -0.018 A 
ATOM     35  C   UNL     1       0.671   2.530   0.094  0.00  0.00    +0.003 A 
ATOM     36  C   UNL     1       0.325   1.196  -0.127  0.00  0.00    +0.010 A 
ATOM     37  C   UNL     1       0.905   0.505  -1.154  0.00  0.00    +0.001 A 
ATOM     38  C   UNL     1       1.836   1.120  -1.980  0.00  0.00    +0.002 A 
ATOM     39  C   UNL     1       2.192   2.436  -1.780  0.00  0.00    +0.026 A 
ATOM     40  C   UNL     1       1.614   3.157  -0.741  0.00  0.00    +0.047 A 
ATOM     41  N   UNL     1       1.750   4.453  -0.296  0.00  0.00    -0.358 N 
ENDBRANCH  30  34
ENDBRANCH  29  30
ENDBRANCH  25  29
ENDBRANCH   1  26
TORSDOF 7
