REMARK  Name = ZINC66285996
REMARK  6 active torsions:
REMARK  status: ('A' for Active; 'I' for Inactive)
REMARK    1  A    between atoms: C_1  and  C_2
REMARK    2  A    between atoms: C_2  and  C_4
REMARK    3  A    between atoms: C_2  and  N_23
REMARK    4  A    between atoms: C_4  and  C_5
REMARK    5  A    between atoms: C_15  and  C_17
REMARK    6  A    between atoms: C_24  and  C_26
REMARK                            x       y       z     vdW  Elec       q    Type
REMARK                         _______ _______ _______ _____ _____    ______ ____
ROOT
ATOM      1  C   UNL     1       1.274  -2.460   0.669  0.00  0.00    +0.218 C 
ATOM      2  O   UNL     1       0.644  -3.190  -0.067  0.00  0.00    -0.276 OA
ATOM      3  N   UNL     1       1.592  -2.869   1.913  0.00  0.00    -0.287 N 
ATOM      4  C   UNL     1       2.455  -2.054   2.781  0.00  0.00    +0.130 C 
ATOM      5  C   UNL     1       1.655  -1.596   4.005  0.00  0.00    +0.140 C 
ATOM      6  N   UNL     1       0.916  -2.738   4.554  0.00  0.00    -0.347 N 
ATOM      7  C   UNL     1       0.387  -2.846   5.803  0.00  0.00    +0.086 A 
ATOM      8  C   UNL     1      -0.219  -4.048   5.904  0.00  0.00    +0.019 A 
ATOM      9  C   UNL     1      -0.055  -4.709   4.669  0.00  0.00    +0.025 A 
ATOM     10  C   UNL     1       0.643  -3.890   3.868  0.00  0.00    +0.044 A 
ATOM     11  C   UNL     1       1.079  -4.145   2.447  0.00  0.00    +0.153 C 
ENDROOT
BRANCH  11  12
ATOM     12  C   UNL     1      -0.095  -4.611   1.625  0.00  0.00    -0.021 A 
ATOM     13  C   UNL     1      -1.209  -3.804   1.491  0.00  0.00    +0.006 A 
ATOM     14  C   UNL     1      -2.286  -4.232   0.737  0.00  0.00    +0.000 A 
ATOM     15  C   UNL     1      -2.248  -5.468   0.117  0.00  0.00    +0.000 A 
ATOM     16  C   UNL     1      -1.133  -6.274   0.251  0.00  0.00    +0.000 A 
ATOM     17  C   UNL     1      -0.055  -5.844   1.001  0.00  0.00    +0.006 A 
ENDBRANCH  11  12
BRANCH   1  18
ATOM     18  C   UNL     1       1.701  -1.096   0.193  0.00  0.00    +0.118 C 
BRANCH  18  20
ATOM     19  C   UNL     1       1.541   0.547  -1.684  0.00  0.00    +0.028 C 
ATOM     20  C   UNL     1       1.217  -0.882  -1.243  0.00  0.00    +0.079 C 
BRANCH  20  21
ATOM     21  N   UNL     1       1.891  -1.832  -2.132  0.00  0.00    -0.312 N 
ATOM     22  C   UNL     1       1.311  -2.196  -3.293  0.00  0.00    +0.216 C 
ATOM     23  O   UNL     1       0.231  -1.738  -3.602  0.00  0.00    -0.276 OA
ATOM     24  H   UNL     1       2.754  -2.199  -1.885  0.00  0.00    +0.149 HD
BRANCH  22  25
ATOM     25  C   UNL     1       2.003  -3.173  -4.207  0.00  0.00    +0.075 C 
ATOM     26  C   UNL     1       3.357  -2.601  -4.634  0.00  0.00    +0.013 C 
ATOM     27  C   UNL     1       4.060  -3.593  -5.562  0.00  0.00    +0.001 C 
ATOM     28  C   UNL     1       3.195  -3.834  -6.801  0.00  0.00    +0.000 C 
ATOM     29  C   UNL     1       1.842  -4.406  -6.375  0.00  0.00    +0.001 C 
ATOM     30  C   UNL     1       1.138  -3.414  -5.446  0.00  0.00    +0.013 C 
ENDBRANCH  22  25
ENDBRANCH  20  21
ENDBRANCH  18  20
ENDBRANCH   1  18
TORSDOF 5
