REMARK  Name = ZINC42658451
REMARK  10 active torsions:
REMARK  status: ('A' for Active; 'I' for Inactive)
REMARK    1  A    between atoms: C_1  and  C_2
REMARK    2  A    between atoms: C_9  and  C_11
REMARK    3  A    between atoms: N_13  and  N_14
REMARK    4  A    between atoms: C_15  and  C_17
REMARK    5  A    between atoms: C_17  and  C_18
REMARK    6  A    between atoms: C_18  and  N_19
REMARK    7  A    between atoms: C_20  and  C_22
REMARK    8  A    between atoms: C_22  and  C_23
REMARK    9  A    between atoms: C_22  and  C_24
REMARK   10  A    between atoms: C_22  and  C_25
REMARK                            x       y       z     vdW  Elec       q    Type
REMARK                         _______ _______ _______ _____ _____    ______ ____
ROOT
ATOM      1  C   UNL     1       1.932  -5.253   2.755  0.00  0.00    +0.267 C 
ATOM      2  O   UNL     1       2.879  -4.985   3.471  0.00  0.00    -0.268 OA
ATOM      3  N   UNL     1       1.542  -6.534   2.603  0.00  0.00    -0.230 N 
ATOM      4  H   UNL     1       0.787  -6.747   2.032  0.00  0.00    +0.173 HD
ENDROOT
BRANCH   1  12
ATOM      5  C   UNL     1      -0.019   1.526   0.010  0.00  0.00    +0.008 C 
ATOM      6  C   UNL     1       0.002  -0.004   0.002  0.00  0.00    -0.009 C 
ATOM      7  C   UNL     1      -1.435  -0.533   0.009  0.00  0.00    +0.009 C 
ATOM      8  C   UNL     1      -1.408  -2.041  -0.272  0.00  0.00    +0.043 C 
ATOM      9  C   UNL     1      -0.377  -2.671   0.618  0.00  0.00    -0.006 A 
ATOM     10  C   UNL     1       0.604  -2.027   1.313  0.00  0.00    -0.036 A 
ATOM     11  C   UNL     1       1.449  -2.818   2.077  0.00  0.00    +0.024 A 
ATOM     12  C   UNL     1       1.214  -4.181   2.057  0.00  0.00    +0.076 A 
ATOM     13  S   UNL     1      -0.189  -4.294   0.963  0.00  0.00    -0.088 S 
ATOM     14  C   UNL     1       0.745  -0.509   1.239  0.00  0.00    +0.039 C 
ENDBRANCH   1  12
BRANCH   3  15
ATOM     15  N   UNL     1       2.228  -7.558   3.269  0.00  0.00    -0.234 N 
ATOM     16  C   UNL     1       1.838  -8.839   3.117  0.00  0.00    +0.231 C 
ATOM     17  O   UNL     1       0.894  -9.106   2.404  0.00  0.00    -0.274 OA
ATOM     18  H   UNL     1       2.982  -7.345   3.840  0.00  0.00    +0.173 HD
BRANCH  16  19
ATOM     19  C   UNL     1       2.576  -9.941   3.834  0.00  0.00    +0.116 C 
BRANCH  19  20
ATOM     20  C   UNL     1       1.936 -11.289   3.493  0.00  0.00    +0.113 C 
BRANCH  20  21
ATOM     21  N   UNL     1       2.653 -12.360   4.190  0.00  0.00    -0.314 N 
ATOM     22  C   UNL     1       2.264 -13.641   4.038  0.00  0.00    +0.218 C 
ATOM     23  O   UNL     1       1.320 -13.907   3.324  0.00  0.00    -0.275 OA
ATOM     24  H   UNL     1       3.408 -12.146   4.760  0.00  0.00    +0.149 HD
BRANCH  22  25
ATOM     25  C   UNL     1       3.001 -14.742   4.755  0.00  0.00    +0.039 C 
ATOM     26  C   UNL     1       2.362 -16.090   4.413  0.00  0.00    +0.020 C 
ATOM     27  C   UNL     1       4.466 -14.747   4.313  0.00  0.00    +0.020 C 
ATOM     28  C   UNL     1       2.924 -14.509   6.265  0.00  0.00    +0.020 C 
ENDBRANCH  22  25
ENDBRANCH  20  21
ENDBRANCH  19  20
ENDBRANCH  16  19
ENDBRANCH   3  15
TORSDOF 6
