REMARK  Name = ZINC38784709
REMARK  4 active torsions:
REMARK  status: ('A' for Active; 'I' for Inactive)
REMARK    1  A    between atoms: C_5  and  N_7
REMARK    2  A    between atoms: C_8  and  C_10
REMARK    3  A    between atoms: C_10  and  S_11
REMARK    4  A    between atoms: S_11  and  C_12
REMARK                            x       y       z     vdW  Elec       q    Type
REMARK                         _______ _______ _______ _____ _____    ______ ____
ROOT
ATOM      1  C   UNL     1      -1.370  -6.656   0.437  0.00  0.00    +0.182 C 
ATOM      2  N   UNL     1      -0.144  -7.148   0.413  0.00  0.00    -0.151 NA
ATOM      3  C   UNL     1       0.110  -8.454   0.497  0.00  0.00    +0.272 C 
ATOM      4  O   UNL     1       1.255  -8.874   0.469  0.00  0.00    -0.268 OA
ATOM      5  C   UNL     1      -1.053  -9.390   0.628  0.00  0.00    +0.071 C 
ATOM      6  C   UNL     1      -1.022 -10.723   0.790  0.00  0.00    -0.042 C 
ATOM      7  C   UNL     1       0.256 -11.520   1.039  0.00  0.00    +0.033 C 
ATOM      8  C   UNL     1       0.034 -12.319   2.331  0.00  0.00    +0.004 C 
ATOM      9  C   UNL     1      -1.257 -13.130   2.236  0.00  0.00    +0.002 C 
ATOM     10  C   UNL     1      -2.472 -12.207   2.107  0.00  0.00    +0.019 C 
ATOM     11  C   UNL     1      -2.367 -11.443   0.784  0.00  0.00    +0.079 C 
ATOM     12  S   UNL     1      -3.548 -10.042   0.773  0.00  0.00    -0.097 S 
ATOM     13  C   UNL     1      -2.372  -8.720   0.633  0.00  0.00    +0.112 C 
ATOM     14  N   UNL     1      -2.459  -7.418   0.548  0.00  0.00    -0.217 NA
ENDROOT
BRANCH   1  15
ATOM     15  S   UNL     1      -1.576  -4.910   0.325  0.00  0.00    -0.079 S 
BRANCH  15  16
ATOM     16  C   UNL     1       0.119  -4.276   0.191  0.00  0.00    +0.173 C 
BRANCH  16  18
ATOM     17  N   UNL     1       1.237  -2.080  -0.022  0.00  0.00    -0.284 N 
ATOM     18  C   UNL     1       0.086  -2.773   0.087  0.00  0.00    +0.228 C 
ATOM     19  O   UNL     1      -0.976  -2.187   0.102  0.00  0.00    -0.275 OA
ATOM     20  H   UNL     1       2.080  -2.551  -0.115  0.00  0.00    +0.155 HD
BRANCH  17  25
ATOM     21  C   UNL     1       0.153   1.372   0.637  0.00  0.00    +0.002 A 
ATOM     22  C   UNL     1       1.173   2.086   0.035  0.00  0.00    +0.001 A 
ATOM     23  C   UNL     1       2.214   1.421  -0.586  0.00  0.00    +0.017 A 
ATOM     24  C   UNL     1       2.239   0.040  -0.607  0.00  0.00    +0.039 A 
ATOM     25  C   UNL     1       1.216  -0.681  -0.003  0.00  0.00    +0.047 A 
ATOM     26  C   UNL     1       0.172  -0.009   0.620  0.00  0.00    +0.024 A 
ATOM     27 BR   UNL     1       3.662  -0.869  -1.458  0.00  0.00    -0.048 Br
ENDBRANCH  17  25
ENDBRANCH  16  18
ENDBRANCH  15  16
ENDBRANCH   1  15
TORSDOF 4
