REMARK  Name = ZINC37905452
REMARK  4 active torsions:
REMARK  status: ('A' for Active; 'I' for Inactive)
REMARK    1  A    between atoms: C_1  and  C_2
REMARK    2  A    between atoms: C_5  and  S_8
REMARK    3  A    between atoms: S_8  and  N_11
REMARK    4  A    between atoms: C_20  and  N_21
REMARK                            x       y       z     vdW  Elec       q    Type
REMARK                         _______ _______ _______ _____ _____    ______ ____
ROOT
ATOM      1  N   UNL     1       1.651  -4.999  -0.034  0.00  0.00    -0.203 N 
ATOM      2  C   UNL     1       2.330  -5.304  -1.301  0.00  0.00    +0.132 C 
ATOM      3  C   UNL     1       3.132  -6.597  -1.104  0.00  0.00    +0.025 C 
ATOM      4  C   UNL     1       4.204  -6.356  -0.041  0.00  0.00    +0.040 C 
ATOM      5  C   UNL     1       3.593  -5.757   1.198  0.00  0.00    -0.004 A 
ATOM      6  C   UNL     1       2.369  -5.107   1.162  0.00  0.00    +0.056 A 
ATOM      7  C   UNL     1       1.836  -4.556   2.323  0.00  0.00    +0.025 A 
ATOM      8  C   UNL     1       2.525  -4.651   3.516  0.00  0.00    +0.004 A 
ATOM      9  C   UNL     1       3.746  -5.295   3.559  0.00  0.00    +0.023 A 
ATOM     10  C   UNL     1       4.280  -5.857   2.403  0.00  0.00    +0.030 A 
ENDROOT
BRANCH   1  11
ATOM     11  S   UNL     1       0.063  -4.530  -0.023  0.00  0.00    +0.075 S 
ATOM     12  O   UNL     1      -0.477  -4.953   1.222  0.00  0.00    -0.150 OA
ATOM     13  O   UNL     1      -0.489  -4.934  -1.268  0.00  0.00    -0.150 OA
BRANCH  11  18
ATOM     14  C   UNL     1      -0.018   1.503   0.022  0.00  0.00    +0.044 C 
ATOM     15  C   UNL     1       0.002  -0.004   0.011  0.00  0.00    -0.050 A 
ATOM     16  C   UNL     1       0.006  -0.686  -1.192  0.00  0.00    +0.005 A 
ATOM     17  C   UNL     1       0.025  -2.069  -1.202  0.00  0.00    +0.029 A 
ATOM     18  C   UNL     1       0.040  -2.768  -0.010  0.00  0.00    +0.109 A 
ATOM     19  C   UNL     1       0.037  -2.086   1.192  0.00  0.00    +0.029 A 
ATOM     20  C   UNL     1       0.022  -0.704   1.203  0.00  0.00    +0.005 A 
ENDBRANCH  11  18
ENDBRANCH   1  11
BRANCH  10  21
ATOM     21  N   UNL     1       5.515  -6.508   2.449  0.00  0.00    -0.358 N 
ATOM     22  H   UNL     1       5.892  -6.890   1.641  0.00  0.00    +0.142 HD
ATOM     23  H   UNL     1       5.995  -6.579   3.289  0.00  0.00    +0.142 HD
ENDBRANCH  10  21
TORSDOF 3
