REMARK  Name = ZINC19941409
REMARK  12 active torsions:
REMARK  status: ('A' for Active; 'I' for Inactive)
REMARK    1  A    between atoms: C_1  and  C_2
REMARK    2  A    between atoms: C_2  and  C_3
REMARK    3  A    between atoms: C_10  and  C_15
REMARK    4  A    between atoms: C_15  and  C_17
REMARK    5  A    between atoms: C_15  and  N_27
REMARK    6  A    between atoms: N_21  and  C_22
REMARK    7  A    between atoms: C_22  and  C_23
REMARK    8  A    between atoms: C_22  and  C_24
REMARK    9  A    between atoms: C_22  and  C_25
REMARK   10  A    between atoms: C_25  and  C_26
REMARK   11  A    between atoms: N_30  and  C_33
REMARK   12  A    between atoms: C_36  and  N_39
REMARK                            x       y       z     vdW  Elec       q    Type
REMARK                         _______ _______ _______ _____ _____    ______ ____
ROOT
ATOM      1  C   UNL     1       5.926  -0.741   0.078  0.00  0.00    +0.162 C 
ENDROOT
BRANCH   1   9
ATOM      2  C   UNL     1       0.105   0.877   1.411  0.00  0.00    -0.047 A 
ATOM      3  C   UNL     1       0.305   2.249   1.341  0.00  0.00    +0.005 A 
ATOM      4  C   UNL     1       1.548   2.765   1.042  0.00  0.00    +0.026 A 
ATOM      5  C   UNL     1       2.614   1.903   0.807  0.00  0.00    +0.049 A 
ATOM      6  C   UNL     1       2.407   0.512   0.878  0.00  0.00    -0.001 A 
ATOM      7  C   UNL     1       1.137   0.012   1.184  0.00  0.00    +0.013 A 
ATOM      8  C   UNL     1       3.536  -0.387   0.630  0.00  0.00    +0.021 A 
ATOM      9  C   UNL     1       4.744   0.156   0.339  0.00  0.00    +0.042 A 
ATOM     10  C   UNL     1       4.898   1.558   0.281  0.00  0.00    +0.254 A 
ATOM     11  O   UNL     1       5.993   2.024   0.017  0.00  0.00    -0.268 OA
ATOM     12  N   UNL     1       3.868   2.391   0.507  0.00  0.00    -0.322 N 
ATOM     13  H   UNL     1       4.036   3.476   0.450  0.00  0.00    +0.169 HD
BRANCH   2  15
ATOM     14  C   UNL     1      -2.055   0.132   0.447  0.00  0.00    +0.009 C 
ATOM     15  C   UNL     1      -1.263   0.338   1.740  0.00  0.00    +0.032 C 
ENDBRANCH   2  15
ENDBRANCH   1   9
BRANCH   1  16
ATOM     16  N   UNL     1       6.511  -0.412  -1.229  0.00  0.00    -0.286 NA
ATOM     17  C   UNL     1       5.531  -0.601  -2.307  0.00  0.00    +0.104 C 
ATOM     18  C   UNL     1       6.152  -0.173  -3.639  0.00  0.00    +0.120 C 
ATOM     19  N   UNL     1       7.364  -0.967  -3.888  0.00  0.00    -0.327 N 
ATOM     20  C   UNL     1       8.344  -0.778  -2.810  0.00  0.00    +0.120 C 
ATOM     21  C   UNL     1       7.723  -1.206  -1.478  0.00  0.00    +0.104 C 
BRANCH  19  22
ATOM     22  C   UNL     1       7.920  -0.654  -5.131  0.00  0.00    +0.030 A 
ATOM     23  C   UNL     1       9.238  -0.225  -5.215  0.00  0.00    +0.025 A 
ATOM     24  C   UNL     1       9.787   0.078  -6.446  0.00  0.00    +0.034 A 
ATOM     25  C   UNL     1       9.021  -0.035  -7.592  0.00  0.00    +0.126 A 
ATOM     26  C   UNL     1       7.707  -0.456  -7.511  0.00  0.00    +0.034 A 
ATOM     27  C   UNL     1       7.154  -0.766  -6.284  0.00  0.00    +0.025 A 
BRANCH  25  28
ATOM     28  N   UNL     1       9.611   0.296  -8.909  0.00  0.00    +0.056 N 
ATOM     29  O   UNL     1       8.938   0.197  -9.920  0.00  0.00    -0.126 OA
ATOM     30  O   UNL     1      10.768   0.668  -8.982  0.00  0.00    -0.126 OA
ENDBRANCH  25  28
ENDBRANCH  19  22
ENDBRANCH   1  16
BRANCH   1  31
ATOM     31  C   UNL     1       6.959  -0.537   1.156  0.00  0.00    +0.174 A 
ATOM     32  N   UNL     1       7.700   0.528   1.339  0.00  0.00    -0.111 NA
ATOM     33  N   UNL     1       8.455   0.318   2.361  0.00  0.00    -0.023 NA
ATOM     34  N   UNL     1       8.221  -0.858   2.831  0.00  0.00    -0.043 NA
ATOM     35  N   UNL     1       7.304  -1.417   2.115  0.00  0.00    -0.222 N 
BRANCH  35  36
ATOM     36  C   UNL     1       6.745  -2.757   2.309  0.00  0.00    +0.062 C 
ATOM     37  C   UNL     1       5.229  -2.655   2.491  0.00  0.00    +0.036 C 
ATOM     38  C   UNL     1       7.055  -3.621   1.085  0.00  0.00    +0.036 C 
BRANCH  36  39
ATOM     39  C   UNL     1       7.367  -3.394   3.553  0.00  0.00    +0.026 C 
ATOM     40  C   UNL     1       6.782  -4.793   3.756  0.00  0.00    +0.006 C 
ENDBRANCH  36  39
ENDBRANCH  35  36
ENDBRANCH   1  31
TORSDOF 8
