REMARK  Name = ZINC66343325
REMARK  4 active torsions:
REMARK  status: ('A' for Active; 'I' for Inactive)
REMARK    1  A    between atoms: C_1  and  C_2
REMARK    2  A    between atoms: N_11  and  C_12
REMARK    3  A    between atoms: C_12  and  C_13
REMARK    4  A    between atoms: N_17  and  C_19
REMARK                            x       y       z     vdW  Elec       q    Type
REMARK                         _______ _______ _______ _____ _____    ______ ____
ROOT
ATOM      1  C   UNL     1       2.985   0.835   3.777  0.00  0.00    +0.110 C 
ENDROOT
BRANCH   1  11
ATOM      2  C   UNL     1      -0.017   1.526   0.009  0.00  0.00    +0.028 C 
ATOM      3  C   UNL     1       0.001  -0.004   0.003  0.00  0.00    +0.074 C 
ATOM      4  C   UNL     1      -1.429  -0.535   0.148  0.00  0.00    +0.022 C 
ATOM      5  C   UNL     1      -1.392  -2.059   0.282  0.00  0.00    +0.003 C 
ATOM      6  C   UNL     1      -0.604  -2.444   1.536  0.00  0.00    +0.019 C 
ATOM      7  C   UNL     1       0.835  -1.935   1.406  0.00  0.00    +0.109 C 
ATOM      8  N   UNL     1       0.806  -0.492   1.131  0.00  0.00    -0.283 N 
ATOM      9  C   UNL     1       1.502   0.368   1.901  0.00  0.00    +0.302 C 
ATOM     10  O   UNL     1       1.395   1.567   1.723  0.00  0.00    -0.253 OA
ATOM     11  N   UNL     1       2.316  -0.099   2.868  0.00  0.00    -0.299 N 
ATOM     12  H   UNL     1       2.458  -1.054   2.962  0.00  0.00    +0.150 HD
ENDBRANCH   1  11
BRANCH   1  13
ATOM     13  C   UNL     1       3.843   0.051   4.772  0.00  0.00    +0.025 C 
ATOM     14  C   UNL     1       2.956  -0.741   5.769  0.00  0.00    +0.025 C 
ATOM     15  C   UNL     1       3.862  -0.868   7.012  0.00  0.00    +0.105 C 
ATOM     16  N   UNL     1       4.861   0.209   6.936  0.00  0.00    -0.330 N 
ATOM     17  C   UNL     1       4.604   1.008   5.723  0.00  0.00    +0.110 C 
BRANCH  16  18
ATOM     18  C   UNL     1       5.885   0.437   7.860  0.00  0.00    +0.030 A 
ATOM     19  C   UNL     1       6.764   1.496   7.677  0.00  0.00    +0.026 A 
ATOM     20  C   UNL     1       7.774   1.720   8.591  0.00  0.00    +0.040 A 
ATOM     21  C   UNL     1       7.911   0.890   9.690  0.00  0.00    +0.124 A 
ATOM     22  C   UNL     1       7.036  -0.167   9.876  0.00  0.00    +0.040 A 
ATOM     23  C   UNL     1       6.021  -0.392   8.966  0.00  0.00    +0.026 A 
ATOM     24  F   UNL     1       8.900   1.110  10.584  0.00  0.00    -0.205 F 
ENDBRANCH  16  18
ENDBRANCH   1  13
TORSDOF 3
