REMARK  Name = ZINC62526108
REMARK  4 active torsions:
REMARK  status: ('A' for Active; 'I' for Inactive)
REMARK    1  A    between atoms: C_6  and  N_7
REMARK    2  A    between atoms: N_14  and  S_15
REMARK    3  A    between atoms: S_15  and  N_18
REMARK    4  A    between atoms: N_18  and  C_19
REMARK                            x       y       z     vdW  Elec       q    Type
REMARK                         _______ _______ _______ _____ _____    ______ ____
ROOT
ATOM      1  C   UNL     1      -0.017   1.384   0.010  0.00  0.00    +0.025 A 
ATOM      2  C   UNL     1       1.166   2.093   0.002  0.00  0.00    +0.027 A 
ATOM      3  C   UNL     1       2.390   1.422  -0.013  0.00  0.00    +0.056 A 
ATOM      4  C   UNL     1       2.401   0.036  -0.021  0.00  0.00    -0.021 A 
ATOM      5  C   UNL     1       1.218  -0.675  -0.013  0.00  0.00    +0.028 A 
ATOM      6  C   UNL     1       0.002  -0.004   0.002  0.00  0.00    +0.030 A 
ATOM      7  C   UNL     1       3.839  -0.433  -0.038  0.00  0.00    +0.058 C 
ATOM      8  C   UNL     1       4.669   0.861  -0.039  0.00  0.00    +0.137 C 
ATOM      9  N   UNL     1       3.687   1.948  -0.024  0.00  0.00    -0.193 N 
ENDROOT
BRANCH   6  10
ATOM     10  N   UNL     1      -1.199  -0.724   0.010  0.00  0.00    -0.330 N 
ATOM     11  C   UNL     1      -1.319  -2.189   0.009  0.00  0.00    +0.105 C 
ATOM     12  C   UNL     1      -2.826  -2.525  -0.007  0.00  0.00    +0.020 C 
ATOM     13  C   UNL     1      -3.463  -1.234  -0.586  0.00  0.00    +0.020 C 
ATOM     14  C   UNL     1      -2.551  -0.138   0.026  0.00  0.00    +0.105 C 
ENDBRANCH   6  10
BRANCH   9  15
ATOM     15  S   UNL     1       4.058   3.562  -0.019  0.00  0.00    +0.112 S 
ATOM     16  O   UNL     1       5.357   3.682  -0.583  0.00  0.00    -0.138 OA
ATOM     17  O   UNL     1       2.929   4.239  -0.555  0.00  0.00    -0.138 OA
BRANCH  15  18
ATOM     18  N   UNL     1       4.183   4.031   1.564  0.00  0.00    -0.174 NA
ATOM     19  H   UNL     1       3.553   4.670   1.932  0.00  0.00    +0.150 HD
BRANCH  18  20
ATOM     20  C   UNL     1       5.247   3.481   2.409  0.00  0.00    +0.078 C 
ATOM     21  C   UNL     1       4.699   2.313   3.254  0.00  0.00    +0.020 C 
ATOM     22  C   UNL     1       5.421   2.458   4.616  0.00  0.00    +0.002 C 
ATOM     23  C   UNL     1       5.470   3.993   4.815  0.00  0.00    +0.002 C 
ATOM     24  C   UNL     1       5.737   4.550   3.401  0.00  0.00    +0.020 C 
ENDBRANCH  18  20
ENDBRANCH  15  18
ENDBRANCH   9  15
TORSDOF 4
