REMARK  Name = ZINC32860589
REMARK  7 active torsions:
REMARK  status: ('A' for Active; 'I' for Inactive)
REMARK    1  A    between atoms: C_1  and  C_2
REMARK    2  A    between atoms: C_15  and  C_17
REMARK    3  A    between atoms: C_17  and  S_18
REMARK    4  A    between atoms: S_18  and  C_19
REMARK    5  A    between atoms: C_22  and  C_27
REMARK    6  A    between atoms: N_23  and  C_24
REMARK    7  A    between atoms: C_24  and  C_25
REMARK                            x       y       z     vdW  Elec       q    Type
REMARK                         _______ _______ _______ _____ _____    ______ ____
ROOT
ATOM      1  C   UNL     1      -1.533  -1.288  -1.400  0.00  0.00    +0.029 C 
ATOM      2  C   UNL     1      -1.246  -0.768   0.010  0.00  0.00    +0.087 C 
ATOM      3  C   UNL     1      -1.125  -1.950   0.974  0.00  0.00    +0.118 C 
ATOM      4  C   UNL     1      -0.466  -1.510   2.254  0.00  0.00    +0.219 C 
ATOM      5  O   UNL     1      -1.136  -1.355   3.253  0.00  0.00    -0.275 OA
ATOM      6  N   UNL     1       0.866  -1.284   2.297  0.00  0.00    -0.284 N 
ATOM      7  C   UNL     1       1.641  -1.371   1.135  0.00  0.00    +0.055 A 
ATOM      8  C   UNL     1       2.818  -2.100   1.116  0.00  0.00    +0.025 A 
ATOM      9  C   UNL     1       3.582  -2.144  -0.053  0.00  0.00    +0.002 A 
ATOM     10  C   UNL     1       3.169  -1.460  -1.182  0.00  0.00    +0.002 A 
ATOM     11  C   UNL     1       1.988  -0.740  -1.169  0.00  0.00    +0.025 A 
ATOM     12  C   UNL     1       1.217  -0.702  -0.019  0.00  0.00    +0.058 A 
ATOM     13  N   UNL     1       0.002  -0.004   0.002  0.00  0.00    -0.266 N 
ATOM     14  C   UNL     1      -0.016   1.344   0.009  0.00  0.00    +0.230 C 
ATOM     15  O   UNL     1      -1.075   1.936   0.018  0.00  0.00    -0.274 OA
ATOM     16  H   UNL     1       1.350  -1.031   3.252  0.00  0.00    +0.155 HD
ENDROOT
BRANCH  14  17
ATOM     17  C   UNL     1       1.278   2.115   0.001  0.00  0.00    +0.173 C 
BRANCH  17  18
ATOM     18  S   UNL     1       0.924   3.890   0.014  0.00  0.00    -0.077 S 
BRANCH  18  19
ATOM     19  C   UNL     1       2.565   4.530   0.002  0.00  0.00    +0.192 A 
ATOM     20  N   UNL     1       3.676   3.830  -0.007  0.00  0.00    -0.122 NA
ATOM     21  N   UNL     1       4.690   4.620  -0.017  0.00  0.00    -0.133 NA
ATOM     22  C   UNL     1       4.290   5.861  -0.007  0.00  0.00    +0.137 A 
ATOM     23  N   UNL     1       2.923   5.848   0.006  0.00  0.00    -0.302 N 
BRANCH  22  24
ATOM     24  C   UNL     1       5.172   7.083  -0.008  0.00  0.00    +0.057 C 
ATOM     25  C   UNL     1       6.671   6.872  -0.226  0.00  0.00    +0.012 C 
ATOM     26  C   UNL     1       6.146   7.253   1.159  0.00  0.00    +0.012 C 
ENDBRANCH  22  24
BRANCH  23  27
ATOM     27  C   UNL     1       2.027   7.007   0.020  0.00  0.00    +0.152 C 
BRANCH  27  28
ATOM     28  C   UNL     1       1.733   7.398   1.445  0.00  0.00    -0.013 C 
ATOM     29  C   UNL     1       1.964   8.622   1.850  0.00  0.00    +0.005 C 
ENDBRANCH  27  28
ENDBRANCH  23  27
ENDBRANCH  18  19
ENDBRANCH  17  18
ENDBRANCH  14  17
TORSDOF 6
