REMARK  Name = ZINC03289129
REMARK  5 active torsions:
REMARK  status: ('A' for Active; 'I' for Inactive)
REMARK    1  A    between atoms: C_1  and  C_2
REMARK    2  A    between atoms: C_3  and  C_11
REMARK    3  A    between atoms: N_13  and  N_14
REMARK    4  A    between atoms: N_14  and  C_15
REMARK    5  A    between atoms: C_15  and  C_17
REMARK                            x       y       z     vdW  Elec       q    Type
REMARK                         _______ _______ _______ _____ _____    ______ ____
ROOT
ATOM      1  C   UNL     1      -1.164   2.212   0.020  0.00  0.00    +0.279 C 
ATOM      2  O   UNL     1      -1.038   3.419   0.123  0.00  0.00    -0.267 OA
ATOM      3  N   UNL     1      -2.393   1.669  -0.079  0.00  0.00    -0.231 N 
ATOM      4  H   UNL     1      -2.498   0.704  -0.084  0.00  0.00    +0.173 HD
ENDROOT
BRANCH   1   7
ATOM      5  C   UNL     1       0.480   1.463  -2.523  0.00  0.00    +0.068 C 
ATOM      6  C   UNL     1       0.735   1.024  -1.104  0.00  0.00    +0.069 A 
ATOM      7  C   UNL     1      -0.016   1.379   0.004  0.00  0.00    +0.133 A 
ATOM      8  N   UNL     1       0.570   0.756   1.090  0.00  0.00    -0.295 N 
ATOM      9  C   UNL     1       0.265   0.744   2.415  0.00  0.00    +0.093 A 
ATOM     10  C   UNL     1       1.016   0.037   3.289  0.00  0.00    +0.018 A 
ATOM     11  C   UNL     1       2.122  -0.695   2.835  0.00  0.00    +0.005 A 
ATOM     12  C   UNL     1       2.435  -0.689   1.509  0.00  0.00    +0.047 A 
ATOM     13  C   UNL     1       1.641   0.053   0.616  0.00  0.00    +0.138 A 
ATOM     14  N   UNL     1       1.716   0.232  -0.702  0.00  0.00    -0.232 NA
ENDBRANCH   1   7
BRANCH   3  15
ATOM     15  N   UNL     1      -3.519   2.496  -0.174  0.00  0.00    -0.264 N 
ATOM     16  H   UNL     1      -3.415   3.460  -0.169  0.00  0.00    +0.170 HD
BRANCH  15  17
ATOM     17  C   UNL     1      -4.792   1.933  -0.276  0.00  0.00    +0.044 C 
ATOM     18  C   UNL     1      -4.936   0.607  -0.283  0.00  0.00    +0.035 C 
BRANCH  17  19
ATOM     19  C   UNL     1      -5.983   2.808  -0.377  0.00  0.00    -0.003 A 
ATOM     20  C   UNL     1      -5.836   4.194  -0.365  0.00  0.00    +0.011 A 
ATOM     21  C   UNL     1      -6.948   5.005  -0.465  0.00  0.00    +0.020 A 
ATOM     22  C   UNL     1      -8.210   4.443  -0.566  0.00  0.00    +0.041 A 
ATOM     23  C   UNL     1      -8.362   3.067  -0.573  0.00  0.00    +0.020 A 
ATOM     24  C   UNL     1      -7.256   2.248  -0.479  0.00  0.00    +0.011 A 
ATOM     25 CL   UNL     1      -9.605   5.468  -0.685  0.00  0.00    -0.084 Cl
ENDBRANCH  17  19
ENDBRANCH  15  17
ENDBRANCH   3  15
TORSDOF 4
