REMARK  Name = ZINC35481725
REMARK  10 active torsions:
REMARK  status: ('A' for Active; 'I' for Inactive)
REMARK    1  A    between atoms: C_1  and  N_2
REMARK    2  A    between atoms: C_5  and  C_17
REMARK    3  A    between atoms: N_7  and  C_10
REMARK    4  A    between atoms: C_19  and  C_22
REMARK    5  A    between atoms: N_24  and  C_25
REMARK    6  A    between atoms: C_25  and  C_26
REMARK    7  A    between atoms: C_26  and  C_27
REMARK    8  A    between atoms: C_27  and  N_28
REMARK    9  A    between atoms: N_28  and  C_29
REMARK   10  A    between atoms: N_28  and  C_30
REMARK                            x       y       z     vdW  Elec       q    Type
REMARK                         _______ _______ _______ _____ _____    ______ ____
ROOT
ATOM      1  C   UNL     1      -0.979  -2.736  -2.320  0.00  0.00    +0.228 A 
ATOM      2  N   UNL     1      -1.461  -3.988  -2.373  0.00  0.00    -0.182 NA
ATOM      3  C   UNL     1      -1.828  -4.276  -3.595  0.00  0.00    +0.314 A 
ATOM      4  O   UNL     1      -1.590  -3.204  -4.372  0.00  0.00    -0.328 OA
ATOM      5  N   UNL     1      -1.042  -2.209  -3.520  0.00  0.00    -0.054 NA
ENDROOT
BRANCH   1  10
ATOM      6  C   UNL     1       0.991   1.289  -0.096  0.00  0.00    +0.157 C 
ATOM      7  N   UNL     1       0.490  -0.087  -0.049  0.00  0.00    -0.261 N 
ATOM      8  C   UNL     1       0.031  -0.675  -1.173  0.00  0.00    +0.286 A 
ATOM      9  O   UNL     1       0.030  -0.070  -2.229  0.00  0.00    -0.265 OA
ATOM     10  C   UNL     1      -0.467  -2.059  -1.105  0.00  0.00    +0.196 A 
ATOM     11  N   UNL     1      -0.451  -2.683   0.051  0.00  0.00    -0.153 NA
ATOM     12  N   UNL     1       0.036  -2.026   1.187  0.00  0.00    -0.181 N 
ATOM     13  C   UNL     1       0.494  -0.764   1.114  0.00  0.00    +0.353 A 
ATOM     14  O   UNL     1       0.915  -0.223   2.118  0.00  0.00    -0.244 OA
BRANCH  12  15
ATOM     15  C   UNL     1       0.051  -2.695   2.417  0.00  0.00    +0.071 A 
ATOM     16  C   UNL     1       0.583  -3.975   2.506  0.00  0.00    +0.031 A 
ATOM     17  C   UNL     1       0.597  -4.633   3.719  0.00  0.00    +0.040 A 
ATOM     18  C   UNL     1       0.082  -4.017   4.848  0.00  0.00    +0.124 A 
ATOM     19  C   UNL     1      -0.449  -2.741   4.762  0.00  0.00    +0.040 A 
ATOM     20  C   UNL     1      -0.460  -2.077   3.551  0.00  0.00    +0.031 A 
ATOM     21  F   UNL     1       0.097  -4.663   6.035  0.00  0.00    -0.205 F 
ENDBRANCH  12  15
ENDBRANCH   1  10
BRANCH   3  22
ATOM     22  C   UNL     1      -2.407  -5.564  -4.048  0.00  0.00    +0.302 C 
ATOM     23  O   UNL     1      -2.577  -6.466  -3.252  0.00  0.00    -0.265 OA
ATOM     24  N   UNL     1      -2.745  -5.733  -5.341  0.00  0.00    -0.307 N 
ATOM     25  H   UNL     1      -2.610  -5.013  -5.977  0.00  0.00    +0.149 HD
BRANCH  24  26
ATOM     26  C   UNL     1      -3.317  -7.006  -5.788  0.00  0.00    +0.103 C 
BRANCH  26  27
ATOM     27  C   UNL     1      -3.609  -6.935  -7.288  0.00  0.00    +0.000 C 
BRANCH  27  28
ATOM     28  C   UNL     1      -4.207  -8.264  -7.755  0.00  0.00    -0.077 C 
BRANCH  28  29
ATOM     29  N   UNL     1      -4.487  -8.196  -9.195  0.00  0.00    +0.380 N 
ATOM     30  C   UNL     1      -5.530  -7.192  -9.445  0.00  0.00    -0.096 C 
ATOM     31  H   UNL     1      -3.646  -7.937  -9.690  0.00  0.00    -0.082 HD
BRANCH  29  32
ATOM     32  C   UNL     1      -4.948  -9.508  -9.667  0.00  0.00    -0.069 C 
ATOM     33  C   UNL     1      -3.861 -10.554  -9.407  0.00  0.00    -0.015 C 
ATOM     34  C   UNL     1      -4.342 -11.921  -9.899  0.00  0.00    -0.002 C 
ATOM     35  C   UNL     1      -4.633 -11.851 -11.399  0.00  0.00    -0.000 C 
ATOM     36  C   UNL     1      -5.720 -10.805 -11.659  0.00  0.00    -0.002 C 
ATOM     37  C   UNL     1      -5.239  -9.438 -11.167  0.00  0.00    -0.015 C 
ENDBRANCH  29  32
ENDBRANCH  28  29
ENDBRANCH  27  28
ENDBRANCH  26  27
ENDBRANCH  24  26
ENDBRANCH   3  22
TORSDOF 8
