REMARK  Name = ZINC36609204
REMARK  6 active torsions:
REMARK  status: ('A' for Active; 'I' for Inactive)
REMARK    1  A    between atoms: C_4  and  N_7
REMARK    2  A    between atoms: N_7  and  C_10
REMARK    3  A    between atoms: C_10  and  C_12
REMARK    4  A    between atoms: C_10  and  C_21
REMARK    5  A    between atoms: C_15  and  N_18
REMARK    6  A    between atoms: N_23  and  C_24
REMARK                            x       y       z     vdW  Elec       q    Type
REMARK                         _______ _______ _______ _____ _____    ______ ____
ROOT
ATOM      1  C   UNL     1       3.641  -2.083  -0.186  0.00  0.00    +0.197 C 
ENDROOT
BRANCH   1   2
ATOM      2  C   UNL     1       2.822  -2.702   0.918  0.00  0.00    -0.018 A 
ATOM      3  C   UNL     1       1.684  -2.064   1.375  0.00  0.00    +0.008 A 
ATOM      4  C   UNL     1       0.933  -2.631   2.388  0.00  0.00    +0.033 A 
ATOM      5  C   UNL     1       1.320  -3.836   2.943  0.00  0.00    +0.126 A 
ATOM      6  C   UNL     1       2.458  -4.474   2.486  0.00  0.00    +0.033 A 
ATOM      7  C   UNL     1       3.206  -3.909   1.470  0.00  0.00    +0.008 A 
BRANCH   5   8
ATOM      8  N   UNL     1       0.516  -4.443   4.028  0.00  0.00    +0.056 N 
ATOM      9  O   UNL     1      -0.478  -3.885   4.428  0.00  0.00    -0.126 OA
ATOM     10  O   UNL     1       0.855  -5.497   4.514  0.00  0.00    -0.126 OA
ENDBRANCH   5   8
ENDBRANCH   1   2
BRANCH   1  11
ATOM     11  C   UNL     1       4.175  -3.169  -1.084  0.00  0.00    +0.239 C 
ATOM     12  O   UNL     1       3.625  -3.410  -2.137  0.00  0.00    -0.273 OA
ATOM     13  N   UNL     1       5.264  -3.873  -0.716  0.00  0.00    -0.311 N 
ATOM     14  H   UNL     1       5.704  -3.680   0.127  0.00  0.00    +0.149 HD
BRANCH  13  15
ATOM     15  C   UNL     1       5.784  -4.928  -1.589  0.00  0.00    +0.073 C 
ATOM     16  C   UNL     1       5.030  -6.232  -1.316  0.00  0.00    +0.022 C 
ATOM     17  C   UNL     1       5.573  -7.334  -2.228  0.00  0.00    +0.002 C 
ATOM     18  C   UNL     1       7.063  -7.539  -1.950  0.00  0.00    +0.000 C 
ATOM     19  C   UNL     1       7.816  -6.235  -2.222  0.00  0.00    +0.002 C 
ATOM     20  C   UNL     1       7.274  -5.133  -1.310  0.00  0.00    +0.022 C 
ENDBRANCH  13  15
ENDBRANCH   1  11
BRANCH   1  21
ATOM     21  N   UNL     1       2.799  -1.173  -0.967  0.00  0.00    -0.258 N 
ATOM     22  C   UNL     1       1.631  -1.609  -1.480  0.00  0.00    +0.333 C 
ATOM     23  O   UNL     1       1.230  -2.722  -1.214  0.00  0.00    -0.279 OA
BRANCH  21  27
ATOM     24  C   UNL     1       4.015   2.760  -1.602  0.00  0.00    +0.000 A 
ATOM     25  C   UNL     1       2.880   2.279  -2.229  0.00  0.00    +0.002 A 
ATOM     26  C   UNL     1       2.474   0.976  -2.020  0.00  0.00    +0.023 A 
ATOM     27  C   UNL     1       3.208   0.148  -1.181  0.00  0.00    +0.037 A 
ATOM     28  C   UNL     1       4.347   0.634  -0.553  0.00  0.00    +0.023 A 
ATOM     29  C   UNL     1       4.747   1.939  -0.765  0.00  0.00    +0.002 A 
ENDBRANCH  21  27
ENDBRANCH   1  21
TORSDOF 6
