REMARK  Name = ZINC08878982
REMARK  8 active torsions:
REMARK  status: ('A' for Active; 'I' for Inactive)
REMARK    1  A    between atoms: C_1  and  C_2
REMARK    2  A    between atoms: C_6  and  C_28
REMARK    3  A    between atoms: C_7  and  C_11
REMARK    4  A    between atoms: C_11  and  C_12
REMARK    5  A    between atoms: N_14  and  C_15
REMARK    6  A    between atoms: C_15  and  C_16
REMARK    7  A    between atoms: C_16  and  C_17
REMARK    8  A    between atoms: C_31  and  C_34
REMARK                            x       y       z     vdW  Elec       q    Type
REMARK                         _______ _______ _______ _____ _____    ______ ____
ROOT
ATOM      1  C   UNL     1      -3.753  -0.722   0.000  0.00  0.00    +0.138 C 
ENDROOT
BRANCH   1   8
ATOM      2  C   UNL     1       3.638   2.240  -0.579  0.00  0.00    +0.044 C 
ATOM      3  C   UNL     1       2.357   1.454  -0.474  0.00  0.00    -0.036 A 
ATOM      4  C   UNL     1       1.163   2.111  -0.401  0.00  0.00    +0.051 A 
ATOM      5  C   UNL     1      -0.031   1.401  -0.303  0.00  0.00    +0.143 A 
ATOM      6  C   UNL     1      -0.010  -0.004  -0.280  0.00  0.00    +0.064 A 
ATOM      7  C   UNL     1      -1.274  -0.733  -0.176  0.00  0.00    -0.026 A 
ATOM      8  C   UNL     1      -2.426  -0.015  -0.107  0.00  0.00    +0.049 A 
ATOM      9  C   UNL     1      -2.375   1.393  -0.137  0.00  0.00    +0.341 A 
ATOM     10  O   UNL     1      -3.414   2.026  -0.074  0.00  0.00    -0.245 OA
ATOM     11  O   UNL     1      -1.211   2.054  -0.226  0.00  0.00    -0.422 OA
ATOM     12  C   UNL     1      -1.298  -2.240  -0.147  0.00  0.00    +0.045 C 
ATOM     13  C   UNL     1       1.216  -0.686  -0.354  0.00  0.00    +0.146 A 
ATOM     14  C   UNL     1       2.400   0.057  -0.451  0.00  0.00    +0.027 A 
ATOM     15  C   UNL     1       3.481  -0.935  -0.509  0.00  0.00    -0.005 A 
ATOM     16  C   UNL     1       2.889  -2.136  -0.446  0.00  0.00    +0.199 A 
ATOM     17  O   UNL     1       1.556  -1.988  -0.354  0.00  0.00    -0.462 OA
ATOM     18  C   UNL     1       4.958  -0.658  -0.618  0.00  0.00    +0.047 C 
ENDBRANCH   1   8
BRANCH   1  19
ATOM     19  C   UNL     1      -4.094  -0.932   1.453  0.00  0.00    +0.218 C 
ATOM     20  O   UNL     1      -3.335  -0.545   2.316  0.00  0.00    -0.275 OA
ATOM     21  N   UNL     1      -5.243  -1.549   1.793  0.00  0.00    -0.315 N 
ATOM     22  H   UNL     1      -5.850  -1.858   1.103  0.00  0.00    +0.149 HD
BRANCH  21  23
ATOM     23  C   UNL     1      -5.574  -1.753   3.206  0.00  0.00    +0.109 C 
BRANCH  23  24
ATOM     24  C   UNL     1      -6.921  -2.471   3.315  0.00  0.00    +0.056 C 
BRANCH  24  25
ATOM     25  C   UNL     1      -7.262  -2.680   4.768  0.00  0.00    -0.021 A 
ATOM     26  C   UNL     1      -7.019  -3.783   5.494  0.00  0.00    +0.087 A 
ATOM     27  N   UNL     1      -7.468  -3.607   6.774  0.00  0.00    -0.360 N 
ATOM     28  H   UNL     1      -7.403  -4.266   7.483  0.00  0.00    +0.165 HD
ATOM     29  C   UNL     1      -8.027  -2.354   6.907  0.00  0.00    +0.047 A 
ATOM     30  C   UNL     1      -7.917  -1.718   5.657  0.00  0.00    +0.004 A 
ATOM     31  C   UNL     1      -8.411  -0.422   5.489  0.00  0.00    +0.030 A 
ATOM     32  C   UNL     1      -8.994   0.228   6.553  0.00  0.00    +0.042 A 
ATOM     33  C   UNL     1      -9.097  -0.400   7.788  0.00  0.00    +0.022 A 
ATOM     34  C   UNL     1      -8.619  -1.679   7.968  0.00  0.00    +0.027 A 
ATOM     35 CL   UNL     1      -9.604   1.841   6.351  0.00  0.00    -0.084 Cl
ENDBRANCH  24  25
ENDBRANCH  23  24
ENDBRANCH  21  23
ENDBRANCH   1  19
TORSDOF 5
