REMARK  Name = ZINC13498957
REMARK  16 active torsions:
REMARK  status: ('A' for Active; 'I' for Inactive)
REMARK    1  A    between atoms: C_1  and  C_2
REMARK    2  A    between atoms: C_6  and  C_15
REMARK    3  A    between atoms: C_13  and  C_14
REMARK    4  A    between atoms: C_15  and  N_72
REMARK    5  A    between atoms: C_16  and  C_17
REMARK    6  A    between atoms: C_16  and  N_72
REMARK    7  A    between atoms: C_17  and  C_18
REMARK    8  A    between atoms: C_18  and  O_19
REMARK    9  A    between atoms: C_20  and  C_22
REMARK   10  A    between atoms: C_20  and  C_35
REMARK   11  A    between atoms: C_20  and  N_72
REMARK   12  A    between atoms: N_26  and  C_27
REMARK   13  A    between atoms: C_27  and  C_28
REMARK   14  A    between atoms: C_28  and  C_29
REMARK   15  A    between atoms: C_35  and  C_36
REMARK   16  A    between atoms: C_35  and  C_37
REMARK                            x       y       z     vdW  Elec       q    Type
REMARK                         _______ _______ _______ _____ _____    ______ ____
ROOT
ATOM      1  N   UNL     1      -5.454   3.937  -1.705  0.00  0.00    +0.389 N 
ATOM      2  H   UNL     1      -4.789   4.549  -2.191  0.00  0.00    -0.080 HD
ENDROOT
BRANCH   1   3
ATOM      3  C   UNL     1      -4.795   3.365  -0.512  0.00  0.00    -0.037 C 
BRANCH   3   9
ATOM      4  C   UNL     1       2.587   3.736  -1.505  0.00  0.00    +0.044 C 
ATOM      5  C   UNL     1       1.289   2.975  -1.574  0.00  0.00    -0.047 A 
ATOM      6  C   UNL     1       0.128   3.577  -1.177  0.00  0.00    +0.013 A 
ATOM      7  C   UNL     1      -1.077   2.871  -1.242  0.00  0.00    -0.001 A 
ATOM      8  C   UNL     1      -2.338   3.486  -0.825  0.00  0.00    +0.017 A 
ATOM      9  C   UNL     1      -3.478   2.759  -0.927  0.00  0.00    +0.001 A 
ATOM     10  C   UNL     1      -3.435   1.433  -1.408  0.00  0.00    +0.251 A 
ATOM     11  O   UNL     1      -4.471   0.794  -1.482  0.00  0.00    -0.268 OA
ATOM     12  N   UNL     1      -2.281   0.858  -1.788  0.00  0.00    -0.322 N 
ATOM     13  H   UNL     1      -2.287  -0.055  -2.115  0.00  0.00    +0.169 HD
ATOM     14  C   UNL     1      -1.089   1.547  -1.721  0.00  0.00    +0.049 A 
ATOM     15  C   UNL     1       0.105   0.953  -2.115  0.00  0.00    +0.030 A 
ATOM     16  C   UNL     1       1.281   1.668  -2.042  0.00  0.00    -0.046 A 
ATOM     17  C   UNL     1       2.573   1.024  -2.474  0.00  0.00    +0.044 C 
ENDBRANCH   3   9
ENDBRANCH   1   3
BRANCH   1  18
ATOM     18  C   UNL     1      -5.867   2.853  -2.621  0.00  0.00    -0.075 C 
BRANCH  18  19
ATOM     19  C   UNL     1      -6.206   3.464  -3.983  0.00  0.00    +0.009 C 
BRANCH  19  20
ATOM     20  C   UNL     1      -6.460   2.345  -4.994  0.00  0.00    +0.154 C 
BRANCH  20  21
ATOM     21  O   UNL     1      -6.776   2.915  -6.266  0.00  0.00    -0.395 OA
ATOM     22  H   UNL     1      -6.949   2.261  -6.958  0.00  0.00    +0.209 HD
ENDBRANCH  20  21
ENDBRANCH  19  20
ENDBRANCH  18  19
ENDBRANCH   1  18
BRANCH   1  23
ATOM     23  C   UNL     1      -6.631   4.732  -1.299  0.00  0.00    +0.006 C 
BRANCH  23  24
ATOM     24  C   UNL     1      -7.088   5.557  -2.475  0.00  0.00    +0.138 A 
ATOM     25  N   UNL     1      -6.336   6.306  -3.244  0.00  0.00    -0.115 NA
ATOM     26  N   UNL     1      -7.094   6.848  -4.135  0.00  0.00    -0.023 NA
ATOM     27  N   UNL     1      -8.309   6.463  -3.953  0.00  0.00    -0.044 NA
ATOM     28  N   UNL     1      -8.345   5.662  -2.942  0.00  0.00    -0.231 N 
BRANCH  28  29
ATOM     29  C   UNL     1      -9.533   4.995  -2.403  0.00  0.00    +0.152 C 
BRANCH  29  30
ATOM     30  C   UNL     1     -10.243   5.932  -1.424  0.00  0.00    +0.058 C 
BRANCH  30  31
ATOM     31  C   UNL     1     -11.415   5.216  -0.804  0.00  0.00    -0.046 A 
ATOM     32  C   UNL     1     -12.660   5.282  -1.402  0.00  0.00    +0.004 A 
ATOM     33  C   UNL     1     -13.735   4.621  -0.836  0.00  0.00    +0.000 A 
ATOM     34  C   UNL     1     -13.566   3.903   0.333  0.00  0.00    +0.000 A 
ATOM     35  C   UNL     1     -12.323   3.842   0.934  0.00  0.00    +0.000 A 
ATOM     36  C   UNL     1     -11.247   4.498   0.365  0.00  0.00    +0.004 A 
ENDBRANCH  30  31
ENDBRANCH  29  30
ENDBRANCH  28  29
ENDBRANCH  23  24
BRANCH  23  37
ATOM     37  C   UNL     1      -6.237   5.660  -0.148  0.00  0.00    -0.024 C 
ATOM     38  C   UNL     1      -5.123   6.602  -0.610  0.00  0.00    +0.006 C 
ATOM     39  C   UNL     1      -7.453   6.482   0.284  0.00  0.00    +0.006 C 
ENDBRANCH  23  37
ENDBRANCH   1  23
TORSDOF 12
