REMARK  Name = ZINC29847003
REMARK  5 active torsions:
REMARK  status: ('A' for Active; 'I' for Inactive)
REMARK    1  A    between atoms: C_1  and  C_2
REMARK    2  A    between atoms: C_2  and  C_19
REMARK    3  A    between atoms: N_5  and  C_9
REMARK    4  A    between atoms: C_9  and  C_10
REMARK    5  A    between atoms: C_12  and  C_17
REMARK                            x       y       z     vdW  Elec       q    Type
REMARK                         _______ _______ _______ _____ _____    ______ ____
ROOT
ATOM      1  C   UNL     1       3.449  -2.405  -4.157  0.00  0.00    +0.047 C 
ATOM      2  C   UNL     1       2.722  -3.363  -3.211  0.00  0.00    +0.136 C 
ATOM      3  C   UNL     1       2.842  -2.889  -1.776  0.00  0.00    +0.251 C 
ATOM      4  O   UNL     1       3.861  -2.748  -1.134  0.00  0.00    -0.272 OA
ATOM      5  N   UNL     1       1.581  -2.657  -1.361  0.00  0.00    -0.219 N 
ATOM      6  C   UNL     1       0.689  -2.921  -2.324  0.00  0.00    +0.310 C 
ATOM      7  O   UNL     1      -0.511  -2.792  -2.186  0.00  0.00    -0.252 OA
ATOM      8  N   UNL     1       1.270  -3.341  -3.462  0.00  0.00    -0.281 N 
ATOM      9  H   UNL     1       0.878  -3.639  -4.445  0.00  0.00    +0.152 HD
ENDROOT
BRANCH   2  10
ATOM     10  C   UNL     1       3.264  -4.761  -3.354  0.00  0.00    +0.003 A 
ATOM     11  C   UNL     1       2.439  -5.781  -3.792  0.00  0.00    +0.009 A 
ATOM     12  C   UNL     1       2.937  -7.062  -3.929  0.00  0.00    +0.020 A 
ATOM     13  C   UNL     1       4.259  -7.329  -3.618  0.00  0.00    +0.042 A 
ATOM     14  C   UNL     1       5.083  -6.310  -3.174  0.00  0.00    +0.040 A 
ATOM     15  C   UNL     1       4.585  -5.026  -3.042  0.00  0.00    +0.048 A 
ATOM     16 CL   UNL     1       5.619  -3.748  -2.485  0.00  0.00    -0.083 Cl
ATOM     17 CL   UNL     1       4.883  -8.940  -3.784  0.00  0.00    -0.083 Cl
ENDBRANCH   2  10
BRANCH   5  18
ATOM     18  C   UNL     1       1.229  -2.181  -0.021  0.00  0.00    +0.156 C 
BRANCH  18  19
ATOM     19  C   UNL     1       1.207  -0.674  -0.013  0.00  0.00    +0.007 A 
ATOM     20  C   UNL     1       0.002  -0.004   0.002  0.00  0.00    +0.027 A 
ATOM     21  C   UNL     1      -0.017   1.393   0.010  0.00  0.00    +0.052 A 
ATOM     22  C   UNL     1       1.187   2.102   0.002  0.00  0.00    +0.021 A 
ATOM     23  C   UNL     1       2.385   1.421  -0.013  0.00  0.00    +0.040 A 
ATOM     24  C   UNL     1       2.398   0.035  -0.021  0.00  0.00    +0.128 A 
ATOM     25  F   UNL     1       3.575  -0.627  -0.036  0.00  0.00    -0.205 F 
BRANCH  21  26
ATOM     26  C   UNL     1      -1.265   2.094   0.019  0.00  0.00    +0.099 C 
ATOM     27  N   UNL     1      -2.255   2.651   0.027  0.00  0.00    -0.191 NA
ENDBRANCH  21  26
ENDBRANCH  18  19
ENDBRANCH   5  18
TORSDOF 4
