REMARK  Name = ZINC09442735
REMARK  12 active torsions:
REMARK  status: ('A' for Active; 'I' for Inactive)
REMARK    1  A    between atoms: C_1  and  C_2
REMARK    2  A    between atoms: C_2  and  C_3
REMARK    3  A    between atoms: C_2  and  C_4
REMARK    4  A    between atoms: C_8  and  C_31
REMARK    5  A    between atoms: C_9  and  N_10
REMARK    6  A    between atoms: C_11  and  C_13
REMARK    7  A    between atoms: C_13  and  N_14
REMARK    8  A    between atoms: C_17  and  C_21
REMARK    9  A    between atoms: C_17  and  C_22
REMARK   10  A    between atoms: C_25  and  N_28
REMARK   11  A    between atoms: C_31  and  C_32
REMARK   12  A    between atoms: C_31  and  C_33
REMARK                            x       y       z     vdW  Elec       q    Type
REMARK                         _______ _______ _______ _____ _____    ______ ____
ROOT
ATOM      1  N   UNL     1      -1.034   4.082  -2.863  0.00  0.00    -0.215 N 
ATOM      2  C   UNL     1      -1.037   3.360  -1.724  0.00  0.00    +0.251 C 
ATOM      3  O   UNL     1      -1.438   2.225  -1.578  0.00  0.00    -0.272 OA
ATOM      4  C   UNL     1      -0.433   4.262  -0.666  0.00  0.00    +0.135 C 
ATOM      5  N   UNL     1      -0.132   5.503  -1.400  0.00  0.00    -0.281 N 
ATOM      6  C   UNL     1      -0.518   5.301  -2.672  0.00  0.00    +0.310 C 
ATOM      7  O   UNL     1      -0.410   6.134  -3.551  0.00  0.00    -0.252 OA
ATOM      8  C   UNL     1      -1.439   4.530   0.455  0.00  0.00    +0.047 C 
ATOM      9  H   UNL     1       0.267   6.309  -1.036  0.00  0.00    +0.152 HD
ENDROOT
BRANCH   4  10
ATOM     10  C   UNL     1       0.829   3.655  -0.110  0.00  0.00    -0.015 A 
ATOM     11  C   UNL     1       0.935   2.283   0.026  0.00  0.00    +0.008 A 
ATOM     12  C   UNL     1       2.094   1.726   0.532  0.00  0.00    +0.033 A 
ATOM     13  C   UNL     1       3.144   2.542   0.911  0.00  0.00    +0.126 A 
ATOM     14  C   UNL     1       3.037   3.913   0.780  0.00  0.00    +0.033 A 
ATOM     15  C   UNL     1       1.879   4.470   0.270  0.00  0.00    +0.008 A 
BRANCH  13  16
ATOM     16  N   UNL     1       4.384   1.945   1.457  0.00  0.00    +0.056 N 
ATOM     17  O   UNL     1       5.310   2.664   1.791  0.00  0.00    -0.126 OA
ATOM     18  O   UNL     1       4.479   0.737   1.573  0.00  0.00    -0.126 OA
ENDBRANCH  13  16
ENDBRANCH   4  10
BRANCH   1  19
ATOM     19  C   UNL     1      -1.534   3.591  -4.149  0.00  0.00    +0.214 C 
BRANCH  19  21
ATOM     20  N   UNL     1      -0.640   2.394  -6.121  0.00  0.00    -0.284 N 
ATOM     21  C   UNL     1      -0.412   2.925  -4.903  0.00  0.00    +0.235 C 
ATOM     22  O   UNL     1       0.696   2.865  -4.413  0.00  0.00    -0.274 OA
ATOM     23  H   UNL     1      -1.540   2.375  -6.481  0.00  0.00    +0.155 HD
BRANCH  20  29
ATOM     24  C   UNL     1       1.149   0.793  -6.380  0.00  0.00    -0.023 A 
ATOM     25  C   UNL     1       2.194   0.276  -7.120  0.00  0.00    +0.006 A 
ATOM     26  C   UNL     1       2.524   0.837  -8.340  0.00  0.00    +0.001 A 
ATOM     27  C   UNL     1       1.806   1.915  -8.825  0.00  0.00    +0.006 A 
ATOM     28  C   UNL     1       0.756   2.434  -8.091  0.00  0.00    -0.023 A 
ATOM     29  C   UNL     1       0.423   1.871  -6.866  0.00  0.00    +0.040 A 
BRANCH  24  31
ATOM     30  C   UNL     1      -0.229  -0.935  -5.255  0.00  0.00    +0.012 C 
ATOM     31  C   UNL     1       0.794   0.183  -5.048  0.00  0.00    +0.015 C 
ATOM     32  C   UNL     1       2.055  -0.392  -4.399  0.00  0.00    +0.012 C 
ENDBRANCH  24  31
BRANCH  28  33
ATOM     33  C   UNL     1      -0.025   3.609  -8.620  0.00  0.00    +0.015 C 
ATOM     34  C   UNL     1       0.915   4.801  -8.814  0.00  0.00    +0.012 C 
ATOM     35  C   UNL     1      -0.661   3.237  -9.961  0.00  0.00    +0.012 C 
ENDBRANCH  28  33
ENDBRANCH  20  29
ENDBRANCH  19  21
ENDBRANCH   1  19
TORSDOF 7
