REMARK  Name = ZINC19892423
REMARK  17 active torsions:
REMARK  status: ('A' for Active; 'I' for Inactive)
REMARK    1  A    between atoms: C_1  and  C_2
REMARK    2  A    between atoms: C_2  and  C_3
REMARK    3  A    between atoms: C_3  and  C_4
REMARK    4  A    between atoms: C_4  and  O_5
REMARK    5  A    between atoms: O_5  and  C_6
REMARK    6  A    between atoms: C_6  and  C_8
REMARK    7  A    between atoms: C_9  and  C_41
REMARK    8  A    between atoms: C_13  and  C_15
REMARK    9  A    between atoms: C_18  and  O_23
REMARK   10  A    between atoms: C_20  and  O_21
REMARK   11  A    between atoms: O_21  and  C_22
REMARK   12  A    between atoms: O_23  and  C_24
REMARK   13  A    between atoms: C_28  and  C_31
REMARK   14  A    between atoms: C_34  and  O_39
REMARK   15  A    between atoms: C_35  and  O_37
REMARK   16  A    between atoms: O_37  and  C_38
REMARK   17  A    between atoms: O_39  and  C_40
REMARK                            x       y       z     vdW  Elec       q    Type
REMARK                         _______ _______ _______ _____ _____    ______ ____
ROOT
ATOM      1  C   UNL     1      -2.836   3.634   3.513  0.00  0.00    +0.065 C 
ATOM      2  C   UNL     1      -3.675   3.933   4.520  0.00  0.00    +0.016 C 
ATOM      3  N   UNL     1      -3.793   3.097   5.594  0.00  0.00    -0.321 N 
ATOM      4  C   UNL     1      -2.819   2.176   5.873  0.00  0.00    +0.016 C 
ATOM      5  C   UNL     1      -1.936   1.804   4.923  0.00  0.00    +0.024 C 
ATOM      6  C   UNL     1      -2.015   2.378   3.530  0.00  0.00    +0.096 C 
ATOM      7  C   UNL     1      -0.920   0.872   5.200  0.00  0.00    +0.162 C 
ATOM      8  O   UNL     1      -0.147   0.553   4.320  0.00  0.00    -0.292 OA
ATOM      9  C   UNL     1      -0.774   0.264   6.568  0.00  0.00    +0.088 C 
ATOM     10  C   UNL     1      -1.308   1.249   7.613  0.00  0.00    +0.032 C 
ATOM     11  C   UNL     1      -2.758   1.590   7.262  0.00  0.00    +0.059 C 
ATOM     12  C   UNL     1      -4.490   5.200   4.464  0.00  0.00    +0.061 C 
ATOM     13  H   UNL     1      -4.678   3.159   6.244  0.00  0.00    +0.152 HD
ENDROOT
BRANCH   6  14
ATOM     14  C   UNL     1      -2.643   1.363   2.611  0.00  0.00    +0.007 A 
ATOM     15  C   UNL     1      -3.933   0.927   2.842  0.00  0.00    +0.012 A 
ATOM     16  C   UNL     1      -4.511  -0.004   2.001  0.00  0.00    +0.046 A 
ATOM     17  C   UNL     1      -3.797  -0.504   0.921  0.00  0.00    +0.124 A 
ATOM     18  C   UNL     1      -2.504  -0.063   0.683  0.00  0.00    +0.091 A 
ATOM     19  C   UNL     1      -1.924   0.867   1.532  0.00  0.00    +0.128 A 
BRANCH  19  20
ATOM     20  O   UNL     1      -0.655   1.297   1.304  0.00  0.00    -0.495 OA
ATOM     21  C   UNL     1       0.024   0.744   0.176  0.00  0.00    +0.277 C 
ENDBRANCH  19  20
BRANCH  17  22
ATOM     22  O   UNL     1      -4.366  -1.419   0.094  0.00  0.00    -0.495 OA
ATOM     23  C   UNL     1      -5.703  -1.823   0.396  0.00  0.00    +0.277 C 
ENDBRANCH  17  22
ENDBRANCH   6  14
BRANCH  10  24
ATOM     24  C   UNL     1      -1.253   0.617   8.980  0.00  0.00    -0.040 A 
ATOM     25  C   UNL     1      -1.944  -0.554   9.226  0.00  0.00    +0.008 A 
ATOM     26  C   UNL     1      -1.893  -1.141  10.477  0.00  0.00    +0.049 A 
ATOM     27  C   UNL     1      -1.156  -0.548  11.490  0.00  0.00    +0.161 A 
ATOM     28  C   UNL     1      -0.465   0.634  11.243  0.00  0.00    +0.162 A 
ATOM     29  C   UNL     1      -0.516   1.214   9.986  0.00  0.00    +0.053 A 
BRANCH  28  30
ATOM     30  O   UNL     1       0.260   1.219  12.234  0.00  0.00    -0.491 OA
ATOM     31  C   UNL     1       0.944   2.431  11.909  0.00  0.00    +0.277 C 
ENDBRANCH  28  30
BRANCH  27  32
ATOM     32  O   UNL     1      -1.109  -1.121  12.723  0.00  0.00    -0.491 OA
ATOM     33  C   UNL     1      -1.843  -2.334  12.903  0.00  0.00    +0.277 C 
ENDBRANCH  27  32
ENDBRANCH  10  24
BRANCH   1  34
ATOM     34  C   UNL     1      -2.726   4.519   2.415  0.00  0.00    +0.338 C 
ATOM     35  O   UNL     1      -1.740   5.223   2.297  0.00  0.00    -0.245 OA
BRANCH  34  36
ATOM     36  O   UNL     1      -3.715   4.584   1.499  0.00  0.00    -0.461 OA
BRANCH  36  37
ATOM     37  C   UNL     1      -3.537   5.500   0.416  0.00  0.00    +0.232 C 
BRANCH  37  38
ATOM     38  C   UNL     1      -4.751   5.434  -0.512  0.00  0.00    +0.041 C 
BRANCH  38  40
ATOM     39  C   UNL     1      -5.775   6.348  -2.600  0.00  0.00    +0.004 C 
ATOM     40  C   UNL     1      -4.561   6.414  -1.671  0.00  0.00    -0.000 C 
ENDBRANCH  38  40
ENDBRANCH  37  38
ENDBRANCH  36  37
ENDBRANCH  34  36
ENDBRANCH   1  34
TORSDOF 11
