REMARK  Name = ZINC19075009
REMARK  9 active torsions:
REMARK  status: ('A' for Active; 'I' for Inactive)
REMARK    1  A    between atoms: C_1  and  C_2
REMARK    2  A    between atoms: N_11  and  C_12
REMARK    3  A    between atoms: C_12  and  C_13
REMARK    4  A    between atoms: C_13  and  C_14
REMARK    5  A    between atoms: C_14  and  C_15
REMARK    6  A    between atoms: C_15  and  C_16
REMARK    7  A    between atoms: C_16  and  C_17
REMARK    8  A    between atoms: C_17  and  N_18
REMARK    9  A    between atoms: C_26  and  C_28
REMARK                            x       y       z     vdW  Elec       q    Type
REMARK                         _______ _______ _______ _____ _____    ______ ____
ROOT
ATOM      1  C   UNL     1      -7.534   4.364  -4.744  0.00  0.00    +0.002 C 
ENDROOT
BRANCH   1   2
ATOM      2  C   UNL     1      -6.266   3.560  -4.449  0.00  0.00    +0.019 C 
BRANCH   2   3
ATOM      3  C   UNL     1      -6.146   3.332  -2.941  0.00  0.00    +0.106 C 
BRANCH   3  13
ATOM      4  C   UNL     1      -4.016   2.068   1.227  0.00  0.00    +0.028 C 
ATOM      5  C   UNL     1      -3.036   1.383   0.272  0.00  0.00    +0.074 C 
ATOM      6  C   UNL     1      -1.633   1.962   0.475  0.00  0.00    +0.022 C 
ATOM      7  C   UNL     1      -0.686   1.374  -0.575  0.00  0.00    +0.003 C 
ATOM      8  C   UNL     1      -1.171   1.761  -1.974  0.00  0.00    +0.019 C 
ATOM      9  C   UNL     1      -2.569   1.179  -2.204  0.00  0.00    +0.109 C 
ATOM     10  N   UNL     1      -3.451   1.624  -1.116  0.00  0.00    -0.283 N 
ATOM     11  C   UNL     1      -4.618   2.241  -1.387  0.00  0.00    +0.302 C 
ATOM     12  O   UNL     1      -5.389   2.507  -0.485  0.00  0.00    -0.253 OA
ATOM     13  N   UNL     1      -4.932   2.563  -2.658  0.00  0.00    -0.299 N 
ATOM     14  H   UNL     1      -4.353   2.285  -3.385  0.00  0.00    +0.150 HD
ENDBRANCH   3  13
ENDBRANCH   2   3
ENDBRANCH   1   2
BRANCH   1  15
ATOM     15  C   UNL     1      -7.653   4.592  -6.252  0.00  0.00    +0.002 C 
BRANCH  15  16
ATOM     16  C   UNL     1      -8.922   5.395  -6.547  0.00  0.00    +0.019 C 
BRANCH  16  17
ATOM     17  C   UNL     1      -9.041   5.623  -8.055  0.00  0.00    +0.106 C 
BRANCH  17  18
ATOM     18  N   UNL     1     -10.256   6.393  -8.338  0.00  0.00    -0.299 N 
ATOM     19  C   UNL     1     -10.569   6.714  -9.609  0.00  0.00    +0.302 C 
ATOM     20  O   UNL     1      -9.800   6.446 -10.511  0.00  0.00    -0.253 OA
ATOM     21  N   UNL     1     -11.735   7.334  -9.879  0.00  0.00    -0.283 N 
ATOM     22  C   UNL     1     -12.624   7.764  -8.791  0.00  0.00    +0.109 C 
ATOM     23  C   UNL     1     -12.934   9.258  -8.976  0.00  0.00    +0.019 C 
ATOM     24  C   UNL     1     -13.503   9.485 -10.379  0.00  0.00    +0.003 C 
ATOM     25  C   UNL     1     -12.463   9.076 -11.425  0.00  0.00    +0.022 C 
ATOM     26  C   UNL     1     -12.144   7.586 -11.268  0.00  0.00    +0.074 C 
ATOM     27  C   UNL     1     -11.007   7.202 -12.216  0.00  0.00    +0.028 C 
ATOM     28  H   UNL     1     -10.834   6.670  -7.611  0.00  0.00    +0.150 HD
ENDBRANCH  17  18
ENDBRANCH  16  17
ENDBRANCH  15  16
ENDBRANCH   1  15
TORSDOF 7
