REMARK  Name = ZINC35246361
REMARK  13 active torsions:
REMARK  status: ('A' for Active; 'I' for Inactive)
REMARK    1  A    between atoms: C_1  and  C_2
REMARK    2  A    between atoms: C_2  and  C_3
REMARK    3  A    between atoms: C_3  and  C_4
REMARK    4  A    between atoms: C_4  and  N_5
REMARK    5  A    between atoms: C_6  and  C_37
REMARK    6  A    between atoms: C_7  and  C_31
REMARK    7  A    between atoms: C_8  and  C_13
REMARK    8  A    between atoms: C_17  and  N_19
REMARK    9  A    between atoms: C_20  and  C_22
REMARK   10  A    between atoms: C_31  and  O_33
REMARK   11  A    between atoms: O_33  and  C_34
REMARK   12  A    between atoms: C_34  and  C_35
REMARK   13  A    between atoms: C_34  and  C_36
REMARK                            x       y       z     vdW  Elec       q    Type
REMARK                         _______ _______ _______ _____ _____    ______ ____
ROOT
ATOM      1  N   UNL     1      -2.684  -2.354  -0.231  0.00  0.00    -0.259 N 
ATOM      2  C   UNL     1      -3.158  -2.630   1.019  0.00  0.00    +0.024 C 
ATOM      3  C   UNL     1      -4.396  -3.140   1.198  0.00  0.00    +0.078 C 
ATOM      4  C   UNL     1      -5.239  -3.394  -0.034  0.00  0.00    +0.144 C 
ATOM      5  N   UNL     1      -4.636  -3.062  -1.336  0.00  0.00    -0.288 N 
ATOM      6  C   UNL     1      -3.387  -2.554  -1.353  0.00  0.00    +0.307 C 
ATOM      7  O   UNL     1      -2.881  -2.273  -2.422  0.00  0.00    -0.252 OA
ATOM      8  C   UNL     1      -2.286  -2.362   2.219  0.00  0.00    +0.061 C 
ATOM      9  H   UNL     1      -5.126  -3.202  -2.161  0.00  0.00    +0.151 HD
ENDROOT
BRANCH   4  10
ATOM     10  C   UNL     1      -5.607  -4.855  -0.053  0.00  0.00    -0.021 A 
ATOM     11  C   UNL     1      -4.692  -5.792  -0.497  0.00  0.00    +0.006 A 
ATOM     12  C   UNL     1      -5.025  -7.134  -0.515  0.00  0.00    +0.002 A 
ATOM     13  C   UNL     1      -6.273  -7.543  -0.089  0.00  0.00    +0.023 A 
ATOM     14  C   UNL     1      -7.194  -6.605   0.358  0.00  0.00    +0.034 A 
ATOM     15  C   UNL     1      -6.855  -5.258   0.380  0.00  0.00    +0.029 A 
BRANCH  14  16
ATOM     16  N   UNL     1      -8.459  -7.016   0.790  0.00  0.00    -0.281 N 
ATOM     17  C   UNL     1      -8.602  -8.188   1.440  0.00  0.00    +0.248 C 
ATOM     18  O   UNL     1      -7.645  -8.925   1.581  0.00  0.00    -0.270 OA
ATOM     19  H   UNL     1      -9.234  -6.457   0.622  0.00  0.00    +0.155 HD
BRANCH  17  20
ATOM     20  C   UNL     1      -9.919  -8.577   1.980  0.00  0.00    +0.041 A 
ATOM     21  C   UNL     1     -11.021  -7.734   1.815  0.00  0.00    +0.017 A 
ATOM     22  C   UNL     1     -12.249  -8.098   2.320  0.00  0.00    +0.050 A 
ATOM     23  C   UNL     1     -12.398  -9.303   2.994  0.00  0.00    +0.166 A 
ATOM     24  C   UNL     1     -11.302 -10.149   3.163  0.00  0.00    +0.167 A 
ATOM     25  C   UNL     1     -10.068  -9.792   2.655  0.00  0.00    +0.062 A 
ATOM     26  O   UNL     1     -11.708 -11.256   3.853  0.00  0.00    -0.453 OA
ATOM     27  C   UNL     1     -12.963 -10.891   4.458  0.00  0.00    +0.466 C 
ATOM     28  O   UNL     1     -13.487  -9.880   3.577  0.00  0.00    -0.453 OA
ENDBRANCH  17  20
ENDBRANCH  14  16
ENDBRANCH   4  10
BRANCH   3  29
ATOM     29  C   UNL     1      -4.888  -3.427   2.493  0.00  0.00    +0.339 C 
ATOM     30  O   UNL     1      -4.193  -3.215   3.469  0.00  0.00    -0.245 OA
BRANCH  29  31
ATOM     31  O   UNL     1      -6.128  -3.936   2.646  0.00  0.00    -0.459 OA
BRANCH  31  32
ATOM     32  C   UNL     1      -6.560  -4.202   3.982  0.00  0.00    +0.171 C 
ATOM     33  C   UNL     1      -8.079  -4.039   4.069  0.00  0.00    +0.052 C 
ATOM     34  C   UNL     1      -6.178  -5.632   4.367  0.00  0.00    +0.052 C 
ENDBRANCH  31  32
ENDBRANCH  29  31
ENDBRANCH   3  29
BRANCH   1  35
ATOM     35  C   UNL     1      -1.332  -1.803  -0.352  0.00  0.00    +0.115 C 
BRANCH  35  36
ATOM     36  C   UNL     1      -0.313  -2.944  -0.342  0.00  0.00    +0.019 C 
BRANCH  36  38
ATOM     37  C   UNL     1       2.118  -3.510  -0.457  0.00  0.00    +0.004 C 
ATOM     38  C   UNL     1       1.099  -2.368  -0.468  0.00  0.00    -0.002 C 
ENDBRANCH  36  38
ENDBRANCH  35  36
ENDBRANCH   1  35
TORSDOF 9
