REMARK  Name = ZINC12010180
REMARK  7 active torsions:
REMARK  status: ('A' for Active; 'I' for Inactive)
REMARK    1  A    between atoms: C_1  and  C_2
REMARK    2  A    between atoms: C_2  and  C_4
REMARK    3  A    between atoms: C_2  and  N_26
REMARK    4  A    between atoms: C_7  and  C_10
REMARK    5  A    between atoms: C_16  and  C_18
REMARK    6  A    between atoms: C_18  and  C_19
REMARK    7  A    between atoms: C_27  and  C_29
REMARK                            x       y       z     vdW  Elec       q    Type
REMARK                         _______ _______ _______ _____ _____    ______ ____
ROOT
ATOM      1  C   UNL     1       1.141   7.363   4.753  0.00  0.00    +0.080 A 
ATOM      2  C   UNL     1       1.164   6.325   5.642  0.00  0.00    +0.076 A 
ATOM      3  S   UNL     1       1.166   4.931   4.522  0.00  0.00    -0.060 S 
ATOM      4  C   UNL     1       1.146   5.867   3.000  0.00  0.00    +0.165 A 
ATOM      5  N   UNL     1       1.133   7.106   3.453  0.00  0.00    -0.225 NA
ATOM      6  N   UNL     1       1.140   5.411   1.687  0.00  0.00    -0.264 N 
ATOM      7  C   UNL     1       1.157   4.087   1.434  0.00  0.00    +0.223 C 
ATOM      8  O   UNL     1       1.176   3.294   2.351  0.00  0.00    -0.275 OA
ATOM      9  H   UNL     1       1.125   6.045   0.954  0.00  0.00    +0.157 HD
ENDROOT
BRANCH   1  13
ATOM     10  C   UNL     1       1.100  11.380   6.146  0.00  0.00    -0.027 A 
ATOM     11  C   UNL     1       1.091  11.122   4.787  0.00  0.00    +0.006 A 
ATOM     12  C   UNL     1       1.104   9.820   4.329  0.00  0.00    +0.010 A 
ATOM     13  C   UNL     1       1.127   8.765   5.239  0.00  0.00    +0.001 A 
ATOM     14  C   UNL     1       1.130   9.031   6.607  0.00  0.00    +0.010 A 
ATOM     15  C   UNL     1       1.122  10.337   7.053  0.00  0.00    +0.006 A 
BRANCH  10  17
ATOM     16  C   UNL     1       2.504  13.223   7.030  0.00  0.00    +0.033 C 
ATOM     17  C   UNL     1       1.085  12.804   6.639  0.00  0.00    +0.100 C 
BRANCH  17  18
ATOM     18  N   UNL     1       0.206  12.907   7.807  0.00  0.00    -0.309 N 
ATOM     19  C   UNL     1      -0.367  14.087   8.117  0.00  0.00    +0.210 C 
ATOM     20  O   UNL     1      -0.154  15.063   7.430  0.00  0.00    -0.276 OA
ATOM     21  C   UNL     1      -1.271  14.193   9.318  0.00  0.00    +0.109 C 
ATOM     22  H   UNL     1       0.036  12.126   8.356  0.00  0.00    +0.149 HD
ENDBRANCH  17  18
ENDBRANCH  10  17
ENDBRANCH   1  13
BRANCH   7  23
ATOM     23  C   UNL     1       1.150   3.592   0.010  0.00  0.00    +0.131 C 
BRANCH  23  24
ATOM     24  C   UNL     1       1.171   2.086   0.002  0.00  0.00    -0.039 A 
ATOM     25  C   UNL     1      -0.017   1.378   0.010  0.00  0.00    +0.005 A 
ATOM     26  C   UNL     1       0.002  -0.004   0.002  0.00  0.00    +0.015 A 
ATOM     27  C   UNL     1       1.209  -0.679  -0.013  0.00  0.00    +0.018 A 
ATOM     28  C   UNL     1       2.397   0.029  -0.021  0.00  0.00    +0.015 A 
ATOM     29  C   UNL     1       2.378   1.411  -0.013  0.00  0.00    +0.005 A 
ATOM     30 BR   UNL     1       1.236  -2.570  -0.023  0.00  0.00    -0.050 Br
ENDBRANCH  23  24
ENDBRANCH   7  23
TORSDOF 5
