REMARK  Name = ZINC14357607
REMARK  11 active torsions:
REMARK  status: ('A' for Active; 'I' for Inactive)
REMARK    1  A    between atoms: C_1  and  S_2
REMARK    2  A    between atoms: S_2  and  C_3
REMARK    3  A    between atoms: C_3  and  C_4
REMARK    4  A    between atoms: C_4  and  C_5
REMARK    5  A    between atoms: C_5  and  C_7
REMARK    6  A    between atoms: C_5  and  N_27
REMARK    7  A    between atoms: C_7  and  O_9
REMARK    8  A    between atoms: O_9  and  C_10
REMARK    9  A    between atoms: C_10  and  C_11
REMARK   10  A    between atoms: C_14  and  C_16
REMARK   11  A    between atoms: C_28  and  C_30
REMARK                            x       y       z     vdW  Elec       q    Type
REMARK                         _______ _______ _______ _____ _____    ______ ____
ROOT
ATOM      1  C   UNL     1      -9.580   2.404   0.220  0.00  0.00    +0.328 C 
ATOM      2  O   UNL     1      -9.836   1.383   0.814  0.00  0.00    -0.249 OA
ENDROOT
BRANCH   1   3
ATOM      3  C   UNL     1     -10.695   3.313  -0.230  0.00  0.00    +0.183 C 
BRANCH   3   4
ATOM      4  N   UNL     1     -11.983   2.741   0.170  0.00  0.00    -0.298 N 
ATOM      5  C   UNL     1     -13.102   3.058  -0.512  0.00  0.00    +0.246 C 
ATOM      6  O   UNL     1     -13.042   3.818  -1.459  0.00  0.00    -0.270 OA
ATOM      7  H   UNL     1     -12.031   2.135   0.925  0.00  0.00    +0.150 HD
BRANCH   5   8
ATOM      8  C   UNL     1     -14.401   2.482  -0.108  0.00  0.00    +0.055 A 
ATOM      9  C   UNL     1     -14.473   1.604   0.975  0.00  0.00    +0.014 A 
ATOM     10  C   UNL     1     -15.689   1.074   1.350  0.00  0.00    +0.001 A 
ATOM     11  C   UNL     1     -16.837   1.401   0.648  0.00  0.00    +0.001 A 
ATOM     12  C   UNL     1     -16.774   2.265  -0.429  0.00  0.00    +0.021 A 
ATOM     13  C   UNL     1     -15.562   2.808  -0.813  0.00  0.00    +0.053 A 
ATOM     14 CL   UNL     1     -15.484   3.892  -2.166  0.00  0.00    -0.083 Cl
ENDBRANCH   5   8
ENDBRANCH   3   4
BRANCH   3  15
ATOM     15  C   UNL     1     -10.524   4.689   0.417  0.00  0.00    +0.044 C 
BRANCH  15  16
ATOM     16  C   UNL     1     -11.581   5.647  -0.135  0.00  0.00    +0.071 C 
BRANCH  16  18
ATOM     17  C   UNL     1     -12.689   8.283  -0.118  0.00  0.00    +0.084 C 
ATOM     18  S   UNL     1     -11.378   7.278   0.633  0.00  0.00    -0.164 S 
ENDBRANCH  16  18
ENDBRANCH  15  16
ENDBRANCH   3  15
ENDBRANCH   1   3
BRANCH   1  19
ATOM     19  O   UNL     1      -8.304   2.728  -0.040  0.00  0.00    -0.454 OA
BRANCH  19  20
ATOM     20  C   UNL     1      -7.282   1.806   0.424  0.00  0.00    +0.328 C 
BRANCH  20  21
ATOM     21  C   UNL     1      -5.922   2.331   0.045  0.00  0.00    +0.257 C 
ATOM     22  O   UNL     1      -5.823   3.380  -0.555  0.00  0.00    -0.272 OA
ATOM     23  N   UNL     1      -4.815   1.636   0.374  0.00  0.00    -0.250 N 
ATOM     24  C   UNL     1      -3.598   2.106   0.036  0.00  0.00    +0.263 C 
ATOM     25  O   UNL     1      -3.499   3.155  -0.565  0.00  0.00    -0.271 OA
ATOM     26  H   UNL     1      -4.895   0.797   0.855  0.00  0.00    +0.158 HD
BRANCH  24  27
ATOM     27  C   UNL     1      -2.361   1.329   0.404  0.00  0.00    +0.296 C 
ATOM     28  C   UNL     1      -2.350  -0.011  -0.344  0.00  0.00    +0.283 C 
ATOM     29  O   UNL     1      -1.158  -0.717   0.017  0.00  0.00    -0.484 OA
ATOM     30  C   UNL     1       0.002  -0.004   0.002  0.00  0.00    +0.162 A 
ATOM     31  C   UNL     1       1.214  -0.677  -0.017  0.00  0.00    +0.049 A 
ATOM     32  C   UNL     1       2.400   0.032  -0.027  0.00  0.00    +0.004 A 
ATOM     33  C   UNL     1       2.382   1.415  -0.017  0.00  0.00    +0.004 A 
ATOM     34  C   UNL     1       1.177   2.091   0.002  0.00  0.00    +0.049 A 
ATOM     35  C   UNL     1      -0.017   1.385   0.010  0.00  0.00    +0.163 A 
ATOM     36  O   UNL     1      -1.195   2.066   0.019  0.00  0.00    -0.473 OA
ENDBRANCH  24  27
ENDBRANCH  20  21
ENDBRANCH  19  20
ENDBRANCH   1  19
TORSDOF 10
