REMARK  Name = ZINC64028803
REMARK  6 active torsions:
REMARK  status: ('A' for Active; 'I' for Inactive)
REMARK    1  A    between atoms: C_1  and  C_2
REMARK    2  A    between atoms: C_4  and  C_12
REMARK    3  A    between atoms: C_12  and  C_13
REMARK    4  A    between atoms: N_15  and  C_16
REMARK    5  A    between atoms: C_19  and  C_22
REMARK    6  A    between atoms: C_25  and  C_28
REMARK                            x       y       z     vdW  Elec       q    Type
REMARK                         _______ _______ _______ _____ _____    ______ ____
ROOT
ATOM      1  C   UNL     1       1.025  -1.223  -3.713  0.00  0.00    +0.221 C 
ATOM      2  O   UNL     1       1.616  -2.211  -3.332  0.00  0.00    -0.275 OA
ATOM      3  N   UNL     1       1.341  -0.662  -4.897  0.00  0.00    -0.285 N 
ATOM      4  H   UNL     1       0.927   0.174  -5.164  0.00  0.00    +0.155 HD
ENDROOT
BRANCH   3   5
ATOM      5  C   UNL     1       2.266  -1.286  -5.741  0.00  0.00    +0.033 A 
ATOM      6  C   UNL     1       3.318  -2.015  -5.203  0.00  0.00    +0.023 A 
ATOM      7  C   UNL     1       4.230  -2.629  -6.039  0.00  0.00    +0.008 A 
ATOM      8  C   UNL     1       4.096  -2.519  -7.411  0.00  0.00    -0.013 A 
ATOM      9  C   UNL     1       3.050  -1.793  -7.950  0.00  0.00    +0.008 A 
ATOM     10  C   UNL     1       2.131  -1.181  -7.119  0.00  0.00    +0.023 A 
BRANCH   8  11
ATOM     11  C   UNL     1       5.092  -3.190  -8.320  0.00  0.00    +0.192 C 
ATOM     12  C   UNL     1       6.114  -2.189  -8.812  0.00  0.00    +0.117 C 
ATOM     13  N   UNL     1       6.292  -2.371 -10.067  0.00  0.00    -0.262 NA
ATOM     14  C   UNL     1       5.441  -3.473 -10.532  0.00  0.00    +0.233 C 
ATOM     15  O   UNL     1       4.440  -3.667  -9.515  0.00  0.00    -0.342 OA
ATOM     16  C   UNL     1       4.779  -3.101 -11.860  0.00  0.00    +0.064 C 
ENDBRANCH   8  11
ENDBRANCH   3   5
BRANCH   1  17
ATOM     17  C   UNL     1      -0.064  -0.622  -2.861  0.00  0.00    +0.129 C 
BRANCH  17  20
ATOM     18  C   UNL     1      -2.689  -2.248  -1.875  0.00  0.00    +0.035 C 
ATOM     19  C   UNL     1      -1.251  -2.694  -1.597  0.00  0.00    +0.104 C 
ATOM     20  C   UNL     1      -0.315  -1.508  -1.669  0.00  0.00    -0.030 C 
ATOM     21  C   UNL     1       0.250  -1.403  -0.444  0.00  0.00    -0.000 A 
ATOM     22  C   UNL     1       1.232  -0.469   0.121  0.00  0.00    +0.010 A 
ATOM     23  C   UNL     1       1.615  -0.621   1.409  0.00  0.00    +0.001 A 
ATOM     24  C   UNL     1       1.100  -1.645   2.216  0.00  0.00    +0.002 A 
ATOM     25  C   UNL     1       0.195  -2.541   1.768  0.00  0.00    +0.026 A 
ATOM     26  C   UNL     1      -0.279  -2.476   0.428  0.00  0.00    +0.043 A 
ATOM     27  N   UNL     1      -1.138  -3.216  -0.231  0.00  0.00    -0.378 N 
ATOM     28  H   UNL     1      -1.619  -3.980   0.124  0.00  0.00    +0.160 HD
ENDBRANCH  17  20
ENDBRANCH   1  17
TORSDOF 4
