REMARK  Name = ZINC39594767
REMARK  12 active torsions:
REMARK  status: ('A' for Active; 'I' for Inactive)
REMARK    1  A    between atoms: C_1  and  C_2
REMARK    2  A    between atoms: C_4  and  C_35
REMARK    3  A    between atoms: C_5  and  N_9
REMARK    4  A    between atoms: C_6  and  C_8
REMARK    5  A    between atoms: C_10  and  C_12
REMARK    6  A    between atoms: C_12  and  O_13
REMARK    7  A    between atoms: O_13  and  C_14
REMARK    8  A    between atoms: C_14  and  C_16
REMARK    9  A    between atoms: C_20  and  S_22
REMARK   10  A    between atoms: S_22  and  N_25
REMARK   11  A    between atoms: C_27  and  C_34
REMARK   12  A    between atoms: C_30  and  C_33
REMARK                            x       y       z     vdW  Elec       q    Type
REMARK                         _______ _______ _______ _____ _____    ______ ____
ROOT
ATOM      1  C   UNL     1      -0.646  -8.308   2.115  0.00  0.00    +0.340 C 
ATOM      2  O   UNL     1      -0.892  -8.948   1.113  0.00  0.00    -0.245 OA
ENDROOT
BRANCH   1   3
ATOM      3  C   UNL     1      -0.574  -8.986   3.426  0.00  0.00    +0.061 A 
ATOM      4  C   UNL     1      -0.297  -8.251   4.581  0.00  0.00    +0.015 A 
ATOM      5  C   UNL     1      -0.231  -8.890   5.801  0.00  0.00    +0.003 A 
ATOM      6  C   UNL     1      -0.437 -10.256   5.883  0.00  0.00    +0.028 A 
ATOM      7  C   UNL     1      -0.711 -10.990   4.742  0.00  0.00    +0.106 A 
ATOM      8  C   UNL     1      -0.786 -10.363   3.516  0.00  0.00    +0.043 A 
BRANCH   7   9
ATOM      9  S   UNL     1      -0.971 -12.729   4.857  0.00  0.00    +0.061 S 
ATOM     10  O   UNL     1      -0.670 -13.270   3.578  0.00  0.00    -0.153 OA
ATOM     11  O   UNL     1      -0.313 -13.161   6.040  0.00  0.00    -0.153 OA
BRANCH   9  12
ATOM     12  N   UNL     1      -2.591 -12.967   5.102  0.00  0.00    -0.176 NA
ATOM     13  C   UNL     1      -3.143 -13.013   6.463  0.00  0.00    +0.112 C 
ATOM     14  C   UNL     1      -4.290 -12.002   6.564  0.00  0.00    +0.002 C 
ATOM     15  C   UNL     1      -5.312 -12.284   5.461  0.00  0.00    +0.009 C 
ATOM     16  C   UNL     1      -4.646 -12.124   4.093  0.00  0.00    +0.002 C 
ATOM     17  C   UNL     1      -3.505 -13.130   3.963  0.00  0.00    +0.112 C 
ATOM     18  C   UNL     1      -4.090 -10.705   3.959  0.00  0.00    +0.009 C 
ATOM     19  C   UNL     1      -4.964 -12.130   7.932  0.00  0.00    +0.009 C 
ENDBRANCH   9  12
ENDBRANCH   7   9
ENDBRANCH   1   3
BRANCH   1  20
ATOM     20  O   UNL     1      -0.441  -6.979   2.032  0.00  0.00    -0.452 OA
BRANCH  20  21
ATOM     21  C   UNL     1      -0.526  -6.390   0.733  0.00  0.00    +0.328 C 
BRANCH  21  23
ATOM     22  N   UNL     1      -0.299  -4.141  -0.272  0.00  0.00    -0.282 N 
ATOM     23  C   UNL     1      -0.270  -4.908   0.835  0.00  0.00    +0.255 C 
ATOM     24  O   UNL     1      -0.036  -4.407   1.915  0.00  0.00    -0.272 OA
ATOM     25  H   UNL     1      -0.420  -4.551  -1.143  0.00  0.00    +0.155 HD
BRANCH  22  30
ATOM     26  C   UNL     1       0.286   1.486   0.157  0.00  0.00    +0.044 C 
ATOM     27  C   UNL     1       0.130  -0.009   0.043  0.00  0.00    -0.050 A 
ATOM     28  C   UNL     1       1.121  -0.844   0.526  0.00  0.00    +0.008 A 
ATOM     29  C   UNL     1       0.982  -2.215   0.423  0.00  0.00    -0.029 A 
ATOM     30  C   UNL     1      -0.155  -2.753  -0.166  0.00  0.00    +0.039 A 
ATOM     31  C   UNL     1      -1.148  -1.911  -0.649  0.00  0.00    -0.029 A 
ATOM     32  C   UNL     1      -1.005  -0.542  -0.539  0.00  0.00    +0.008 A 
ATOM     33  C   UNL     1      -2.383  -2.491  -1.289  0.00  0.00    +0.045 C 
ATOM     34  C   UNL     1       2.062  -3.124   0.948  0.00  0.00    +0.045 C 
ENDBRANCH  22  30
ENDBRANCH  21  23
ENDBRANCH  20  21
ENDBRANCH   1  20
TORSDOF 7
