REMARK  Name = ZINC08455865
REMARK  8 active torsions:
REMARK  status: ('A' for Active; 'I' for Inactive)
REMARK    1  A    between atoms: C_1  and  C_2
REMARK    2  A    between atoms: C_9  and  N_13
REMARK    3  A    between atoms: C_10  and  C_11
REMARK    4  A    between atoms: C_14  and  C_16
REMARK    5  A    between atoms: C_22  and  C_31
REMARK    6  A    between atoms: C_25  and  C_27
REMARK    7  A    between atoms: C_34  and  O_37
REMARK    8  A    between atoms: O_37  and  C_38
REMARK                            x       y       z     vdW  Elec       q    Type
REMARK                         _______ _______ _______ _____ _____    ______ ____
ROOT
ATOM      1  C   UNL     1       2.615  -7.449   3.389  0.00  0.00    +0.096 A 
ATOM      2  C   UNL     1       2.690  -8.591   2.551  0.00  0.00    +0.149 A 
ATOM      3  N   UNL     1       3.046  -9.612   3.281  0.00  0.00    -0.177 NA
ATOM      4  N   UNL     1       3.216  -9.195   4.600  0.00  0.00    -0.238 N 
ATOM      5  C   UNL     1       2.956  -7.868   4.662  0.00  0.00    +0.130 A 
ATOM      6  N   UNL     1       3.036  -7.139   5.836  0.00  0.00    -0.322 N 
ATOM      7  C   UNL     1       3.145  -7.922   7.082  0.00  0.00    +0.104 C 
ATOM      8  C   UNL     1       4.144  -9.062   6.854  0.00  0.00    +0.063 C 
ATOM      9  C   UNL     1       3.613 -10.000   5.760  0.00  0.00    +0.215 C 
ATOM     10  H   UNL     1       3.021  -6.169   5.839  0.00  0.00    +0.148 HD
ENDROOT
BRANCH   7  11
ATOM     11  C   UNL     1       1.797  -8.489   7.444  0.00  0.00    -0.027 A 
ATOM     12  C   UNL     1       0.972  -8.993   6.456  0.00  0.00    +0.009 A 
ATOM     13  C   UNL     1      -0.265  -9.512   6.785  0.00  0.00    +0.046 A 
ATOM     14  C   UNL     1      -0.679  -9.529   8.109  0.00  0.00    +0.120 A 
ATOM     15  C   UNL     1       0.150  -9.023   9.099  0.00  0.00    +0.046 A 
ATOM     16  C   UNL     1       1.389  -8.509   8.765  0.00  0.00    +0.009 A 
BRANCH  14  17
ATOM     17  O   UNL     1      -1.896 -10.039   8.435  0.00  0.00    -0.495 OA
ATOM     18  C   UNL     1      -2.256 -10.024   9.818  0.00  0.00    +0.277 C 
ENDBRANCH  14  17
ENDBRANCH   7  11
BRANCH   1  20
ATOM     19  N   UNL     1       1.942  -5.827   1.698  0.00  0.00    -0.275 N 
ATOM     20  C   UNL     1       2.252  -6.087   2.983  0.00  0.00    +0.253 C 
ATOM     21  O   UNL     1       2.232  -5.191   3.807  0.00  0.00    -0.270 OA
ATOM     22  H   UNL     1       1.958  -6.540   1.041  0.00  0.00    +0.156 HD
BRANCH  19  30
ATOM     23  C   UNL     1      -0.019   1.526   0.010  0.00  0.00    +0.008 C 
ATOM     24  C   UNL     1       0.002  -0.004   0.002  0.00  0.00    -0.009 C 
ATOM     25  C   UNL     1       0.724  -0.500  -1.254  0.00  0.00    +0.008 C 
ATOM     26  C   UNL     1       0.537  -2.012  -1.399  0.00  0.00    +0.037 C 
ATOM     27  C   UNL     1       0.935  -2.680  -0.092  0.00  0.00    -0.018 A 
ATOM     28  C   UNL     1       1.019  -1.977   1.059  0.00  0.00    -0.004 A 
ATOM     29  S   UNL     1       1.508  -3.165   2.275  0.00  0.00    -0.077 S 
ATOM     30  C   UNL     1       1.599  -4.539   1.314  0.00  0.00    +0.090 A 
ATOM     31  C   UNL     1       1.254  -4.090   0.049  0.00  0.00    +0.084 A 
ATOM     32  C   UNL     1       0.750  -0.515   1.242  0.00  0.00    +0.046 C 
BRANCH  31  33
ATOM     33  C   UNL     1       1.214  -4.980  -1.072  0.00  0.00    +0.102 C 
ATOM     34  N   UNL     1       1.182  -5.685  -1.962  0.00  0.00    -0.191 NA
ENDBRANCH  31  33
ENDBRANCH  19  30
ENDBRANCH   1  20
BRANCH   9  35
ATOM     35  C   UNL     1       4.721 -10.974   5.354  0.00  0.00    +0.412 C 
ATOM     36  F   UNL     1       5.827 -10.254   4.887  0.00  0.00    -0.168 F 
ATOM     37  F   UNL     1       5.098 -11.740   6.461  0.00  0.00    -0.168 F 
ATOM     38  F   UNL     1       4.253 -11.817   4.340  0.00  0.00    -0.168 F 
ENDBRANCH   9  35
TORSDOF 6
