REMARK  Name = ZINC28633091
REMARK  6 active torsions:
REMARK  status: ('A' for Active; 'I' for Inactive)
REMARK    1  A    between atoms: C_1  and  C_2
REMARK    2  A    between atoms: C_11  and  C_13
REMARK    3  A    between atoms: N_15  and  N_16
REMARK    4  A    between atoms: N_16  and  C_17
REMARK    5  A    between atoms: C_17  and  N_19
REMARK    6  A    between atoms: N_19  and  C_20
REMARK                            x       y       z     vdW  Elec       q    Type
REMARK                         _______ _______ _______ _____ _____    ______ ____
ROOT
ATOM      1  C   UNL     1      -6.530   1.021   0.074  0.00  0.00    +0.260 C 
ATOM      2  O   UNL     1      -7.397   0.169   0.079  0.00  0.00    -0.269 OA
ATOM      3  N   UNL     1      -6.868   2.326   0.086  0.00  0.00    -0.231 N 
ATOM      4  H   UNL     1      -6.176   3.006   0.082  0.00  0.00    +0.173 HD
ENDROOT
BRANCH   1  15
ATOM      5  C   UNL     1      -0.018   1.503   0.010  0.00  0.00    +0.109 C 
ATOM      6  C   UNL     1       0.002  -0.004   0.002  0.00  0.00    +0.217 C 
ATOM      7  O   UNL     1       1.060  -0.596  -0.011  0.00  0.00    -0.276 OA
ATOM      8  N   UNL     1      -1.156  -0.694   0.009  0.00  0.00    -0.271 N 
ATOM      9  C   UNL     1      -1.262  -2.155   0.008  0.00  0.00    +0.118 C 
ATOM     10  C   UNL     1      -2.770  -2.451   0.019  0.00  0.00    +0.056 C 
ATOM     11  C   UNL     1      -3.424  -1.087   0.026  0.00  0.00    -0.024 A 
ATOM     12  C   UNL     1      -2.426  -0.120   0.025  0.00  0.00    +0.040 A 
ATOM     13  C   UNL     1      -2.784   1.232   0.036  0.00  0.00    +0.024 A 
ATOM     14  C   UNL     1      -4.108   1.603   0.052  0.00  0.00    +0.015 A 
ATOM     15  C   UNL     1      -5.108   0.627   0.057  0.00  0.00    +0.039 A 
ATOM     16  C   UNL     1      -4.752  -0.724   0.036  0.00  0.00    +0.018 A 
ENDBRANCH   1  15
BRANCH   3  17
ATOM     17  N   UNL     1      -8.218   2.700   0.103  0.00  0.00    -0.246 N 
ATOM     18  H   UNL     1      -8.910   2.019   0.106  0.00  0.00    +0.172 HD
BRANCH  17  19
ATOM     19  C   UNL     1      -8.556   4.004   0.114  0.00  0.00    +0.147 C 
ATOM     20  S   UNL     1     -10.206   4.461   0.135  0.00  0.00    -0.017 S 
BRANCH  19  21
ATOM     21  N   UNL     1      -7.595   4.949   0.109  0.00  0.00    -0.323 N 
ATOM     22  H   UNL     1      -6.660   4.691   0.097  0.00  0.00    +0.148 HD
BRANCH  21  23
ATOM     23  C   UNL     1      -7.962   6.367   0.121  0.00  0.00    +0.072 C 
ATOM     24  C   UNL     1      -8.227   6.838  -1.310  0.00  0.00    +0.022 C 
ATOM     25  C   UNL     1      -8.611   8.319  -1.297  0.00  0.00    +0.002 C 
ATOM     26  C   UNL     1      -7.466   9.137  -0.695  0.00  0.00    +0.000 C 
ATOM     27  C   UNL     1      -7.201   8.666   0.736  0.00  0.00    +0.002 C 
ATOM     28  C   UNL     1      -6.818   7.185   0.723  0.00  0.00    +0.022 C 
ENDBRANCH  21  23
ENDBRANCH  19  21
ENDBRANCH  17  19
ENDBRANCH   3  17
TORSDOF 5
