REMARK  Name = ZINC36692004
REMARK  9 active torsions:
REMARK  status: ('A' for Active; 'I' for Inactive)
REMARK    1  A    between atoms: C_1  and  C_2
REMARK    2  A    between atoms: C_2  and  C_3
REMARK    3  A    between atoms: C_3  and  C_4
REMARK    4  A    between atoms: C_4  and  C_5
REMARK    5  A    between atoms: C_5  and  C_6
REMARK    6  A    between atoms: C_6  and  C_8
REMARK    7  A    between atoms: C_6  and  N_9
REMARK    8  A    between atoms: C_10  and  C_12
REMARK    9  A    between atoms: C_18  and  C_20
REMARK                            x       y       z     vdW  Elec       q    Type
REMARK                         _______ _______ _______ _____ _____    ______ ____
ROOT
ATOM      1  C   UNL     1      -0.415  -5.936  -1.964  0.00  0.00    +0.078 C 
ATOM      2  C   UNL     1       0.557  -5.081  -2.779  0.00  0.00    +0.032 C 
ATOM      3  C   UNL     1       0.759  -5.718  -4.157  0.00  0.00    +0.109 C 
ATOM      4  N   UNL     1       1.186  -7.112  -3.977  0.00  0.00    -0.297 N 
ATOM      5  C   UNL     1       0.370  -7.997  -3.135  0.00  0.00    +0.109 C 
ATOM      6  C   UNL     1       0.173  -7.335  -1.768  0.00  0.00    +0.032 C 
ATOM      7  C   UNL     1       2.306  -7.569  -4.571  0.00  0.00    +0.247 C 
ATOM      8  O   UNL     1       2.935  -6.847  -5.320  0.00  0.00    -0.270 OA
ENDROOT
BRANCH   7   9
ATOM      9  C   UNL     1       2.769  -8.949  -4.313  0.00  0.00    +0.037 A 
ATOM     10  C   UNL     1       1.885 -10.021  -4.448  0.00  0.00    +0.014 A 
ATOM     11  C   UNL     1       2.323 -11.306  -4.206  0.00  0.00    +0.021 A 
ATOM     12  C   UNL     1       3.636 -11.534  -3.830  0.00  0.00    +0.041 A 
ATOM     13  C   UNL     1       4.517 -10.474  -3.694  0.00  0.00    +0.021 A 
ATOM     14  C   UNL     1       4.093  -9.185  -3.939  0.00  0.00    +0.014 A 
ATOM     15 CL   UNL     1       4.180 -13.155  -3.526  0.00  0.00    -0.084 Cl
ENDBRANCH   7   9
BRANCH   1  17
ATOM     16  N   UNL     1      -1.158  -4.051  -0.544  0.00  0.00    -0.312 N 
ATOM     17  C   UNL     1      -0.642  -5.294  -0.619  0.00  0.00    +0.216 C 
ATOM     18  O   UNL     1      -0.361  -5.897   0.396  0.00  0.00    -0.276 OA
ATOM     19  H   UNL     1      -1.383  -3.570  -1.355  0.00  0.00    +0.149 HD
BRANCH  16  20
ATOM     20  C   UNL     1      -1.379  -3.428   0.763  0.00  0.00    +0.070 C 
ATOM     21  C   UNL     1      -2.737  -3.866   1.315  0.00  0.00    +0.028 C 
BRANCH  20  22
ATOM     22  C   UNL     1      -1.356  -1.905   0.612  0.00  0.00    +0.022 C 
BRANCH  22  23
ATOM     23  C   UNL     1       0.041  -1.456   0.180  0.00  0.00    +0.002 C 
BRANCH  23  24
ATOM     24  C   UNL     1       0.063   0.066   0.029  0.00  0.00    -0.000 C 
BRANCH  24  26
ATOM     25  C   UNL     1       1.483   2.038  -0.554  0.00  0.00    +0.004 C 
ATOM     26  C   UNL     1       1.460   0.516  -0.403  0.00  0.00    -0.003 C 
ENDBRANCH  24  26
ENDBRANCH  23  24
ENDBRANCH  22  23
ENDBRANCH  20  22
ENDBRANCH  16  20
ENDBRANCH   1  17
TORSDOF 7
