REMARK  Name = ZINC35546552
REMARK  9 active torsions:
REMARK  status: ('A' for Active; 'I' for Inactive)
REMARK    1  A    between atoms: C_1  and  C_2
REMARK    2  A    between atoms: N_6  and  C_21
REMARK    3  A    between atoms: C_10  and  N_15
REMARK    4  A    between atoms: C_16  and  C_18
REMARK    5  A    between atoms: C_18  and  C_19
REMARK    6  A    between atoms: C_18  and  C_20
REMARK    7  A    between atoms: C_21  and  C_22
REMARK    8  A    between atoms: C_22  and  C_23
REMARK    9  A    between atoms: C_22  and  C_24
REMARK                            x       y       z     vdW  Elec       q    Type
REMARK                         _______ _______ _______ _____ _____    ______ ____
ROOT
ATOM      1  C   UNL     1       0.090   1.465  -0.206  0.00  0.00    +0.062 C 
ATOM      2  C   UNL     1       0.025  -0.053  -0.032  0.00  0.00    +0.256 C 
ATOM      3  C   UNL     1       0.703  -0.713  -1.193  0.00  0.00    +0.256 C 
ATOM      4  O   UNL     1      -0.069  -1.193  -1.996  0.00  0.00    -0.272 OA
ATOM      5  N   UNL     1       1.924  -0.871  -1.506  0.00  0.00    -0.294 N 
ATOM      6  C   UNL     1       3.141  -0.703  -0.784  0.00  0.00    +0.146 C 
ATOM      7  C   UNL     1       3.081  -0.317   0.662  0.00  0.00    +0.013 A 
ATOM      8  C   UNL     1       4.351  -0.120   1.228  0.00  0.00    +0.032 A 
ATOM      9  C   UNL     1       4.500   0.293   2.535  0.00  0.00    +0.034 A 
ATOM     10  C   UNL     1       3.362   0.525   3.298  0.00  0.00    +0.027 A 
ATOM     11  C   UNL     1       2.128   0.311   2.744  0.00  0.00    +0.048 A 
ATOM     12  C   UNL     1       1.976  -0.148   1.412  0.00  0.00    +0.126 A 
ATOM     13  O   UNL     1       0.656  -0.411   1.181  0.00  0.00    -0.480 OA
ENDROOT
BRANCH   9  14
ATOM     14  N   UNL     1       5.776   0.474   3.085  0.00  0.00    -0.285 N 
ATOM     15  C   UNL     1       5.987   0.231   4.394  0.00  0.00    +0.220 C 
ATOM     16  O   UNL     1       5.098  -0.236   5.075  0.00  0.00    -0.275 OA
ATOM     17  H   UNL     1       6.508   0.775   2.524  0.00  0.00    +0.155 HD
BRANCH  15  18
ATOM     18  C   UNL     1       7.327   0.538   5.011  0.00  0.00    +0.069 C 
ATOM     19  C   UNL     1       7.628   2.031   4.860  0.00  0.00    +0.017 C 
ATOM     20  C   UNL     1       7.301   0.171   6.496  0.00  0.00    +0.017 C 
ENDBRANCH  15  18
ENDBRANCH   9  14
BRANCH   5  21
ATOM     21  C   UNL     1       2.121  -1.316  -2.887  0.00  0.00    +0.111 C 
BRANCH  21  22
ATOM     22  C   UNL     1       2.256  -0.097  -3.801  0.00  0.00    +0.000 C 
ATOM     23  C   UNL     1       2.586  -0.558  -5.222  0.00  0.00    +0.009 C 
ATOM     24  C   UNL     1       0.939   0.682  -3.811  0.00  0.00    +0.009 C 
ENDBRANCH  21  22
ENDBRANCH   5  21
TORSDOF 4
