REMARK  Name = ZINC03355901
REMARK  14 active torsions:
REMARK  status: ('A' for Active; 'I' for Inactive)
REMARK    1  A    between atoms: C_1  and  C_2
REMARK    2  A    between atoms: C_2  and  C_3
REMARK    3  A    between atoms: C_2  and  C_4
REMARK    4  A    between atoms: C_2  and  C_10
REMARK    5  A    between atoms: C_13  and  O_16
REMARK    6  A    between atoms: O_16  and  C_17
REMARK    7  A    between atoms: C_17  and  C_18
REMARK    8  A    between atoms: C_18  and  C_20
REMARK    9  A    between atoms: C_18  and  O_31
REMARK   10  A    between atoms: C_20  and  N_60
REMARK   11  A    between atoms: C_21  and  C_22
REMARK   12  A    between atoms: C_21  and  N_60
REMARK   13  A    between atoms: C_22  and  S_23
REMARK   14  A    between atoms: S_23  and  C_24
REMARK                            x       y       z     vdW  Elec       q    Type
REMARK                         _______ _______ _______ _____ _____    ______ ____
ROOT
ATOM      1  C   UNL     1       5.996   6.409  -0.209  0.00  0.00    +0.258 C 
ENDROOT
BRANCH   1   2
ATOM      2  O   UNL     1       6.442   5.053  -0.269  0.00  0.00    -0.489 OA
BRANCH   2   6
ATOM      3  C   UNL     1       3.547   2.119  -0.084  0.00  0.00    -0.037 A 
ATOM      4  C   UNL     1       3.183   3.452  -0.037  0.00  0.00    +0.008 A 
ATOM      5  C   UNL     1       4.151   4.436  -0.093  0.00  0.00    +0.046 A 
ATOM      6  C   UNL     1       5.489   4.086  -0.208  0.00  0.00    +0.121 A 
ATOM      7  C   UNL     1       5.851   2.748  -0.261  0.00  0.00    +0.046 A 
ATOM      8  C   UNL     1       4.880   1.768  -0.199  0.00  0.00    +0.008 A 
BRANCH   3  10
ATOM      9  C   UNL     1       3.133  -0.319  -0.260  0.00  0.00    +0.021 C 
ATOM     10  C   UNL     1       2.490   1.048  -0.016  0.00  0.00    +0.015 C 
ATOM     11  C   UNL     1       1.428   1.310  -1.086  0.00  0.00    +0.021 C 
BRANCH  10  12
ATOM     12  C   UNL     1       1.845   1.063   1.346  0.00  0.00    -0.037 A 
ATOM     13  C   UNL     1       0.758   0.250   1.606  0.00  0.00    +0.004 A 
ATOM     14  C   UNL     1       0.164   0.269   2.853  0.00  0.00    +0.000 A 
ATOM     15  C   UNL     1       0.662   1.093   3.845  0.00  0.00    +0.000 A 
ATOM     16  C   UNL     1       1.749   1.907   3.585  0.00  0.00    +0.000 A 
ATOM     17  C   UNL     1       2.341   1.892   2.336  0.00  0.00    +0.004 A 
ENDBRANCH  10  12
ENDBRANCH   3  10
ENDBRANCH   2   6
ENDBRANCH   1   2
BRANCH   1  18
ATOM     18  C   UNL     1       7.202   7.347  -0.291  0.00  0.00    +0.135 C 
BRANCH  18  19
ATOM     19  O   UNL     1       8.024   7.168   0.864  0.00  0.00    -0.390 OA
ATOM     20  H   UNL     1       7.574   7.354   1.700  0.00  0.00    +0.210 HD
ENDBRANCH  18  19
BRANCH  18  21
ATOM     21  C   UNL     1       6.718   8.797  -0.352  0.00  0.00    -0.047 C 
BRANCH  21  22
ATOM     22  N   UNL     1       7.878   9.686  -0.552  0.00  0.00    +0.381 N 
ATOM     23  H   UNL     1       8.347   9.438  -1.430  0.00  0.00    -0.086 HD
ATOM     24  H   UNL     1       8.532   9.570   0.231  0.00  0.00    -0.086 HD
BRANCH  22  25
ATOM     25  C   UNL     1       7.439  11.093  -0.615  0.00  0.00    -0.071 C 
BRANCH  25  26
ATOM     26  C   UNL     1       8.662  11.990  -0.822  0.00  0.00    +0.055 C 
BRANCH  26  27
ATOM     27  S   UNL     1       8.133  13.723  -0.901  0.00  0.00    -0.127 S 
BRANCH  27  28
ATOM     28  C   UNL     1       9.633  14.616  -1.139  0.00  0.00    +0.008 A 
ATOM     29  C   UNL     1      10.843  13.937  -1.214  0.00  0.00    +0.016 A 
ATOM     30  C   UNL     1      12.017  14.639  -1.405  0.00  0.00    +0.016 A 
ATOM     31  C   UNL     1      11.990  16.018  -1.511  0.00  0.00    +0.018 A 
ATOM     32  C   UNL     1      10.787  16.698  -1.432  0.00  0.00    +0.016 A 
ATOM     33  C   UNL     1       9.610  16.001  -1.246  0.00  0.00    +0.016 A 
ATOM     34 BR   UNL     1      13.600  16.977  -1.766  0.00  0.00    -0.050 Br
ENDBRANCH  27  28
ENDBRANCH  26  27
ENDBRANCH  25  26
ENDBRANCH  22  25
ENDBRANCH  21  22
ENDBRANCH  18  21
ENDBRANCH   1  18
TORSDOF 12
