REMARK  Name = ZINC07456400
REMARK  8 active torsions:
REMARK  status: ('A' for Active; 'I' for Inactive)
REMARK    1  A    between atoms: C_4  and  S_8
REMARK    2  A    between atoms: C_5  and  N_7
REMARK    3  A    between atoms: S_8  and  C_9
REMARK    4  A    between atoms: C_9  and  C_10
REMARK    5  A    between atoms: N_12  and  C_13
REMARK    6  A    between atoms: C_14  and  C_28
REMARK    7  A    between atoms: C_15  and  C_23
REMARK    8  A    between atoms: C_16  and  C_18
REMARK                            x       y       z     vdW  Elec       q    Type
REMARK                         _______ _______ _______ _____ _____    ______ ____
ROOT
ATOM      1  C   UNL     1       7.730  -0.628  -0.074  0.00  0.00    +0.211 A 
ATOM      2  C   UNL     1       8.937  -1.306  -0.083  0.00  0.00    +0.124 A 
ATOM      3  C   UNL     1       9.980  -0.261  -0.092  0.00  0.00    +0.085 A 
ATOM      4  C   UNL     1       9.297   0.943  -0.078  0.00  0.00    +0.184 A 
ATOM      5  O   UNL     1       7.973   0.690  -0.068  0.00  0.00    -0.436 OA
ENDROOT
BRANCH   4   6
ATOM      6  C   UNL     1       9.912   2.274  -0.075  0.00  0.00    +0.170 A 
ATOM      7  C   UNL     1       9.245   3.466  -0.062  0.00  0.00    +0.053 A 
ATOM      8  C   UNL     1      10.224   4.478  -0.063  0.00  0.00    +0.042 A 
ATOM      9  C   UNL     1      11.426   3.866  -0.077  0.00  0.00    +0.196 A 
ATOM     10  O   UNL     1      11.234   2.536  -0.079  0.00  0.00    -0.460 OA
ENDBRANCH   4   6
BRANCH   3  11
ATOM     11  C   UNL     1      11.440  -0.458  -0.106  0.00  0.00    +0.140 A 
ATOM     12  C   UNL     1      12.179  -1.033   0.884  0.00  0.00    +0.050 A 
ATOM     13  C   UNL     1      13.520  -1.015   0.451  0.00  0.00    +0.042 A 
ATOM     14  C   UNL     1      13.535  -0.437  -0.766  0.00  0.00    +0.196 A 
ATOM     15  O   UNL     1      12.276  -0.107  -1.102  0.00  0.00    -0.463 OA
ENDBRANCH   3  11
BRANCH   1  18
ATOM     16  C   UNL     1       5.373  -0.443  -0.051  0.00  0.00    +0.230 C 
ATOM     17  O   UNL     1       5.477   0.765  -0.045  0.00  0.00    -0.274 OA
ATOM     18  N   UNL     1       6.479  -1.214  -0.065  0.00  0.00    -0.255 N 
ATOM     19  H   UNL     1       6.396  -2.181  -0.070  0.00  0.00    +0.158 HD
BRANCH  16  20
ATOM     20  C   UNL     1       4.009  -1.083  -0.042  0.00  0.00    +0.170 C 
BRANCH  20  21
ATOM     21  S   UNL     1       2.735   0.209  -0.022  0.00  0.00    -0.114 S 
BRANCH  21  25
ATOM     22  C   UNL     1      -1.167  -2.098   0.002  0.00  0.00    +0.002 A 
ATOM     23  C   UNL     1       0.039  -2.776  -0.013  0.00  0.00    +0.001 A 
ATOM     24  C   UNL     1       1.230  -2.075  -0.021  0.00  0.00    +0.016 A 
ATOM     25  C   UNL     1       1.218  -0.687  -0.013  0.00  0.00    +0.029 A 
ATOM     26  C   UNL     1       0.002  -0.004   0.002  0.00  0.00    +0.038 A 
ATOM     27  C   UNL     1      -1.188  -0.716   0.015  0.00  0.00    +0.024 A 
BRANCH  26  28
ATOM     28  N   UNL     1      -0.017   1.396   0.010  0.00  0.00    -0.357 N 
ATOM     29  H   UNL     1       0.816   1.892   0.004  0.00  0.00    +0.142 HD
ATOM     30  H   UNL     1      -0.863   1.869   0.016  0.00  0.00    +0.142 HD
ENDBRANCH  26  28
ENDBRANCH  21  25
ENDBRANCH  20  21
ENDBRANCH  16  20
ENDBRANCH   1  18
BRANCH   2  31
ATOM     31  C   UNL     1       9.133  -2.725  -0.087  0.00  0.00    +0.105 C 
ATOM     32  N   UNL     1       9.288  -3.850  -0.090  0.00  0.00    -0.191 NA
ENDBRANCH   2  31
TORSDOF 8
