REMARK  Name = ZINC19758240
REMARK  9 active torsions:
REMARK  status: ('A' for Active; 'I' for Inactive)
REMARK    1  A    between atoms: C_1  and  C_2
REMARK    2  A    between atoms: C_2  and  C_3
REMARK    3  A    between atoms: N_6  and  C_15
REMARK    4  A    between atoms: C_9  and  N_14
REMARK    5  A    between atoms: C_15  and  C_16
REMARK    6  A    between atoms: N_18  and  C_19
REMARK    7  A    between atoms: C_19  and  C_20
REMARK    8  A    between atoms: C_20  and  C_21
REMARK    9  A    between atoms: C_20  and  C_22
REMARK                            x       y       z     vdW  Elec       q    Type
REMARK                         _______ _______ _______ _____ _____    ______ ____
ROOT
ATOM      1  C   UNL     1       1.461   1.940   0.122  0.00  0.00    +0.190 C 
ATOM      2  C   UNL     1       0.007   1.450   0.138  0.00  0.00    +0.150 C 
ATOM      3  N   UNL     1       0.005  -0.012   0.004  0.00  0.00    -0.315 N 
ATOM      4  C   UNL     1       0.873  -0.625   0.913  0.00  0.00    +0.074 A 
ATOM      5  C   UNL     1       0.682  -1.972   1.208  0.00  0.00    +0.049 A 
ATOM      6  C   UNL     1       1.524  -2.615   2.101  0.00  0.00    +0.027 A 
ATOM      7  C   UNL     1       2.562  -1.916   2.704  0.00  0.00    +0.026 A 
ATOM      8  C   UNL     1       2.752  -0.579   2.414  0.00  0.00    +0.049 A 
ATOM      9  C   UNL     1       1.910   0.070   1.522  0.00  0.00    +0.142 A 
ATOM     10  O   UNL     1       2.123   1.392   1.267  0.00  0.00    -0.485 OA
ENDROOT
BRANCH   6  11
ATOM     11  N   UNL     1       1.330  -3.970   2.395  0.00  0.00    -0.358 N 
ATOM     12  H   UNL     1       1.998  -4.480   3.104  0.00  0.00    +0.142 HD
ATOM     13  H   UNL     1       0.508  -4.524   1.917  0.00  0.00    +0.142 HD
ENDBRANCH   6  11
BRANCH   1  15
ATOM     14  C   UNL     1       2.936   3.956   0.047  0.00  0.00    +0.007 C 
ATOM     15  C   UNL     1       1.492   3.469   0.188  0.00  0.00    +0.043 C 
ENDBRANCH   1  15
BRANCH   3  16
ATOM     16  C   UNL     1      -1.356  -0.550   0.129  0.00  0.00    +0.201 C 
BRANCH  16  17
ATOM     17  C   UNL     1      -1.826  -0.401   1.553  0.00  0.00    +0.230 C 
ATOM     18  O   UNL     1      -1.139   0.190   2.360  0.00  0.00    -0.274 OA
ATOM     19  N   UNL     1      -3.009  -0.924   1.931  0.00  0.00    -0.314 N 
ATOM     20  H   UNL     1      -3.632  -1.460   1.199  0.00  0.00    +0.149 HD
BRANCH  19  21
ATOM     21  C   UNL     1      -3.466  -0.779   3.315  0.00  0.00    +0.107 C 
BRANCH  21  22
ATOM     22  C   UNL     1      -4.828  -1.458   3.477  0.00  0.00    -0.000 C 
ATOM     23  C   UNL     1      -5.247  -1.416   4.947  0.00  0.00    +0.009 C 
ATOM     24  C   UNL     1      -5.867  -0.723   2.628  0.00  0.00    +0.009 C 
ENDBRANCH  21  22
ENDBRANCH  19  21
ENDBRANCH  16  17
ENDBRANCH   3  16
TORSDOF 6
