REMARK  Name = ZINC09008687
REMARK  6 active torsions:
REMARK  status: ('A' for Active; 'I' for Inactive)
REMARK    1  A    between atoms: C_1  and  C_2
REMARK    2  A    between atoms: C_5  and  C_7
REMARK    3  A    between atoms: C_9  and  C_13
REMARK    4  A    between atoms: N_15  and  N_16
REMARK    5  A    between atoms: C_17  and  C_18
REMARK    6  A    between atoms: C_22  and  N_24
REMARK                            x       y       z     vdW  Elec       q    Type
REMARK                         _______ _______ _______ _____ _____    ______ ____
ROOT
ATOM      1  C   UNL     1       3.535  -6.693  -0.046  0.00  0.00    +0.283 C 
ATOM      2  O   UNL     1       4.651  -6.210  -0.042  0.00  0.00    -0.267 OA
ATOM      3  N   UNL     1       3.380  -8.032  -0.056  0.00  0.00    -0.202 N 
ATOM      4  H   UNL     1       2.490  -8.417  -0.059  0.00  0.00    +0.178 HD
ENDROOT
BRANCH   1   7
ATOM      5  C   UNL     1       1.038  -4.030  -0.026  0.00  0.00    +0.073 A 
ATOM      6  C   UNL     1       2.357  -4.401  -0.028  0.00  0.00    +0.063 A 
ATOM      7  C   UNL     1       2.349  -5.812  -0.039  0.00  0.00    +0.149 A 
ATOM      8  N   UNL     1       1.089  -6.199  -0.042  0.00  0.00    -0.169 NA
ATOM      9  N   UNL     1       0.305  -5.181  -0.029  0.00  0.00    -0.276 N 
ATOM     10  H   UNL     1      -0.663  -5.225  -0.024  0.00  0.00    +0.189 HD
BRANCH   5  15
ATOM     11  C   UNL     1      -0.018   1.503   0.010  0.00  0.00    +0.051 C 
ATOM     12  C   UNL     1       0.002  -0.004   0.002  0.00  0.00    -0.013 A 
ATOM     13  C   UNL     1      -1.042  -0.872   0.002  0.00  0.00    +0.011 A 
ATOM     14  C   UNL     1      -0.790  -2.226  -0.007  0.00  0.00    +0.018 A 
ATOM     15  C   UNL     1       0.512  -2.653  -0.015  0.00  0.00    +0.037 A 
ATOM     16  S   UNL     1       1.406  -1.107  -0.018  0.00  0.00    -0.092 S 
ENDBRANCH   5  15
ENDBRANCH   1   7
BRANCH   3  17
ATOM     17  N   UNL     1       4.504  -8.867  -0.062  0.00  0.00    -0.187 NA
ATOM     18  C   UNL     1       4.355 -10.156  -0.072  0.00  0.00    +0.138 C 
BRANCH  18  19
ATOM     19  C   UNL     1       5.539 -11.036  -0.079  0.00  0.00    -0.003 A 
ATOM     20  C   UNL     1       6.823 -10.485  -0.069  0.00  0.00    +0.009 A 
ATOM     21  C   UNL     1       7.925 -11.313  -0.075  0.00  0.00    +0.003 A 
ATOM     22  C   UNL     1       7.762 -12.687  -0.091  0.00  0.00    +0.033 A 
ATOM     23  C   UNL     1       6.494 -13.240  -0.101  0.00  0.00    +0.127 A 
ATOM     24  C   UNL     1       5.382 -12.424  -0.089  0.00  0.00    +0.042 A 
BRANCH  23  25
ATOM     25  N   UNL     1       6.330 -14.711  -0.119  0.00  0.00    +0.056 N 
ATOM     26  O   UNL     1       7.303 -15.428  -0.126  0.00  0.00    -0.126 OA
ATOM     27  O   UNL     1       5.222 -15.195  -0.128  0.00  0.00    -0.126 OA
ENDBRANCH  23  25
ENDBRANCH  18  19
ENDBRANCH   3  17
TORSDOF 5
