REMARK  Name = ZINC09433693
REMARK  9 active torsions:
REMARK  status: ('A' for Active; 'I' for Inactive)
REMARK    1  A    between atoms: C_7  and  C_24
REMARK    2  A    between atoms: C_9  and  C_19
REMARK    3  A    between atoms: N_11  and  C_14
REMARK    4  A    between atoms: N_26  and  C_27
REMARK    5  A    between atoms: C_27  and  C_28
REMARK    6  A    between atoms: C_28  and  N_75
REMARK    7  A    between atoms: C_29  and  C_30
REMARK    8  A    between atoms: C_29  and  N_75
REMARK    9  A    between atoms: C_35  and  N_75
REMARK                            x       y       z     vdW  Elec       q    Type
REMARK                         _______ _______ _______ _____ _____    ______ ____
ROOT
ATOM      1  C   UNL     1       3.577   2.919  -0.707  0.00  0.00    +0.000 A 
ATOM      2  C   UNL     1       3.633   4.267  -0.399  0.00  0.00    +0.001 A 
ATOM      3  C   UNL     1       2.505   4.923   0.052  0.00  0.00    +0.013 A 
ATOM      4  C   UNL     1       1.311   4.220   0.196  0.00  0.00    +0.041 A 
ATOM      5  C   UNL     1       1.257   2.863  -0.126  0.00  0.00    -0.021 A 
ATOM      6  C   UNL     1       2.391   2.218  -0.571  0.00  0.00    +0.005 A 
ATOM      7  C   UNL     1      -0.044   2.118   0.016  0.00  0.00    +0.131 C 
ATOM      8  C   UNL     1      -0.850   2.685   1.181  0.00  0.00    +0.130 C 
ATOM      9  N   UNL     1      -0.959   4.139   1.084  0.00  0.00    -0.286 N 
ATOM     10  C   UNL     1       0.091   4.889   0.696  0.00  0.00    +0.248 C 
ATOM     11  O   UNL     1       0.036   6.101   0.756  0.00  0.00    -0.270 OA
ENDROOT
BRANCH   9  12
ATOM     12  C   UNL     1      -2.228   4.792   1.414  0.00  0.00    +0.077 C 
ATOM     13  C   UNL     1      -2.732   5.609   0.206  0.00  0.00    +0.022 C 
ATOM     14  C   UNL     1      -3.366   6.872   0.841  0.00  0.00    +0.002 C 
ATOM     15  C   UNL     1      -2.410   7.180   2.019  0.00  0.00    +0.002 C 
ATOM     16  C   UNL     1      -2.024   5.790   2.567  0.00  0.00    +0.022 C 
ENDBRANCH   9  12
BRANCH   8  17
ATOM     17  C   UNL     1      -0.168   2.325   2.476  0.00  0.00    +0.011 A 
ATOM     18  C   UNL     1      -0.467   1.335   3.352  0.00  0.00    +0.013 A 
ATOM     19  C   UNL     1       0.308   1.187   4.487  0.00  0.00    +0.008 A 
ATOM     20  C   UNL     1       1.337   2.044   4.696  0.00  0.00    +0.045 A 
ATOM     21  S   UNL     1       1.238   3.098   3.259  0.00  0.00    -0.100 S 
ENDBRANCH   8  17
BRANCH   7  22
ATOM     22  C   UNL     1      -0.842   2.260  -1.255  0.00  0.00    +0.223 C 
ATOM     23  O   UNL     1      -1.942   2.771  -1.227  0.00  0.00    -0.275 OA
ATOM     24  N   UNL     1      -0.333   1.820  -2.423  0.00  0.00    -0.317 N 
ATOM     25  H   UNL     1       0.546   1.411  -2.445  0.00  0.00    +0.149 HD
BRANCH  24  26
ATOM     26  C   UNL     1      -1.108   1.958  -3.658  0.00  0.00    +0.086 C 
BRANCH  26  27
ATOM     27  C   UNL     1      -0.309   1.383  -4.829  0.00  0.00    -0.059 C 
BRANCH  27  28
ATOM     28  N   UNL     1      -1.022   1.681  -6.089  0.00  0.00    +0.387 N 
ATOM     29  H   UNL     1      -1.141   2.698  -6.172  0.00  0.00    -0.081 HD
BRANCH  28  30
ATOM     30  C   UNL     1      -2.354   1.041  -6.079  0.00  0.00    -0.068 C 
ATOM     31  C   UNL     1      -3.316   1.883  -5.216  0.00  0.00    -0.015 C 
ATOM     32  C   UNL     1      -4.212   0.834  -4.512  0.00  0.00    -0.002 C 
ATOM     33  C   UNL     1      -3.217  -0.311  -4.200  0.00  0.00    -0.002 C 
ATOM     34  C   UNL     1      -2.291  -0.354  -5.433  0.00  0.00    -0.015 C 
ENDBRANCH  28  30
BRANCH  28  35
ATOM     35  C   UNL     1      -0.236   1.194  -7.242  0.00  0.00    -0.003 C 
BRANCH  35  36
ATOM     36  C   UNL     1      -0.782   1.821  -8.499  0.00  0.00    +0.089 A 
ATOM     37  C   UNL     1      -0.336   2.953  -9.072  0.00  0.00    +0.042 A 
ATOM     38  C   UNL     1      -1.127   3.168 -10.224  0.00  0.00    +0.041 A 
ATOM     39  C   UNL     1      -2.014   2.159 -10.282  0.00  0.00    +0.195 A 
ATOM     40  O   UNL     1      -1.801   1.346  -9.234  0.00  0.00    -0.470 OA
ENDBRANCH  35  36
ENDBRANCH  28  35
ENDBRANCH  27  28
ENDBRANCH  26  27
ENDBRANCH  24  26
ENDBRANCH   7  22
TORSDOF 9
