REMARK  Name = ZINC66976012
REMARK  7 active torsions:
REMARK  status: ('A' for Active; 'I' for Inactive)
REMARK    1  A    between atoms: C_5  and  C_7
REMARK    2  A    between atoms: C_7  and  C_8
REMARK    3  A    between atoms: N_10  and  N_11
REMARK    4  A    between atoms: N_14  and  C_15
REMARK    5  A    between atoms: C_15  and  C_16
REMARK    6  A    between atoms: C_16  and  C_18
REMARK    7  A    between atoms: C_16  and  N_23
REMARK                            x       y       z     vdW  Elec       q    Type
REMARK                         _______ _______ _______ _____ _____    ______ ____
ROOT
ATOM      1  N   UNL     1       4.585  -8.466   4.623  0.00  0.00    -0.218 N 
ATOM      2  C   UNL     1       3.364  -8.138   4.156  0.00  0.00    +0.316 C 
ATOM      3  O   UNL     1       2.631  -7.426   4.815  0.00  0.00    -0.251 OA
ATOM      4  N   UNL     1       2.954  -8.601   2.958  0.00  0.00    -0.299 N 
ATOM      5  H   UNL     1       4.880  -8.133   5.485  0.00  0.00    +0.174 HD
ATOM      6  H   UNL     1       3.538  -9.169   2.432  0.00  0.00    +0.150 HD
ENDROOT
BRANCH   1   9
ATOM      7  C   UNL     1       6.650  -9.614   4.330  0.00  0.00    +0.234 C 
ATOM      8  O   UNL     1       7.018  -9.197   5.408  0.00  0.00    -0.274 OA
ATOM      9  N   UNL     1       5.429  -9.286   3.863  0.00  0.00    -0.233 N 
ATOM     10  H   UNL     1       5.134  -9.619   3.001  0.00  0.00    +0.173 HD
BRANCH   7  11
ATOM     11  C   UNL     1       7.558 -10.496   3.513  0.00  0.00    +0.135 C 
BRANCH  11  16
ATOM     12  C   UNL     1      11.131 -10.096   4.665  0.00  0.00    +0.000 A 
ATOM     13  C   UNL     1      11.230 -11.098   5.613  0.00  0.00    +0.003 A 
ATOM     14  C   UNL     1      10.142 -11.905   5.883  0.00  0.00    +0.038 A 
ATOM     15  C   UNL     1       8.951 -11.711   5.203  0.00  0.00    +0.127 A 
ATOM     16  C   UNL     1       8.853 -10.708   4.254  0.00  0.00    -0.003 A 
ATOM     17  C   UNL     1       9.943  -9.902   3.986  0.00  0.00    +0.007 A 
ATOM     18  F   UNL     1       7.887 -12.501   5.466  0.00  0.00    -0.205 F 
ENDBRANCH  11  16
ENDBRANCH   7  11
ENDBRANCH   1   9
BRANCH   4  19
ATOM     19  C   UNL     1       1.627  -8.245   2.450  0.00  0.00    +0.098 C 
BRANCH  19  20
ATOM     20  C   UNL     1       1.463  -8.785   1.028  0.00  0.00    +0.016 C 
BRANCH  20  21
ATOM     21  N   UNL     1       2.572  -8.306   0.192  0.00  0.00    +0.387 N 
ATOM     22  C   UNL     1       2.557  -6.838   0.156  0.00  0.00    -0.078 C 
ATOM     23  C   UNL     1       3.757  -6.331  -0.647  0.00  0.00    -0.019 C 
ATOM     24  C   UNL     1       3.677  -6.879  -2.075  0.00  0.00    -0.004 C 
ATOM     25  C   UNL     1       3.618  -8.408  -2.022  0.00  0.00    -0.019 C 
ATOM     26  C   UNL     1       2.423  -8.838  -1.168  0.00  0.00    -0.078 C 
ATOM     27  H   UNL     1       3.447  -8.621   0.582  0.00  0.00    -0.081 HD
ENDBRANCH  20  21
BRANCH  20  28
ATOM     28  C   UNL     1       1.472 -10.292   1.058  0.00  0.00    +0.093 A 
ATOM     29  C   UNL     1       0.388 -11.086   1.005  0.00  0.00    +0.043 A 
ATOM     30  C   UNL     1       0.854 -12.420   1.061  0.00  0.00    +0.041 A 
ATOM     31  C   UNL     1       2.196 -12.361   1.145  0.00  0.00    +0.195 A 
ATOM     32  O   UNL     1       2.565 -11.069   1.138  0.00  0.00    -0.469 OA
ENDBRANCH  20  28
ENDBRANCH  19  20
ENDBRANCH   4  19
TORSDOF 7
