REMARK  Name = ZINC14889008
REMARK  6 active torsions:
REMARK  status: ('A' for Active; 'I' for Inactive)
REMARK    1  A    between atoms: C_4  and  C_7
REMARK    2  A    between atoms: C_14  and  C_15
REMARK    3  A    between atoms: C_14  and  N_63
REMARK    4  A    between atoms: C_18  and  C_23
REMARK    5  A    between atoms: N_25  and  C_26
REMARK    6  A    between atoms: C_26  and  C_27
REMARK                            x       y       z     vdW  Elec       q    Type
REMARK                         _______ _______ _______ _____ _____    ______ ____
ROOT
ATOM      1  C   UNL     1      -8.208   4.276  -5.540  0.00  0.00    +0.003 A 
ATOM      2  C   UNL     1      -9.084   4.477  -4.522  0.00  0.00    +0.020 A 
ATOM      3  C   UNL     1      -8.685   4.267  -3.203  0.00  0.00    +0.020 A 
ATOM      4  C   UNL     1      -7.377   3.859  -2.951  0.00  0.00    +0.101 A 
ATOM      5  C   UNL     1      -6.498   3.662  -4.047  0.00  0.00    +0.261 A 
ATOM      6  O   UNL     1      -5.350   3.301  -3.853  0.00  0.00    -0.267 OA
ATOM      7  N   UNL     1      -6.937   3.874  -5.302  0.00  0.00    -0.327 N 
ATOM      8  H   UNL     1      -6.332   3.738  -6.049  0.00  0.00    +0.169 HD
ENDROOT
BRANCH   4   9
ATOM      9  C   UNL     1      -6.916   3.632  -1.572  0.00  0.00    +0.250 C 
ATOM     10  O   UNL     1      -7.706   3.695  -0.649  0.00  0.00    -0.270 OA
ATOM     11  N   UNL     1      -5.619   3.354  -1.332  0.00  0.00    -0.307 N 
ATOM     12  H   UNL     1      -5.005   3.231  -2.073  0.00  0.00    +0.149 HD
BRANCH  11  13
ATOM     13  C   UNL     1      -5.138   3.237   0.046  0.00  0.00    +0.147 C 
BRANCH  13  14
ATOM     14  C   UNL     1      -3.664   2.924   0.039  0.00  0.00    +0.008 A 
ATOM     15  C   UNL     1      -2.634   3.782   0.059  0.00  0.00    +0.021 A 
ATOM     16  C   UNL     1      -1.274   3.263   0.044  0.00  0.00    -0.011 A 
ATOM     17  C   UNL     1      -0.052   3.977   0.042  0.00  0.00    +0.009 A 
ATOM     18  C   UNL     1       1.137   3.320   0.027  0.00  0.00    +0.001 A 
ATOM     19  C   UNL     1       1.200   1.933   0.012  0.00  0.00    +0.001 A 
ATOM     20  C   UNL     1       0.031   1.199   0.012  0.00  0.00    +0.015 A 
ATOM     21  C   UNL     1      -1.182   1.854   0.022  0.00  0.00    +0.020 A 
ATOM     22  S   UNL     1      -2.876   1.326   0.020  0.00  0.00    -0.092 S 
ENDBRANCH  13  14
ENDBRANCH  11  13
ENDBRANCH   4   9
BRANCH   1  23
ATOM     23  C   UNL     1      -8.659   4.503  -6.960  0.00  0.00    -0.025 C 
BRANCH  23  30
ATOM     24  C   UNL     1      -7.237   8.075  -8.804  0.00  0.00    +0.017 C 
ATOM     25  C   UNL     1      -5.862   7.564  -8.468  0.00  0.00    +0.006 C 
ATOM     26  C   UNL     1      -5.815   6.043  -8.735  0.00  0.00    -0.018 C 
ATOM     27  C   UNL     1      -6.476   5.292  -7.673  0.00  0.00    -0.078 C 
ATOM     28  C   UNL     1      -8.052   6.813  -6.731  0.00  0.00    -0.078 C 
ATOM     29  C   UNL     1      -8.191   8.083  -7.592  0.00  0.00    -0.011 C 
ATOM     30  N   UNL     1      -7.912   5.634  -7.556  0.00  0.00    +0.383 N 
ATOM     31  H   UNL     1      -8.291   5.829  -8.490  0.00  0.00    -0.081 HD
BRANCH  24  35
ATOM     32  C   UNL     1      -6.894  12.059 -10.308  0.00  0.00    +0.000 A 
ATOM     33  C   UNL     1      -7.445  11.067 -11.098  0.00  0.00    +0.000 A 
ATOM     34  C   UNL     1      -7.556   9.778 -10.611  0.00  0.00    +0.004 A 
ATOM     35  C   UNL     1      -7.115   9.480  -9.335  0.00  0.00    -0.044 A 
ATOM     36  C   UNL     1      -6.569  10.473  -8.544  0.00  0.00    +0.004 A 
ATOM     37  C   UNL     1      -6.454  11.761  -9.032  0.00  0.00    +0.000 A 
ENDBRANCH  24  35
ENDBRANCH  23  30
ENDBRANCH   1  23
TORSDOF 6
