REMARK  Name = ZINC62935713
REMARK  6 active torsions:
REMARK  status: ('A' for Active; 'I' for Inactive)
REMARK    1  A    between atoms: C_1  and  C_2
REMARK    2  A    between atoms: C_2  and  C_3
REMARK    3  A    between atoms: C_3  and  C_4
REMARK    4  A    between atoms: C_4  and  C_19
REMARK    5  A    between atoms: N_11  and  C_12
REMARK    6  A    between atoms: C_12  and  C_13
REMARK                            x       y       z     vdW  Elec       q    Type
REMARK                         _______ _______ _______ _____ _____    ______ ____
ROOT
ATOM      1  C   UNL     1       0.763  -2.041   1.233  0.00  0.00    +0.089 C 
ATOM      2  C   UNL     1       1.442  -2.576   2.515  0.00  0.00    +0.039 C 
ATOM      3  C   UNL     1       0.238  -2.890   3.437  0.00  0.00    +0.110 C 
ATOM      4  N   UNL     1      -0.779  -3.419   2.499  0.00  0.00    -0.285 N 
ATOM      5  C   UNL     1      -0.673  -2.595   1.280  0.00  0.00    +0.127 C 
ATOM      6  C   UNL     1      -1.628  -4.444   2.715  0.00  0.00    +0.302 C 
ATOM      7  O   UNL     1      -2.416  -4.773   1.850  0.00  0.00    -0.253 OA
ATOM      8  N   UNL     1      -1.603  -5.104   3.890  0.00  0.00    -0.299 N 
ATOM      9  H   UNL     1      -0.974  -4.841   4.580  0.00  0.00    +0.150 HD
ENDROOT
BRANCH   1  10
ATOM     10  C   UNL     1       1.479  -2.547   0.008  0.00  0.00    +0.364 C 
ATOM     11  O   UNL     1       1.951  -1.757  -0.792  0.00  0.00    -0.246 OA
ATOM     12  O   UNL     1       1.588  -3.746  -0.183  0.00  0.00    -0.246 OA
ENDBRANCH   1  10
BRANCH   1  13
ATOM     13  C   UNL     1       0.742  -0.511   1.242  0.00  0.00    +0.019 C 
BRANCH  13  15
ATOM     14  C   UNL     1      -0.019   1.526   0.010  0.00  0.00    +0.004 C 
ATOM     15  C   UNL     1       0.002  -0.004   0.002  0.00  0.00    -0.002 C 
ENDBRANCH  13  15
ENDBRANCH   1  13
BRANCH   8  16
ATOM     16  C   UNL     1      -2.525  -6.218   4.125  0.00  0.00    +0.111 C 
BRANCH  16  17
ATOM     17  C   UNL     1      -2.290  -6.788   5.525  0.00  0.00    +0.034 C 
ATOM     18  C   UNL     1      -3.199  -8.017   5.768  0.00  0.00    +0.035 C 
ATOM     19  C   UNL     1      -3.649  -7.803   7.236  0.00  0.00    +0.160 C 
ATOM     20  O   UNL     1      -3.813  -6.372   7.332  0.00  0.00    -0.379 OA
ATOM     21  C   UNL     1      -2.726  -5.773   6.600  0.00  0.00    +0.165 C 
ENDBRANCH  16  17
ENDBRANCH   8  16
TORSDOF 5
