REMARK  Name = ZINC39929059
REMARK  11 active torsions:
REMARK  status: ('A' for Active; 'I' for Inactive)
REMARK    1  A    between atoms: C_1  and  C_2
REMARK    2  A    between atoms: C_2  and  C_3
REMARK    3  A    between atoms: C_3  and  C_4
REMARK    4  A    between atoms: C_4  and  N_5
REMARK    5  A    between atoms: N_5  and  C_6
REMARK    6  A    between atoms: C_6  and  C_7
REMARK    7  A    between atoms: C_13  and  O_19
REMARK    8  A    between atoms: O_19  and  C_20
REMARK    9  A    between atoms: C_21  and  C_23
REMARK   10  A    between atoms: C_28  and  O_29
REMARK   11  A    between atoms: O_29  and  C_30
REMARK                            x       y       z     vdW  Elec       q    Type
REMARK                         _______ _______ _______ _____ _____    ______ ____
ROOT
ATOM      1  N   UNL     1      -2.819  -2.506   0.020  0.00  0.00    -0.296 N 
ATOM      2  C   UNL     1      -3.373  -2.905   1.181  0.00  0.00    +0.250 C 
ATOM      3  O   UNL     1      -4.450  -3.470   1.179  0.00  0.00    -0.270 OA
ENDROOT
BRANCH   2   4
ATOM      4  C   UNL     1      -2.672  -2.659   2.456  0.00  0.00    +0.078 A 
ATOM      5  C   UNL     1      -1.391  -3.174   2.665  0.00  0.00    +0.017 A 
ATOM      6  C   UNL     1      -0.742  -2.939   3.858  0.00  0.00    +0.001 A 
ATOM      7  C   UNL     1      -1.355  -2.195   4.852  0.00  0.00    +0.004 A 
ATOM      8  C   UNL     1      -2.621  -1.679   4.659  0.00  0.00    +0.046 A 
ATOM      9  C   UNL     1      -3.287  -1.901   3.463  0.00  0.00    +0.132 A 
BRANCH   9  10
ATOM     10  O   UNL     1      -4.529  -1.391   3.270  0.00  0.00    -0.494 OA
ATOM     11  C   UNL     1      -5.091  -0.630   4.340  0.00  0.00    +0.277 C 
ENDBRANCH   9  10
ENDBRANCH   2   4
BRANCH   1  12
ATOM     12  C   UNL     1      -1.492  -1.884   0.017  0.00  0.00    +0.108 C 
BRANCH  12  13
ATOM     13  C   UNL     1      -1.642  -0.362   0.069  0.00  0.00    +0.019 C 
BRANCH  13  15
ATOM     14  C   UNL     1      -0.406   1.809   0.117  0.00  0.00    +0.004 C 
ATOM     15  C   UNL     1      -0.257   0.287   0.065  0.00  0.00    -0.002 C 
ENDBRANCH  13  15
ENDBRANCH  12  13
ENDBRANCH   1  12
BRANCH   1  16
ATOM     16  C   UNL     1      -3.543  -2.692  -1.240  0.00  0.00    +0.125 C 
BRANCH  16  17
ATOM     17  C   UNL     1      -3.187  -4.056  -1.835  0.00  0.00    +0.116 C 
ATOM     18  C   UNL     1      -3.775  -4.122  -3.231  0.00  0.00    -0.003 C 
ATOM     19  C   UNL     1      -4.646  -5.133  -3.495  0.00  0.00    -0.007 A 
ATOM     20  C   UNL     1      -5.258  -5.266  -4.820  0.00  0.00    +0.013 A 
ATOM     21  C   UNL     1      -6.120  -6.285  -5.047  0.00  0.00    +0.046 A 
ATOM     22  C   UNL     1      -6.436  -7.210  -4.041  0.00  0.00    +0.122 A 
ATOM     23  C   UNL     1      -5.893  -7.137  -2.777  0.00  0.00    +0.069 A 
ATOM     24  C   UNL     1      -4.991  -6.115  -2.451  0.00  0.00    +0.044 A 
ATOM     25  N   UNL     1      -4.472  -6.053  -1.223  0.00  0.00    -0.284 N 
ATOM     26  C   UNL     1      -3.616  -5.119  -0.849  0.00  0.00    +0.226 C 
ATOM     27  O   UNL     1      -3.175  -5.114   0.285  0.00  0.00    -0.275 OA
ATOM     28  H   UNL     1      -4.734  -6.726  -0.575  0.00  0.00    +0.155 HD
BRANCH  22  29
ATOM     29  O   UNL     1      -7.305  -8.210  -4.322  0.00  0.00    -0.495 OA
ATOM     30  C   UNL     1      -7.844  -8.249  -5.645  0.00  0.00    +0.277 C 
ENDBRANCH  22  29
ENDBRANCH  16  17
ENDBRANCH   1  16
TORSDOF 8
