REMARK  Name = ZINC43263721
REMARK  5 active torsions:
REMARK  status: ('A' for Active; 'I' for Inactive)
REMARK    1  A    between atoms: C_6  and  O_7
REMARK    2  A    between atoms: O_7  and  C_8
REMARK    3  A    between atoms: C_8  and  C_10
REMARK    4  A    between atoms: C_8  and  C_12
REMARK    5  A    between atoms: C_10  and  N_11
REMARK                            x       y       z     vdW  Elec       q    Type
REMARK                         _______ _______ _______ _____ _____    ______ ____
ROOT
ATOM      1  O   UNL     1      -1.166  -0.700   0.010  0.00  0.00    -0.486 OA
ENDROOT
BRANCH   1   7
ATOM      2  C   UNL     1      -0.043   1.384  -0.228  0.00  0.00    +0.047 A 
ATOM      3  C   UNL     1       1.131   2.096  -0.372  0.00  0.00    +0.027 A 
ATOM      4  C   UNL     1       2.347   1.426  -0.420  0.00  0.00    +0.037 A 
ATOM      5  C   UNL     1       2.380   0.041  -0.323  0.00  0.00    -0.022 A 
ATOM      6  C   UNL     1       1.205  -0.669  -0.180  0.00  0.00    +0.051 A 
ATOM      7  C   UNL     1      -0.009   0.000  -0.132  0.00  0.00    +0.122 A 
ATOM      8  C   UNL     1       3.700  -0.682  -0.374  0.00  0.00    +0.046 C 
ATOM      9  C   UNL     1       4.654   0.059  -1.312  0.00  0.00    +0.101 C 
ATOM     10  C   UNL     1       4.661   1.527  -0.979  0.00  0.00    +0.218 C 
ATOM     11  O   UNL     1       5.690   2.160  -1.086  0.00  0.00    -0.275 OA
ATOM     12  N   UNL     1       3.540   2.145  -0.565  0.00  0.00    -0.285 N 
ATOM     13  H   UNL     1       3.558   3.094  -0.366  0.00  0.00    +0.155 HD
ENDBRANCH   1   7
BRANCH   1  14
ATOM     14  C   UNL     1      -2.371   0.058   0.137  0.00  0.00    +0.193 C 
BRANCH  14  15
ATOM     15  C   UNL     1      -3.516  -0.715  -0.467  0.00  0.00    +0.029 A 
ATOM     16  C   UNL     1      -4.546  -0.263  -1.222  0.00  0.00    +0.016 A 
ATOM     17  C   UNL     1      -5.494  -1.164  -1.672  0.00  0.00    +0.023 A 
ATOM     18  C   UNL     1      -5.363  -2.473  -1.345  0.00  0.00    +0.055 A 
ATOM     19  S   UNL     1      -3.862  -2.464  -0.378  0.00  0.00    -0.083 S 
ATOM     20 BR   UNL     1      -6.477  -3.932  -1.800  0.00  0.00    -0.043 Br
ENDBRANCH  14  15
BRANCH  14  21
ATOM     21  C   UNL     1      -2.656   0.319   1.617  0.00  0.00    -0.036 C 
BRANCH  21  22
ATOM     22  N   UNL     1      -1.600   1.173   2.176  0.00  0.00    +0.381 N 
ATOM     23  H   UNL     1      -0.708   0.711   2.081  0.00  0.00    -0.090 HD
ATOM     24  H   UNL     1      -1.578   2.050   1.677  0.00  0.00    -0.090 HD
ATOM     25  H   UNL     1      -1.787   1.345   3.152  0.00  0.00    -0.090 HD
ENDBRANCH  21  22
ENDBRANCH  14  21
ENDBRANCH   1  14
TORSDOF 5
