REMARK  Name = ZINC14369189
REMARK  10 active torsions:
REMARK  status: ('A' for Active; 'I' for Inactive)
REMARK    1  A    between atoms: C_1  and  C_2
REMARK    2  A    between atoms: C_2  and  C_3
REMARK    3  A    between atoms: C_3  and  C_5
REMARK    4  A    between atoms: C_3  and  C_6
REMARK    5  A    between atoms: C_11  and  O_12
REMARK    6  A    between atoms: O_12  and  C_13
REMARK    7  A    between atoms: C_13  and  C_14
REMARK    8  A    between atoms: N_16  and  C_17
REMARK    9  A    between atoms: C_20  and  S_23
REMARK   10  A    between atoms: S_23  and  N_26
REMARK                            x       y       z     vdW  Elec       q    Type
REMARK                         _______ _______ _______ _____ _____    ______ ____
ROOT
ATOM      1  C   UNL     1      -5.868  -1.288   0.144  0.00  0.00    +0.034 A 
ATOM      2  C   UNL     1      -5.610  -2.650   0.224  0.00  0.00    +0.025 A 
ATOM      3  C   UNL     1      -6.657  -3.545   0.325  0.00  0.00    +0.031 A 
ATOM      4  C   UNL     1      -7.962  -3.086   0.334  0.00  0.00    +0.113 A 
ATOM      5  C   UNL     1      -8.222  -1.731   0.248  0.00  0.00    +0.031 A 
ATOM      6  C   UNL     1      -7.179  -0.830   0.153  0.00  0.00    +0.025 A 
ENDROOT
BRANCH   1   9
ATOM      7  C   UNL     1      -4.901   0.829   0.640  0.00  0.00    +0.255 C 
ATOM      8  O   UNL     1      -5.933   1.159   1.185  0.00  0.00    -0.272 OA
ATOM      9  N   UNL     1      -4.809  -0.378   0.048  0.00  0.00    -0.283 N 
ATOM     10  H   UNL     1      -4.008  -0.617  -0.445  0.00  0.00    +0.155 HD
BRANCH   7  11
ATOM     11  C   UNL     1      -3.722   1.767   0.626  0.00  0.00    +0.324 C 
BRANCH  11  12
ATOM     12  O   UNL     1      -4.065   2.973   1.313  0.00  0.00    -0.482 OA
BRANCH  12  18
ATOM     13  C   UNL     1      -3.370   5.127   2.043  0.00  0.00    -0.003 A 
ATOM     14  C   UNL     1      -2.393   6.101   2.122  0.00  0.00    +0.007 A 
ATOM     15  C   UNL     1      -1.153   5.885   1.551  0.00  0.00    +0.001 A 
ATOM     16  C   UNL     1      -0.886   4.694   0.900  0.00  0.00    +0.004 A 
ATOM     17  C   UNL     1      -1.860   3.717   0.820  0.00  0.00    +0.046 A 
ATOM     18  C   UNL     1      -3.105   3.932   1.391  0.00  0.00    +0.125 A 
BRANCH  13  19
ATOM     19  C   UNL     1      -4.722   5.364   2.666  0.00  0.00    +0.019 C 
ATOM     20  C   UNL     1      -4.556   5.601   4.169  0.00  0.00    +0.012 C 
BRANCH  19  22
ATOM     21  C   UNL     1      -6.793   6.757   2.566  0.00  0.00    +0.004 C 
ATOM     22  C   UNL     1      -5.372   6.591   2.024  0.00  0.00    +0.004 C 
ENDBRANCH  19  22
ENDBRANCH  13  19
ENDBRANCH  12  18
ENDBRANCH  11  12
ENDBRANCH   7  11
ENDBRANCH   1   9
BRANCH   4  23
ATOM     23  S   UNL     1      -9.296  -4.231   0.456  0.00  0.00    +0.100 S 
ATOM     24  O   UNL     1      -8.773  -5.400   1.073  0.00  0.00    -0.146 OA
ATOM     25  O   UNL     1     -10.399  -3.514   0.993  0.00  0.00    -0.146 OA
BRANCH  23  26
ATOM     26  N   UNL     1      -9.716  -4.659  -1.088  0.00  0.00    -0.118 NA
ATOM     27  C   UNL     1     -10.679  -5.498  -1.287  0.00  0.00    +0.117 C 
ATOM     28  C   UNL     1     -11.407  -6.079  -0.178  0.00  0.00    +0.073 C 
ATOM     29  C   UNL     1     -11.443  -7.614  -0.232  0.00  0.00    +0.008 C 
ATOM     30  C   UNL     1     -12.489  -7.981  -1.246  0.00  0.00    +0.002 C 
ATOM     31  C   UNL     1     -11.900  -8.249  -2.654  0.00  0.00    +0.019 C 
ATOM     32  C   UNL     1     -10.792  -7.232  -2.974  0.00  0.00    +0.102 C 
ATOM     33  N   UNL     1     -11.059  -5.873  -2.585  0.00  0.00    -0.331 N 
ATOM     34  H   UNL     1     -11.483  -5.243  -3.189  0.00  0.00    +0.147 HD
ENDBRANCH  23  26
ENDBRANCH   4  23
TORSDOF 8
