REMARK  Name = ZINC07060745
REMARK  4 active torsions:
REMARK  status: ('A' for Active; 'I' for Inactive)
REMARK    1  A    between atoms: C_1  and  C_2
REMARK    2  A    between atoms: C_9  and  S_12
REMARK    3  A    between atoms: S_12  and  C_13
REMARK    4  A    between atoms: C_13  and  C_14
REMARK                            x       y       z     vdW  Elec       q    Type
REMARK                         _______ _______ _______ _____ _____    ______ ____
ROOT
ATOM      1  C   UNL     1      -4.840   3.962   0.070  0.00  0.00    +0.151 C 
ENDROOT
BRANCH   1   2
ATOM      2  C   UNL     1      -3.558   3.170   0.053  0.00  0.00    +0.121 A 
ATOM      3  N   UNL     1      -3.639   1.814   0.047  0.00  0.00    -0.310 N 
ATOM      4  H   UNL     1      -4.508   1.384   0.053  0.00  0.00    +0.170 HD
ATOM      5  C   UNL     1      -2.517   1.057   0.033  0.00  0.00    +0.259 A 
ATOM      6  O   UNL     1      -2.574  -0.159   0.027  0.00  0.00    -0.267 OA
ATOM      7  C   UNL     1      -1.226   1.761   0.017  0.00  0.00    +0.066 A 
ATOM      8  C   UNL     1      -0.013   1.076   0.008  0.00  0.00    +0.035 A 
ATOM      9  C   UNL     1       1.169   1.786   0.001  0.00  0.00    +0.042 A 
ATOM     10  C   UNL     1       1.157   3.176   0.008  0.00  0.00    +0.022 A 
ATOM     11  C   UNL     1      -0.031   3.871   0.023  0.00  0.00    +0.030 A 
ATOM     12  C   UNL     1      -1.240   3.174   0.031  0.00  0.00    +0.078 A 
ATOM     13  N   UNL     1      -2.434   3.819   0.046  0.00  0.00    -0.233 NA
ATOM     14 CL   UNL     1       2.683   0.938  -0.018  0.00  0.00    -0.084 Cl
ENDBRANCH   1   2
BRANCH   1  15
ATOM     15  S   UNL     1      -4.457   5.731   0.075  0.00  0.00    -0.080 S 
BRANCH  15  24
ATOM     16  C   UNL     1     -11.996   7.143   0.154  0.00  0.00    +0.044 C 
ATOM     17  C   UNL     1     -10.507   7.378   0.142  0.00  0.00    -0.048 A 
ATOM     18  C   UNL     1     -10.015   8.675   0.144  0.00  0.00    +0.005 A 
ATOM     19  C   UNL     1      -8.655   8.906   0.132  0.00  0.00    +0.028 A 
ATOM     20  C   UNL     1      -7.773   7.836   0.118  0.00  0.00    +0.067 A 
ATOM     21  C   UNL     1      -8.266   6.521   0.116  0.00  0.00    +0.090 A 
ATOM     22  C   UNL     1      -9.646   6.303   0.127  0.00  0.00    +0.033 A 
ATOM     23  N   UNL     1      -7.191   5.690   0.096  0.00  0.00    -0.222 NA
ATOM     24  C   UNL     1      -6.088   6.398   0.095  0.00  0.00    +0.168 A 
ATOM     25  N   UNL     1      -6.392   7.730   0.105  0.00  0.00    -0.333 N 
ATOM     26  H   UNL     1      -5.739   8.487   0.103  0.00  0.00    +0.168 HD
ENDBRANCH  15  24
ENDBRANCH   1  15
TORSDOF 3
