REMARK  Name = ZINC35746966
REMARK  11 active torsions:
REMARK  status: ('A' for Active; 'I' for Inactive)
REMARK    1  A    between atoms: C_1  and  C_2
REMARK    2  A    between atoms: C_5  and  C_33
REMARK    3  A    between atoms: C_6  and  C_8
REMARK    4  A    between atoms: C_17  and  C_19
REMARK    5  A    between atoms: C_19  and  N_20
REMARK    6  A    between atoms: N_20  and  C_21
REMARK    7  A    between atoms: N_20  and  C_28
REMARK    8  A    between atoms: C_21  and  C_22
REMARK    9  A    between atoms: C_28  and  C_29
REMARK   10  A    between atoms: C_29  and  C_31
REMARK   11  A    between atoms: C_29  and  O_32
REMARK                            x       y       z     vdW  Elec       q    Type
REMARK                         _______ _______ _______ _____ _____    ______ ____
ROOT
ATOM      1  C   UNL     1      -0.354  -2.990   2.813  0.00  0.00    +0.004 A 
ATOM      2  C   UNL     1      -1.314  -2.899   3.764  0.00  0.00    +0.056 A 
ATOM      3  S   UNL     1      -0.631  -3.821   5.129  0.00  0.00    -0.076 S 
ATOM      4  C   UNL     1       0.911  -4.303   4.397  0.00  0.00    +0.116 A 
ATOM      5  C   UNL     1       0.859  -3.743   3.110  0.00  0.00    +0.080 A 
ATOM      6  C   UNL     1       2.001  -3.985   2.281  0.00  0.00    +0.260 A 
ATOM      7  O   UNL     1       2.050  -3.536   1.149  0.00  0.00    -0.267 OA
ATOM      8  N   UNL     1       3.019  -4.717   2.771  0.00  0.00    -0.312 N 
ATOM      9  H   UNL     1       3.795  -4.884   2.214  0.00  0.00    +0.170 HD
ATOM     10  C   UNL     1       2.981  -5.225   4.029  0.00  0.00    +0.094 A 
ATOM     11  N   UNL     1       1.957  -5.012   4.813  0.00  0.00    -0.229 NA
ENDROOT
BRANCH   1  17
ATOM     12  C   UNL     1      -0.857   1.145   0.061  0.00  0.00    +0.044 C 
ATOM     13  C   UNL     1      -0.778  -0.357   0.165  0.00  0.00    -0.050 A 
ATOM     14  C   UNL     1      -0.878  -1.134  -0.976  0.00  0.00    +0.003 A 
ATOM     15  C   UNL     1      -0.807  -2.512  -0.888  0.00  0.00    +0.004 A 
ATOM     16  C   UNL     1      -0.637  -3.121   0.339  0.00  0.00    -0.043 A 
ATOM     17  C   UNL     1      -0.536  -2.343   1.492  0.00  0.00    -0.013 A 
ATOM     18  C   UNL     1      -0.602  -0.953   1.396  0.00  0.00    +0.012 A 
ATOM     19  C   UNL     1      -0.562  -4.623   0.433  0.00  0.00    +0.044 C 
ENDBRANCH   1  17
BRANCH  10  20
ATOM     20  C   UNL     1       4.144  -6.038   4.535  0.00  0.00    -0.003 C 
BRANCH  20  21
ATOM     21  N   UNL     1       3.814  -6.598   5.853  0.00  0.00    +0.389 N 
ATOM     22  H   UNL     1       3.540  -5.853   6.476  0.00  0.00    -0.081 HD
BRANCH  21  23
ATOM     23  C   UNL     1       2.708  -7.554   5.715  0.00  0.00    -0.042 C 
BRANCH  23  24
ATOM     24  C   UNL     1       2.288  -8.036   7.080  0.00  0.00    -0.064 A 
ATOM     25  C   UNL     1       2.885  -9.153   7.633  0.00  0.00    +0.002 A 
ATOM     26  C   UNL     1       2.500  -9.595   8.885  0.00  0.00    +0.000 A 
ATOM     27  C   UNL     1       1.518  -8.919   9.584  0.00  0.00    +0.000 A 
ATOM     28  C   UNL     1       0.920  -7.802   9.032  0.00  0.00    +0.000 A 
ATOM     29  C   UNL     1       1.309  -7.357   7.782  0.00  0.00    +0.002 A 
ENDBRANCH  23  24
ENDBRANCH  21  23
BRANCH  21  30
ATOM     30  C   UNL     1       4.991  -7.286   6.401  0.00  0.00    -0.046 C 
BRANCH  30  31
ATOM     31  C   UNL     1       6.081  -6.260   6.717  0.00  0.00    +0.095 C 
ATOM     32  C   UNL     1       7.213  -6.939   7.489  0.00  0.00    +0.035 C 
BRANCH  31  33
ATOM     33  O   UNL     1       6.594  -5.719   5.497  0.00  0.00    -0.394 OA
ATOM     34  H   UNL     1       7.338  -5.114   5.618  0.00  0.00    +0.210 HD
ENDBRANCH  31  33
ENDBRANCH  30  31
ENDBRANCH  21  30
ENDBRANCH  20  21
ENDBRANCH  10  20
TORSDOF 8
