REMARK  Name = ZINC31170177
REMARK  13 active torsions:
REMARK  status: ('A' for Active; 'I' for Inactive)
REMARK    1  A    between atoms: C_1  and  C_2
REMARK    2  A    between atoms: C_4  and  O_25
REMARK    3  A    between atoms: C_8  and  C_24
REMARK    4  A    between atoms: C_12  and  O_20
REMARK    5  A    between atoms: C_15  and  C_16
REMARK    6  A    between atoms: C_15  and  O_19
REMARK    7  A    between atoms: C_16  and  C_17
REMARK    8  A    between atoms: C_16  and  C_18
REMARK    9  A    between atoms: O_20  and  C_21
REMARK   10  A    between atoms: C_21  and  C_23
REMARK   11  A    between atoms: O_25  and  C_26
REMARK   12  A    between atoms: C_26  and  C_28
REMARK   13  A    between atoms: C_31  and  O_34
REMARK                            x       y       z     vdW  Elec       q    Type
REMARK                         _______ _______ _______ _____ _____    ______ ____
ROOT
ATOM      1  C   UNL     1      -1.036  -1.532  -3.009  0.00  0.00    +0.047 C 
ATOM      2  C   UNL     1      -0.118  -0.892  -2.000  0.00  0.00    -0.009 C 
ATOM      3  C   UNL     1       1.185  -0.784  -2.270  0.00  0.00    +0.024 C 
ATOM      4  C   UNL     1       2.091  -0.116  -1.253  0.00  0.00    +0.207 C 
ATOM      5  C   UNL     1       1.685   1.346  -1.175  0.00  0.00    +0.076 C 
ATOM      6  C   UNL     1       0.654   1.573  -0.066  0.00  0.00    +0.021 C 
ATOM      7  C   UNL     1      -0.724   1.096  -0.481  0.00  0.00    +0.090 C 
ATOM      8  C   UNL     1      -0.670  -0.395  -0.733  0.00  0.00    +0.159 C 
ATOM      9  O   UNL     1      -1.079  -1.173   0.104  0.00  0.00    -0.292 OA
ATOM     10  C   UNL     1       0.721   3.095   0.163  0.00  0.00    +0.186 C 
ATOM     11  C   UNL     1       2.230   3.416   0.030  0.00  0.00    +0.080 C 
ATOM     12  C   UNL     1       2.848   2.279  -0.814  0.00  0.00    +0.079 C 
ATOM     13  C   UNL     1       1.093   0.842   1.204  0.00  0.00    +0.016 C 
ENDROOT
BRANCH  12  14
ATOM     14  C   UNL     1       3.482   2.848  -2.085  0.00  0.00    +0.015 C 
ATOM     15  C   UNL     1       4.655   3.754  -1.708  0.00  0.00    +0.010 C 
ATOM     16  C   UNL     1       3.986   1.699  -2.961  0.00  0.00    +0.010 C 
ENDBRANCH  12  14
BRANCH  12  17
ATOM     17  O   UNL     1       3.827   1.573  -0.049  0.00  0.00    -0.388 OA
ATOM     18  H   UNL     1       4.733   2.091   0.297  0.00  0.00    +0.210 HD
ENDBRANCH  12  17
BRANCH  10  19
ATOM     19  O   UNL     1       0.241   3.433   1.491  0.00  0.00    -0.461 OA
BRANCH  19  20
ATOM     20  C   UNL     1      -0.255   4.668   1.664  0.00  0.00    +0.304 C 
ATOM     21  O   UNL     1      -0.288   5.441   0.736  0.00  0.00    -0.251 OA
ATOM     22  C   UNL     1      -0.772   5.090   3.015  0.00  0.00    +0.136 C 
ENDBRANCH  19  20
ENDBRANCH  10  19
BRANCH   4  23
ATOM     23  O   UNL     1       3.475  -0.222  -1.680  0.00  0.00    -0.453 OA
BRANCH  23  24
ATOM     24  C   UNL     1       4.292  -0.981  -0.923  0.00  0.00    +0.340 C 
ATOM     25  O   UNL     1       3.889  -1.450   0.123  0.00  0.00    -0.245 OA
BRANCH  24  26
ATOM     26  C   UNL     1       5.674  -1.243  -1.366  0.00  0.00    +0.059 A 
ATOM     27  C   UNL     1       6.093  -0.833  -2.635  0.00  0.00    +0.018 A 
ATOM     28  C   UNL     1       7.386  -1.075  -3.042  0.00  0.00    +0.046 A 
ATOM     29  C   UNL     1       8.271  -1.735  -2.197  0.00  0.00    +0.117 A 
ATOM     30  C   UNL     1       7.856  -2.149  -0.936  0.00  0.00    +0.046 A 
ATOM     31  C   UNL     1       6.567  -1.907  -0.519  0.00  0.00    +0.018 A 
BRANCH  29  32
ATOM     32  O   UNL     1       9.543  -1.976  -2.604  0.00  0.00    -0.507 OA
ATOM     33  H   UNL     1      10.244  -2.498  -1.936  0.00  0.00    +0.292 HD
ENDBRANCH  29  32
ENDBRANCH  24  26
ENDBRANCH  23  24
ENDBRANCH   4  23
TORSDOF 8
