REMARK  Name = ZINC13495804
REMARK  11 active torsions:
REMARK  status: ('A' for Active; 'I' for Inactive)
REMARK    1  A    between atoms: C_1  and  C_2
REMARK    2  A    between atoms: C_2  and  C_3
REMARK    3  A    between atoms: C_3  and  C_5
REMARK    4  A    between atoms: C_3  and  N_72
REMARK    5  A    between atoms: N_9  and  C_10
REMARK    6  A    between atoms: C_16  and  C_17
REMARK    7  A    between atoms: C_16  and  N_72
REMARK    8  A    between atoms: C_17  and  C_18
REMARK    9  A    between atoms: C_24  and  C_25
REMARK   10  A    between atoms: C_24  and  N_72
REMARK   11  A    between atoms: C_31  and  C_37
REMARK                            x       y       z     vdW  Elec       q    Type
REMARK                         _______ _______ _______ _____ _____    ______ ____
ROOT
ATOM      1  N   UNL     1      -2.380  -1.500   1.873  0.00  0.00    +0.389 N 
ATOM      2  H   UNL     1      -2.606  -0.856   2.640  0.00  0.00    -0.080 HD
ENDROOT
BRANCH   1   3
ATOM      3  C   UNL     1      -3.609  -1.781   1.103  0.00  0.00    +0.003 C 
BRANCH   3   4
ATOM      4  C   UNL     1      -4.453  -0.532   1.072  0.00  0.00    +0.138 A 
ATOM      5  N   UNL     1      -4.029   0.694   0.887  0.00  0.00    -0.115 NA
ATOM      6  N   UNL     1      -5.050   1.479   0.928  0.00  0.00    -0.023 NA
ATOM      7  N   UNL     1      -6.115   0.784   1.134  0.00  0.00    -0.044 NA
ATOM      8  N   UNL     1      -5.788  -0.461   1.223  0.00  0.00    -0.228 N 
BRANCH   8   9
ATOM      9  C   UNL     1      -6.700  -1.585   1.450  0.00  0.00    +0.111 C 
ATOM     10  C   UNL     1      -7.722  -1.650   0.313  0.00  0.00    +0.027 C 
ATOM     11  C   UNL     1      -8.674  -2.825   0.550  0.00  0.00    +0.002 C 
ATOM     12  C   UNL     1      -9.403  -2.630   1.881  0.00  0.00    +0.000 C 
ATOM     13  C   UNL     1      -8.380  -2.565   3.018  0.00  0.00    +0.002 C 
ATOM     14  C   UNL     1      -7.428  -1.391   2.781  0.00  0.00    +0.027 C 
ENDBRANCH   8   9
ENDBRANCH   3   4
BRANCH   3  16
ATOM     15  C   UNL     1      -2.452  -3.494  -0.300  0.00  0.00    +0.002 C 
ATOM     16  C   UNL     1      -3.260  -2.196  -0.328  0.00  0.00    -0.011 C 
ENDBRANCH   3  16
ENDBRANCH   1   3
BRANCH   1  17
ATOM     17  C   UNL     1      -1.843  -2.754   2.443  0.00  0.00    -0.073 C 
BRANCH  17  18
ATOM     18  C   UNL     1      -2.746  -3.196   3.596  0.00  0.00    +0.016 C 
BRANCH  18  19
ATOM     19  C   UNL     1      -2.131  -4.385   4.288  0.00  0.00    -0.049 A 
ATOM     20  C   UNL     1      -2.441  -5.665   3.869  0.00  0.00    +0.003 A 
ATOM     21  C   UNL     1      -1.873  -6.756   4.500  0.00  0.00    +0.000 A 
ATOM     22  C   UNL     1      -1.004  -6.567   5.558  0.00  0.00    +0.000 A 
ATOM     23  C   UNL     1      -0.698  -5.287   5.981  0.00  0.00    +0.000 A 
ATOM     24  C   UNL     1      -1.262  -4.196   5.346  0.00  0.00    +0.003 A 
ENDBRANCH  18  19
ENDBRANCH  17  18
ENDBRANCH   1  17
BRANCH   1  25
ATOM     25  C   UNL     1      -1.368  -0.869   0.999  0.00  0.00    -0.037 C 
BRANCH  25  26
ATOM     26  C   UNL     1      -0.284  -0.278   1.862  0.00  0.00    +0.001 A 
ATOM     27  C   UNL     1       0.848  -0.984   2.103  0.00  0.00    +0.017 A 
ATOM     28  C   UNL     1       1.883  -0.381   2.945  0.00  0.00    -0.001 A 
ATOM     29  C   UNL     1       3.072  -1.061   3.229  0.00  0.00    +0.010 A 
ATOM     30  C   UNL     1       4.018  -0.471   4.019  0.00  0.00    +0.001 A 
ATOM     31  C   UNL     1       3.809   0.798   4.542  0.00  0.00    +0.005 A 
ATOM     32  C   UNL     1       2.646   1.487   4.275  0.00  0.00    -0.026 A 
ATOM     33  C   UNL     1       1.668   0.906   3.474  0.00  0.00    +0.052 A 
ATOM     34  N   UNL     1       0.495   1.572   3.190  0.00  0.00    -0.322 N 
ATOM     35  H   UNL     1       0.349   2.459   3.555  0.00  0.00    +0.169 HD
ATOM     36  C   UNL     1      -0.450   1.010   2.416  0.00  0.00    +0.251 A 
ATOM     37  O   UNL     1      -1.472   1.630   2.182  0.00  0.00    -0.268 OA
ATOM     38  C   UNL     1       2.433   2.864   4.850  0.00  0.00    +0.046 C 
ENDBRANCH  25  26
ENDBRANCH   1  25
TORSDOF 9
