REMARK  Name = ZINC03345453
REMARK  5 active torsions:
REMARK  status: ('A' for Active; 'I' for Inactive)
REMARK    1  A    between atoms: C_1  and  C_2
REMARK    2  A    between atoms: C_12  and  C_14
REMARK    3  A    between atoms: C_14  and  C_16
REMARK    4  A    between atoms: C_14  and  N_17
REMARK    5  A    between atoms: N_17  and  C_18
REMARK                            x       y       z     vdW  Elec       q    Type
REMARK                         _______ _______ _______ _____ _____    ______ ____
ROOT
ATOM      1  C   UNL     1       2.508  -0.937   2.964  0.00  0.00    +0.154 C 
ATOM      2  C   UNL     1       1.555  -0.692   4.136  0.00  0.00    +0.038 C 
ENDROOT
BRANCH   1  13
ATOM      3  C   UNL     1       0.981  -3.198   1.689  0.00  0.00    +0.029 C 
ATOM      4  C   UNL     1       0.097  -1.952   1.613  0.00  0.00    +0.083 C 
ATOM      5  C   UNL     1      -1.029  -2.158   0.586  0.00  0.00    +0.059 C 
ATOM      6  C   UNL     1      -0.800  -1.081  -0.451  0.00  0.00    -0.024 A 
ATOM      7  C   UNL     1      -1.493  -0.774  -1.606  0.00  0.00    +0.005 A 
ATOM      8  C   UNL     1      -1.081   0.277  -2.404  0.00  0.00    +0.000 A 
ATOM      9  C   UNL     1       0.028   1.021  -2.043  0.00  0.00    +0.002 A 
ATOM     10  C   UNL     1       0.722   0.718  -0.892  0.00  0.00    +0.024 A 
ATOM     11  C   UNL     1       0.312  -0.342  -0.081  0.00  0.00    +0.040 A 
ATOM     12  N   UNL     1       0.869  -0.810   1.116  0.00  0.00    -0.267 N 
ATOM     13  C   UNL     1       1.954  -0.289   1.722  0.00  0.00    +0.240 C 
ATOM     14  O   UNL     1       2.485   0.703   1.268  0.00  0.00    -0.273 OA
ENDBRANCH   1  13
BRANCH   1  15
ATOM     15  N   UNL     1       3.820  -0.362   3.272  0.00  0.00    -0.333 N 
ATOM     16  H   UNL     1       4.042   0.531   2.965  0.00  0.00    +0.147 HD
BRANCH  15  17
ATOM     17  C   UNL     1       4.752  -1.100   4.010  0.00  0.00    +0.031 A 
ATOM     18  C   UNL     1       4.436  -2.380   4.446  0.00  0.00    +0.027 A 
ATOM     19  C   UNL     1       5.355  -3.109   5.176  0.00  0.00    +0.051 A 
ATOM     20  C   UNL     1       6.596  -2.565   5.474  0.00  0.00    +0.162 A 
ATOM     21  C   UNL     1       6.916  -1.285   5.037  0.00  0.00    +0.164 A 
ATOM     22  C   UNL     1       5.994  -0.556   4.302  0.00  0.00    +0.072 A 
ATOM     23  O   UNL     1       8.131  -0.738   5.314  0.00  0.00    -0.485 OA
ATOM     24  C   UNL     1       8.889  -1.351   6.363  0.00  0.00    +0.270 C 
ATOM     25  C   UNL     1       8.854  -2.871   6.156  0.00  0.00    +0.270 C 
ATOM     26  O   UNL     1       7.488  -3.298   6.198  0.00  0.00    -0.485 OA
ENDBRANCH  15  17
ENDBRANCH   1  15
TORSDOF 3
