REMARK  Name = ZINC09234386
REMARK  4 active torsions:
REMARK  status: ('A' for Active; 'I' for Inactive)
REMARK    1  A    between atoms: C_6  and  N_11
REMARK    2  A    between atoms: C_16  and  C_32
REMARK    3  A    between atoms: C_32  and  C_33
REMARK    4  A    between atoms: C_33  and  C_34
REMARK                            x       y       z     vdW  Elec       q    Type
REMARK                         _______ _______ _______ _____ _____    ______ ____
ROOT
ATOM      1  N   UNL     1       3.612  -0.668  -0.036  0.00  0.00    -0.210 N 
ATOM      2  C   UNL     1       4.801  -0.065  -0.148  0.00  0.00    +0.228 C 
ATOM      3  O   UNL     1       4.973   1.131  -0.251  0.00  0.00    -0.275 OA
ATOM      4  C   UNL     1       5.896  -1.106  -0.121  0.00  0.00    +0.073 C 
ATOM      5  C   UNL     1       6.584  -1.173  -1.501  0.00  0.00    -0.057 C 
ATOM      6  C   UNL     1       5.384  -3.171  -1.322  0.00  0.00    +0.050 C 
ATOM      7  C   UNL     1       5.117  -2.445   0.002  0.00  0.00    +0.088 C 
ATOM      8  C   UNL     1       3.671  -2.001   0.055  0.00  0.00    +0.229 C 
ATOM      9  O   UNL     1       2.716  -2.739   0.163  0.00  0.00    -0.275 OA
ATOM     10  C   UNL     1       6.478  -4.191  -1.181  0.00  0.00    -0.028 A 
ATOM     11  C   UNL     1       7.799  -4.119  -0.802  0.00  0.00    +0.004 A 
ATOM     12  C   UNL     1       8.575  -5.264  -0.771  0.00  0.00    +0.000 A 
ATOM     13  C   UNL     1       8.018  -6.482  -1.120  0.00  0.00    +0.002 A 
ATOM     14  C   UNL     1       6.694  -6.559  -1.499  0.00  0.00    +0.023 A 
ATOM     15  C   UNL     1       5.907  -5.411  -1.534  0.00  0.00    +0.036 A 
ATOM     16  N   UNL     1       4.564  -5.235  -1.877  0.00  0.00    -0.286 N 
ATOM     17  C   UNL     1       4.179  -3.948  -1.777  0.00  0.00    +0.211 C 
ATOM     18  O   UNL     1       3.075  -3.502  -2.009  0.00  0.00    -0.277 OA
ATOM     19  H   UNL     1       3.978  -5.955  -2.154  0.00  0.00    +0.155 HD
ATOM     20  N   UNL     1       5.774  -2.135  -2.256  0.00  0.00    +0.394 N 
ATOM     21  H   UNL     1       6.326  -2.538  -3.022  0.00  0.00    -0.083 HD
ATOM     22  H   UNL     1       4.942  -1.673  -2.640  0.00  0.00    -0.083 HD
ENDROOT
BRANCH   1  28
ATOM     23  C   UNL     1      -2.064   2.036  -0.979  0.00  0.00    +0.001 A 
ATOM     24  C   UNL     1      -1.767   1.211  -2.062  0.00  0.00    +0.001 A 
ATOM     25  C   UNL     1      -0.601   0.510  -2.109  0.00  0.00    +0.008 A 
ATOM     26  C   UNL     1       0.319   0.619  -1.052  0.00  0.00    -0.016 A 
ATOM     27  C   UNL     1       1.532  -0.089  -1.067  0.00  0.00    +0.032 A 
ATOM     28  C   UNL     1       2.402   0.040  -0.021  0.00  0.00    +0.044 A 
ATOM     29  C   UNL     1       2.101   0.869   1.065  0.00  0.00    +0.024 A 
ATOM     30  C   UNL     1       0.935   1.568   1.108  0.00  0.00    +0.010 A 
ATOM     31  C   UNL     1       0.017   1.458   0.049  0.00  0.00    -0.018 A 
ATOM     32  C   UNL     1      -1.200   2.162   0.065  0.00  0.00    +0.008 A 
ENDBRANCH   1  28
BRANCH   5  33
ATOM     33  C   UNL     1       6.576   0.204  -2.167  0.00  0.00    -0.004 C 
BRANCH  33  34
ATOM     34  C   UNL     1       7.369   0.144  -3.474  0.00  0.00    +0.123 C 
BRANCH  34  35
ATOM     35  C   UNL     1       7.361   1.500  -4.130  0.00  0.00    +0.356 C 
ATOM     36  O   UNL     1       6.780   2.421  -3.606  0.00  0.00    -0.246 OA
ATOM     37  O   UNL     1       7.999   1.686  -5.296  0.00  0.00    -0.246 OA
ENDBRANCH  34  35
ENDBRANCH  33  34
ENDBRANCH   5  33
TORSDOF 4
