REMARK  Name = ZINC06405804
REMARK  9 active torsions:
REMARK  status: ('A' for Active; 'I' for Inactive)
REMARK    1  A    between atoms: C_1  and  C_2
REMARK    2  A    between atoms: C_5  and  C_40
REMARK    3  A    between atoms: C_9  and  C_14
REMARK    4  A    between atoms: C_14  and  C_16
REMARK    5  A    between atoms: C_14  and  N_73
REMARK    6  A    between atoms: N_20  and  C_21
REMARK    7  A    between atoms: C_21  and  C_22
REMARK    8  A    between atoms: C_30  and  C_33
REMARK    9  A    between atoms: C_33  and  C_34
REMARK                            x       y       z     vdW  Elec       q    Type
REMARK                         _______ _______ _______ _____ _____    ______ ____
ROOT
ATOM      1  C   UNL     1       4.237   2.963  -1.744  0.00  0.00    +0.039 C 
ENDROOT
BRANCH   1  10
ATOM      2  C   UNL     1       7.356   3.366   2.406  0.00  0.00    +0.044 C 
ATOM      3  C   UNL     1       8.224   3.010   1.227  0.00  0.00    -0.041 A 
ATOM      4  C   UNL     1       9.572   2.857   1.389  0.00  0.00    +0.004 A 
ATOM      5  C   UNL     1      10.380   2.531   0.309  0.00  0.00    +0.005 A 
ATOM      6  C   UNL     1       9.839   2.354  -0.947  0.00  0.00    -0.026 A 
ATOM      7  C   UNL     1       8.470   2.505  -1.135  0.00  0.00    +0.052 A 
ATOM      8  C   UNL     1       7.653   2.836  -0.038  0.00  0.00    +0.002 A 
ATOM      9  C   UNL     1       6.213   2.996  -0.247  0.00  0.00    +0.018 A 
ATOM     10  C   UNL     1       5.716   2.810  -1.495  0.00  0.00    +0.011 A 
ATOM     11  C   UNL     1       6.578   2.479  -2.562  0.00  0.00    +0.251 A 
ATOM     12  O   UNL     1       6.111   2.320  -3.676  0.00  0.00    -0.268 OA
ATOM     13  N   UNL     1       7.902   2.334  -2.380  0.00  0.00    -0.322 N 
ATOM     14  H   UNL     1       8.466   2.106  -3.136  0.00  0.00    +0.169 HD
ATOM     15  C   UNL     1      10.729   2.001  -2.110  0.00  0.00    +0.046 C 
ENDBRANCH   1  10
BRANCH   1  21
ATOM     16  C   UNL     1       4.660   5.228  -2.488  0.00  0.00    -0.077 C 
ATOM     17  C   UNL     1       4.539   6.178  -3.681  0.00  0.00    -0.015 C 
ATOM     18  C   UNL     1       3.059   6.394  -4.008  0.00  0.00    -0.010 C 
ATOM     19  C   UNL     1       2.405   5.040  -4.296  0.00  0.00    -0.015 C 
ATOM     20  C   UNL     1       2.588   4.122  -3.084  0.00  0.00    -0.077 C 
ATOM     21  N   UNL     1       4.034   3.935  -2.838  0.00  0.00    +0.389 N 
ATOM     22  H   UNL     1       4.473   3.573  -3.692  0.00  0.00    -0.080 HD
BRANCH  18  23
ATOM     23  C   UNL     1       2.931   7.295  -5.237  0.00  0.00    +0.038 C 
BRANCH  23  24
ATOM     24  C   UNL     1       3.464   8.667  -4.912  0.00  0.00    -0.047 A 
ATOM     25  C   UNL     1       2.617   9.636  -4.407  0.00  0.00    +0.003 A 
ATOM     26  C   UNL     1       3.107  10.893  -4.105  0.00  0.00    +0.000 A 
ATOM     27  C   UNL     1       4.442  11.183  -4.316  0.00  0.00    +0.000 A 
ATOM     28  C   UNL     1       5.288  10.216  -4.826  0.00  0.00    +0.000 A 
ATOM     29  C   UNL     1       4.799   8.958  -5.124  0.00  0.00    +0.003 A 
ENDBRANCH  23  24
ENDBRANCH  18  23
ENDBRANCH   1  21
BRANCH   1  30
ATOM     30  C   UNL     1       3.658   1.635  -2.159  0.00  0.00    +0.143 A 
ATOM     31  N   UNL     1       3.789   1.053  -3.326  0.00  0.00    -0.115 NA
ATOM     32  N   UNL     1       3.149  -0.064  -3.288  0.00  0.00    -0.023 NA
ATOM     33  N   UNL     1       2.618  -0.213  -2.125  0.00  0.00    -0.044 NA
ATOM     34  N   UNL     1       2.903   0.816  -1.402  0.00  0.00    -0.226 N 
BRANCH  34  35
ATOM     35  C   UNL     1       2.490   1.048  -0.016  0.00  0.00    +0.182 C 
BRANCH  35  36
ATOM     36  C   UNL     1       1.175   1.783   0.000  0.00  0.00    -0.026 A 
ATOM     37  C   UNL     1      -0.013   1.076   0.008  0.00  0.00    +0.005 A 
ATOM     38  C   UNL     1      -1.219   1.751   0.017  0.00  0.00    +0.000 A 
ATOM     39  C   UNL     1      -1.238   3.133   0.029  0.00  0.00    +0.000 A 
ATOM     40  C   UNL     1      -0.050   3.840   0.022  0.00  0.00    +0.000 A 
ATOM     41  C   UNL     1       1.156   3.165   0.008  0.00  0.00    +0.005 A 
ENDBRANCH  35  36
ENDBRANCH  34  35
ENDBRANCH   1  30
TORSDOF 7
