REMARK  Name = ZINC06813967
REMARK  4 active torsions:
REMARK  status: ('A' for Active; 'I' for Inactive)
REMARK    1  A    between atoms: C_4  and  C_7
REMARK    2  A    between atoms: C_14  and  N_28
REMARK    3  A    between atoms: C_15  and  C_26
REMARK    4  A    between atoms: C_16  and  C_18
REMARK                            x       y       z     vdW  Elec       q    Type
REMARK                         _______ _______ _______ _____ _____    ______ ____
ROOT
ATOM      1  C   UNL     1       3.699  -0.689  -0.037  0.00  0.00    +0.100 A 
ATOM      2  C   UNL     1       3.972  -1.905   0.597  0.00  0.00    +0.054 A 
ATOM      3  C   UNL     1       5.272  -2.232   0.341  0.00  0.00    +0.223 A 
ATOM      4  N   UNL     1       5.798  -1.256  -0.427  0.00  0.00    -0.246 N 
ATOM      5  H   UNL     1       6.707  -1.222  -0.764  0.00  0.00    +0.192 HD
ATOM      6  N   UNL     1       4.796  -0.300  -0.659  0.00  0.00    -0.171 NA
ATOM      7  O   UNL     1       5.849  -3.365   0.815  0.00  0.00    -0.423 OA
ATOM      8  C   UNL     1       5.037  -4.312   1.327  0.00  0.00    +0.200 C 
ATOM      9  C   UNL     1       3.737  -4.104   1.633  0.00  0.00    +0.098 C 
ATOM     10  C   UNL     1       3.064  -2.769   1.433  0.00  0.00    +0.102 C 
ENDROOT
BRANCH  10  11
ATOM     11  C   UNL     1       2.827  -2.113   2.770  0.00  0.00    -0.032 A 
ATOM     12  C   UNL     1       3.895  -1.842   3.605  0.00  0.00    +0.007 A 
ATOM     13  C   UNL     1       3.680  -1.241   4.831  0.00  0.00    +0.041 A 
ATOM     14  C   UNL     1       2.395  -0.909   5.223  0.00  0.00    +0.158 A 
ATOM     15  C   UNL     1       1.324  -1.181   4.385  0.00  0.00    +0.159 A 
ATOM     16  C   UNL     1       1.543  -1.779   3.156  0.00  0.00    +0.046 A 
ATOM     17  F   UNL     1       0.069  -0.859   4.767  0.00  0.00    -0.202 F 
ATOM     18  F   UNL     1       2.184  -0.322   6.421  0.00  0.00    -0.202 F 
ENDBRANCH  10  11
BRANCH   1  22
ATOM     19  C   UNL     1      -0.017   1.379   0.010  0.00  0.00    +0.000 A 
ATOM     20  C   UNL     1       1.169   2.092   0.002  0.00  0.00    +0.001 A 
ATOM     21  C   UNL     1       2.377   1.426  -0.013  0.00  0.00    +0.010 A 
ATOM     22  C   UNL     1       2.402   0.033  -0.021  0.00  0.00    +0.003 A 
ATOM     23  C   UNL     1       1.205  -0.680  -0.013  0.00  0.00    +0.010 A 
ATOM     24  C   UNL     1       0.002  -0.004   0.002  0.00  0.00    +0.001 A 
ENDBRANCH   1  22
BRANCH   8  25
ATOM     25  N   UNL     1       5.561  -5.561   1.549  0.00  0.00    -0.328 N 
ATOM     26  H   UNL     1       6.491  -5.742   1.339  0.00  0.00    +0.145 HD
ATOM     27  H   UNL     1       5.002  -6.264   1.916  0.00  0.00    +0.145 HD
ENDBRANCH   8  25
BRANCH   9  28
ATOM     28  C   UNL     1       2.972  -5.189   2.167  0.00  0.00    +0.101 C 
ATOM     29  N   UNL     1       2.364  -6.051   2.591  0.00  0.00    -0.191 NA
ENDBRANCH   9  28
TORSDOF 4
