REMARK  Name = ZINC33324516
REMARK  13 active torsions:
REMARK  status: ('A' for Active; 'I' for Inactive)
REMARK    1  A    between atoms: C_1  and  C_2
REMARK    2  A    between atoms: C_2  and  N_3
REMARK    3  A    between atoms: N_3  and  C_4
REMARK    4  A    between atoms: C_4  and  C_5
REMARK    5  A    between atoms: C_8  and  N_13
REMARK    6  A    between atoms: C_10  and  C_12
REMARK    7  A    between atoms: N_13  and  C_14
REMARK    8  A    between atoms: C_17  and  N_20
REMARK    9  A    between atoms: N_20  and  S_21
REMARK   10  A    between atoms: S_21  and  C_24
REMARK   11  A    between atoms: C_25  and  C_32
REMARK   12  A    between atoms: C_27  and  C_31
REMARK   13  A    between atoms: C_29  and  C_30
REMARK                            x       y       z     vdW  Elec       q    Type
REMARK                         _______ _______ _______ _____ _____    ______ ____
ROOT
ATOM      1  C   UNL     1       1.943   4.615   2.358  0.00  0.00    +0.032 A 
ATOM      2  C   UNL     1       0.598   4.957   2.398  0.00  0.00    +0.025 A 
ATOM      3  C   UNL     1      -0.314   4.262   1.629  0.00  0.00    +0.026 A 
ATOM      4  C   UNL     1       0.114   3.221   0.816  0.00  0.00    +0.048 A 
ATOM      5  C   UNL     1       1.458   2.875   0.780  0.00  0.00    +0.026 A 
ATOM      6  C   UNL     1       2.371   3.574   1.544  0.00  0.00    +0.025 A 
ENDROOT
BRANCH   1   7
ATOM      7  N   UNL     1       2.868   5.320   3.138  0.00  0.00    -0.301 N 
ATOM      8  H   UNL     1       2.776   6.410   3.249  0.00  0.00    +0.154 HD
BRANCH   7  12
ATOM      9  N   UNL     1       5.085   1.237   4.434  0.00  0.00    -0.316 N 
ATOM     10  C   UNL     1       4.998   2.621   4.413  0.00  0.00    +0.126 A 
ATOM     11  C   UNL     1       3.939   3.252   3.769  0.00  0.00    +0.085 A 
ATOM     12  C   UNL     1       3.900   4.643   3.771  0.00  0.00    +0.105 A 
ATOM     13  N   UNL     1       4.867   5.315   4.395  0.00  0.00    -0.332 N 
ATOM     14  C   UNL     1       5.851   4.680   4.998  0.00  0.00    +0.107 A 
ATOM     15  N   UNL     1       5.925   3.365   5.014  0.00  0.00    -0.219 NA
ATOM     16  C   UNL     1       6.922   5.482   5.691  0.00  0.00    +0.086 C 
ATOM     17  H   UNL     1       4.850   6.415   4.411  0.00  0.00    +0.168 HD
BRANCH   9  19
ATOM     18  C   UNL     1       4.704   0.187   2.258  0.00  0.00    +0.024 C 
ATOM     19  C   UNL     1       4.138   0.432   3.658  0.00  0.00    +0.103 C 
ENDBRANCH   9  19
BRANCH   9  20
ATOM     20  C   UNL     1       6.123   0.580   5.232  0.00  0.00    +0.103 C 
ATOM     21  C   UNL     1       5.590   0.313   6.641  0.00  0.00    +0.024 C 
ENDBRANCH   9  20
ENDBRANCH   7  12
ENDBRANCH   1   7
BRANCH   4  22
ATOM     22  N   UNL     1      -0.811   2.516   0.036  0.00  0.00    -0.216 N 
ATOM     23  H   UNL     1      -1.764   2.188   0.475  0.00  0.00    +0.174 HD
BRANCH  22  24
ATOM     24  S   UNL     1      -0.469   2.178  -1.549  0.00  0.00    +0.073 S 
ATOM     25  O   UNL     1       0.053   3.371  -2.116  0.00  0.00    -0.150 OA
ATOM     26  O   UNL     1      -1.612   1.519  -2.078  0.00  0.00    -0.150 OA
BRANCH  24  27
ATOM     27  C   UNL     1       0.841   1.000  -1.559  0.00  0.00    +0.114 A 
ATOM     28  C   UNL     1       0.602  -0.304  -1.165  0.00  0.00    -0.023 A 
ATOM     29  C   UNL     1       1.631  -1.226  -1.167  0.00  0.00    +0.008 A 
ATOM     30  C   UNL     1       2.900  -0.846  -1.564  0.00  0.00    -0.050 A 
ATOM     31  C   UNL     1       3.139   0.458  -1.958  0.00  0.00    +0.008 A 
ATOM     32  C   UNL     1       2.109   1.380  -1.955  0.00  0.00    -0.023 A 
ATOM     33  C   UNL     1       2.370   2.801  -2.385  0.00  0.00    +0.046 C 
ATOM     34  C   UNL     1       4.022  -1.852  -1.568  0.00  0.00    +0.044 C 
ATOM     35  C   UNL     1      -0.781  -0.719  -0.733  0.00  0.00    +0.046 C 
ENDBRANCH  24  27
ENDBRANCH  22  24
ENDBRANCH   4  22
TORSDOF 7
