REMARK  Name = ZINC13346226
REMARK  8 active torsions:
REMARK  status: ('A' for Active; 'I' for Inactive)
REMARK    1  A    between atoms: C_3  and  C_29
REMARK    2  A    between atoms: C_5  and  S_7
REMARK    3  A    between atoms: S_7  and  N_10
REMARK    4  A    between atoms: N_10  and  N_11
REMARK    5  A    between atoms: C_12  and  C_14
REMARK    6  A    between atoms: C_17  and  C_20
REMARK    7  A    between atoms: C_20  and  S_21
REMARK    8  A    between atoms: S_21  and  C_22
REMARK                            x       y       z     vdW  Elec       q    Type
REMARK                         _______ _______ _______ _____ _____    ______ ____
ROOT
ATOM      1  N   UNL     1      -2.162   1.367   1.567  0.00  0.00    -0.228 N 
ATOM      2  C   UNL     1      -2.457   0.738   2.722  0.00  0.00    +0.259 C 
ATOM      3  O   UNL     1      -1.604   0.608   3.578  0.00  0.00    -0.269 OA
ATOM      4  H   UNL     1      -2.842   1.470   0.883  0.00  0.00    +0.171 HD
ENDROOT
BRANCH   2   5
ATOM      5  C   UNL     1      -3.817   0.206   2.947  0.00  0.00    +0.038 A 
ATOM      6  C   UNL     1      -4.801   0.358   1.968  0.00  0.00    +0.013 A 
ATOM      7  C   UNL     1      -6.067  -0.145   2.182  0.00  0.00    +0.005 A 
ATOM      8  C   UNL     1      -6.367  -0.790   3.369  0.00  0.00    -0.037 A 
ATOM      9  C   UNL     1      -5.398  -0.940   4.346  0.00  0.00    +0.005 A 
ATOM     10  C   UNL     1      -4.126  -0.446   4.142  0.00  0.00    +0.013 A 
BRANCH   8  11
ATOM     11  C   UNL     1      -7.754  -1.333   3.598  0.00  0.00    +0.109 C 
BRANCH  11  12
ATOM     12  S   UNL     1      -8.779  -0.059   4.384  0.00  0.00    -0.121 S 
BRANCH  12  13
ATOM     13  C   UNL     1     -10.348  -0.838   4.582  0.00  0.00    +0.008 A 
ATOM     14  C   UNL     1     -10.535  -2.146   4.153  0.00  0.00    +0.016 A 
ATOM     15  C   UNL     1     -11.764  -2.755   4.315  0.00  0.00    +0.021 A 
ATOM     16  C   UNL     1     -12.811  -2.060   4.894  0.00  0.00    +0.041 A 
ATOM     17  C   UNL     1     -12.629  -0.755   5.318  0.00  0.00    +0.021 A 
ATOM     18  C   UNL     1     -11.401  -0.142   5.164  0.00  0.00    +0.016 A 
ATOM     19 CL   UNL     1     -14.356  -2.827   5.091  0.00  0.00    -0.084 Cl
ENDBRANCH  12  13
ENDBRANCH  11  12
ENDBRANCH   8  11
ENDBRANCH   2   5
BRANCH   1  20
ATOM     20  N   UNL     1      -0.872   1.871   1.353  0.00  0.00    -0.108 NA
ATOM     21  H   UNL     1      -0.480   2.486   1.993  0.00  0.00    +0.172 HD
BRANCH  20  22
ATOM     22  S   UNL     1      -0.017   1.417   0.010  0.00  0.00    +0.074 S 
ATOM     23  O   UNL     1       0.002  -0.004   0.002  0.00  0.00    -0.152 OA
ATOM     24  O   UNL     1       1.172   2.195   0.003  0.00  0.00    -0.152 OA
BRANCH  22  29
ATOM     25  C   UNL     1      -2.624   1.435  -3.053  0.00  0.00    +0.003 A 
ATOM     26  C   UNL     1      -2.438   2.683  -3.612  0.00  0.00    +0.015 A 
ATOM     27  C   UNL     1      -1.501   3.559  -3.061  0.00  0.00    +0.065 A 
ATOM     28  C   UNL     1      -0.758   3.166  -1.946  0.00  0.00    +0.043 A 
ATOM     29  C   UNL     1      -0.954   1.915  -1.397  0.00  0.00    +0.108 A 
ATOM     30  C   UNL     1      -1.880   1.050  -1.952  0.00  0.00    +0.028 A 
BRANCH  27  31
ATOM     31  C   UNL     1      -1.297   4.896  -3.654  0.00  0.00    +0.387 C 
ATOM     32  O   UNL     1      -0.481   5.656  -3.173  0.00  0.00    -0.241 OA
ATOM     33  O   UNL     1      -2.015   5.273  -4.730  0.00  0.00    -0.241 OA
ENDBRANCH  27  31
ENDBRANCH  22  29
ENDBRANCH  20  22
ENDBRANCH   1  20
TORSDOF 8
