REMARK  Name = ZINC24830570
REMARK  6 active torsions:
REMARK  status: ('A' for Active; 'I' for Inactive)
REMARK    1  A    between atoms: C_3  and  O_18
REMARK    2  A    between atoms: C_4  and  C_8
REMARK    3  A    between atoms: C_8  and  S_9
REMARK    4  A    between atoms: S_9  and  C_10
REMARK    5  A    between atoms: C_14  and  N_16
REMARK    6  A    between atoms: O_18  and  C_19
REMARK                            x       y       z     vdW  Elec       q    Type
REMARK                         _______ _______ _______ _____ _____    ______ ____
ROOT
ATOM      1  S   UNL     1       1.168   4.193   1.719  0.00  0.00    -0.081 S 
ENDROOT
BRANCH   1   2
ATOM      2  C   UNL     1       1.145   5.932   1.438  0.00  0.00    +0.192 A 
ATOM      3  N   UNL     1       1.133   6.384   0.193  0.00  0.00    -0.207 NA
ATOM      4  C   UNL     1       1.110   7.691  -0.057  0.00  0.00    +0.122 A 
ATOM      5  C   UNL     1       1.109   8.585   1.010  0.00  0.00    +0.086 A 
ATOM      6  C   UNL     1       1.127   8.073   2.304  0.00  0.00    +0.122 A 
ATOM      7  N   UNL     1       1.145   6.753   2.478  0.00  0.00    -0.207 NA
ATOM      8  N   UNL     1       1.092   8.156  -1.363  0.00  0.00    -0.343 N 
ATOM      9  H   UNL     1       1.073   9.238  -1.561  0.00  0.00    +0.144 HD
ATOM     10  H   UNL     1       1.097   7.444  -2.201  0.00  0.00    +0.144 HD
BRANCH   6  11
ATOM     11  N   UNL     1       1.127   8.926   3.397  0.00  0.00    -0.343 N 
ATOM     12  H   UNL     1       1.141   8.513   4.416  0.00  0.00    +0.144 HD
ATOM     13  H   UNL     1       1.112  10.015   3.244  0.00  0.00    +0.144 HD
ENDBRANCH   6  11
ENDBRANCH   1   2
BRANCH   1  14
ATOM     14  C   UNL     1       1.159   3.598   0.010  0.00  0.00    +0.116 C 
BRANCH  14  18
ATOM     15  C   UNL     1       1.208  -0.678  -0.013  0.00  0.00    +0.023 A 
ATOM     16  C   UNL     1       0.002  -0.004   0.002  0.00  0.00    +0.047 A 
ATOM     17  C   UNL     1      -0.017   1.383   0.010  0.00  0.00    +0.131 A 
ATOM     18  C   UNL     1       1.176   2.091   0.002  0.00  0.00    +0.006 A 
ATOM     19  C   UNL     1       2.380   1.414  -0.013  0.00  0.00    +0.028 A 
ATOM     20  C   UNL     1       2.397   0.030  -0.021  0.00  0.00    +0.041 A 
ATOM     21 CL   UNL     1       3.911  -0.818  -0.039  0.00  0.00    -0.084 Cl
BRANCH  17  22
ATOM     22  O   UNL     1      -1.202   2.047   0.019  0.00  0.00    -0.434 OA
BRANCH  22  23
ATOM     23  C   UNL     1      -2.391   1.254   0.020  0.00  0.00    +0.541 C 
ATOM     24  F   UNL     1      -2.418   0.452  -1.126  0.00  0.00    -0.166 F 
ATOM     25  F   UNL     1      -2.407   0.440   1.158  0.00  0.00    -0.166 F 
ENDBRANCH  22  23
ENDBRANCH  17  22
ENDBRANCH  14  18
ENDBRANCH   1  14
TORSDOF 6
