REMARK  Name = ZINC03398370
REMARK  4 active torsions:
REMARK  status: ('A' for Active; 'I' for Inactive)
REMARK    1  A    between atoms: C_3  and  S_6
REMARK    2  A    between atoms: S_6  and  N_9
REMARK    3  A    between atoms: N_9  and  C_10
REMARK    4  A    between atoms: C_13  and  C_16
REMARK                            x       y       z     vdW  Elec       q    Type
REMARK                         _______ _______ _______ _____ _____    ______ ____
ROOT
ATOM      1  C   UNL     1      -1.188   3.209  -1.548  0.00  0.00    +0.048 A 
ATOM      2  C   UNL     1      -1.573   3.998  -0.469  0.00  0.00    +0.025 A 
ATOM      3  C   UNL     1      -1.823   5.341  -0.651  0.00  0.00    +0.013 A 
ATOM      4  C   UNL     1      -1.699   5.907  -1.921  0.00  0.00    +0.019 A 
ATOM      5  C   UNL     1      -1.317   5.111  -3.003  0.00  0.00    +0.013 A 
ATOM      6  C   UNL     1      -1.064   3.770  -2.814  0.00  0.00    +0.025 A 
ENDROOT
BRANCH   4   7
ATOM      7  C   UNL     1      -1.971   7.346  -2.120  0.00  0.00    +0.164 A 
ATOM      8  N   UNL     1      -1.574   8.088  -3.134  0.00  0.00    -0.129 NA
ATOM      9  N   UNL     1      -2.001   9.293  -2.984  0.00  0.00    -0.134 NA
ATOM     10  C   UNL     1      -2.681   9.390  -1.877  0.00  0.00    +0.134 A 
ATOM     11  N   UNL     1      -2.678   8.164  -1.287  0.00  0.00    -0.311 N 
ATOM     12  C   UNL     1      -3.299   7.809  -0.011  0.00  0.00    +0.125 C 
ATOM     13  C   UNL     1      -4.497   8.728   0.242  0.00  0.00    +0.022 C 
ATOM     14  C   UNL     1      -4.039   9.981   0.987  0.00  0.00    +0.002 C 
ATOM     15  C   UNL     1      -3.028  10.762   0.153  0.00  0.00    +0.008 C 
ATOM     16  C   UNL     1      -3.366  10.617  -1.334  0.00  0.00    +0.076 C 
ENDBRANCH   4   7
BRANCH   1  17
ATOM     17  N   UNL     1      -0.930   1.851  -1.360  0.00  0.00    -0.216 N 
ATOM     18  H   UNL     1      -1.666   1.231  -1.231  0.00  0.00    +0.174 HD
BRANCH  17  19
ATOM     19  S   UNL     1       0.630   1.296  -1.356  0.00  0.00    +0.079 S 
ATOM     20  O   UNL     1       0.565  -0.096  -1.080  0.00  0.00    -0.149 OA
ATOM     21  O   UNL     1       1.247   1.813  -2.527  0.00  0.00    -0.149 OA
BRANCH  19  24
ATOM     22  C   UNL     1       2.307   2.330   2.192  0.00  0.00    +0.010 A 
ATOM     23  C   UNL     1       1.627   1.560   1.268  0.00  0.00    +0.036 A 
ATOM     24  C   UNL     1       1.445   2.044   0.015  0.00  0.00    +0.146 A 
ATOM     25  S   UNL     1       2.253   3.633   0.112  0.00  0.00    -0.077 S 
ATOM     26  C   UNL     1       2.771   3.548   1.819  0.00  0.00    +0.047 A 
ENDBRANCH  19  24
ENDBRANCH  17  19
ENDBRANCH   1  17
TORSDOF 4
