REMARK  Name = ZINC63201984
REMARK  3 active torsions:
REMARK  status: ('A' for Active; 'I' for Inactive)
REMARK    1  A    between atoms: C_3  and  N_19
REMARK    2  A    between atoms: C_4  and  N_8
REMARK    3  A    between atoms: C_9  and  C_11
REMARK                            x       y       z     vdW  Elec       q    Type
REMARK                         _______ _______ _______ _____ _____    ______ ____
ROOT
ATOM      1  N   UNL     1       3.623  -0.661  -0.037  0.00  0.00    -0.279 N 
ATOM      2  C   UNL     1       3.644  -2.005   0.057  0.00  0.00    +0.255 C 
ATOM      3  O   UNL     1       2.599  -2.631   0.065  0.00  0.00    -0.269 OA
ATOM      4  H   UNL     1       4.454  -0.168  -0.124  0.00  0.00    +0.155 HD
ENDROOT
BRANCH   2   5
ATOM      5  C   UNL     1       4.923  -2.714   0.150  0.00  0.00    +0.075 A 
ATOM      6  C   UNL     1       5.162  -4.069   0.247  0.00  0.00    +0.024 A 
ATOM      7  C   UNL     1       6.498  -4.470   0.324  0.00  0.00    -0.036 A 
ATOM      8  C   UNL     1       7.431  -3.485   0.297  0.00  0.00    -0.006 A 
ATOM      9  S   UNL     1       6.577  -2.051   0.161  0.00  0.00    -0.088 S 
ATOM     10  C   UNL     1       8.830  -4.038   0.392  0.00  0.00    +0.043 C 
ATOM     11  C   UNL     1       8.645  -5.478   0.919  0.00  0.00    +0.010 C 
ATOM     12  C   UNL     1       7.222  -5.815   0.434  0.00  0.00    +0.036 C 
ENDBRANCH   2   5
BRANCH   1  16
ATOM     13  C   UNL     1      -0.015   1.382   0.042  0.00  0.00    +0.040 A 
ATOM     14  C   UNL     1       1.082   1.957  -0.573  0.00  0.00    +0.027 A 
ATOM     15  C   UNL     1       2.293   1.283  -0.603  0.00  0.00    +0.046 A 
ATOM     16  C   UNL     1       2.402   0.025  -0.010  0.00  0.00    +0.057 A 
ATOM     17  C   UNL     1       1.298  -0.546   0.606  0.00  0.00    +0.063 A 
ATOM     18  C   UNL     1       0.092   0.133   0.630  0.00  0.00    +0.125 A 
ATOM     19  F   UNL     1      -0.983  -0.424   1.230  0.00  0.00    -0.205 F 
BRANCH  15  20
ATOM     20  N   UNL     1       3.404   1.864  -1.226  0.00  0.00    -0.357 N 
ATOM     21  H   UNL     1       3.327   2.738  -1.638  0.00  0.00    +0.142 HD
ATOM     22  H   UNL     1       4.251   1.391  -1.246  0.00  0.00    +0.142 HD
ENDBRANCH  15  20
ENDBRANCH   1  16
TORSDOF 3
