REMARK  Name = ZINC23000341
REMARK  7 active torsions:
REMARK  status: ('A' for Active; 'I' for Inactive)
REMARK    1  A    between atoms: C_4  and  C_7
REMARK    2  A    between atoms: C_10  and  S_13
REMARK    3  A    between atoms: S_13  and  N_16
REMARK    4  A    between atoms: N_16  and  C_17
REMARK    5  A    between atoms: C_17  and  C_18
REMARK    6  A    between atoms: N_21  and  C_24
REMARK    7  A    between atoms: C_24  and  C_25
REMARK                            x       y       z     vdW  Elec       q    Type
REMARK                         _______ _______ _______ _____ _____    ______ ____
ROOT
ATOM      1  N   UNL     1       1.411  -2.493  -2.484  0.00  0.00    -0.190 NA
ATOM      2  H   UNL     1       1.347  -1.875  -3.392  0.00  0.00    +0.148 HD
ENDROOT
BRANCH   1   3
ATOM      3  S   UNL     1       1.961  -4.051  -2.604  0.00  0.00    +0.058 S 
ATOM      4  O   UNL     1       2.450  -4.208  -3.928  0.00  0.00    -0.153 OA
ATOM      5  O   UNL     1       2.770  -4.285  -1.459  0.00  0.00    -0.153 OA
BRANCH   3   9
ATOM      6  C   UNL     1      -1.639  -6.775  -2.222  0.00  0.00    -0.018 A 
ATOM      7  C   UNL     1      -1.239  -6.317  -3.476  0.00  0.00    +0.010 A 
ATOM      8  C   UNL     1      -0.141  -5.487  -3.586  0.00  0.00    +0.029 A 
ATOM      9  C   UNL     1       0.560  -5.110  -2.455  0.00  0.00    +0.105 A 
ATOM     10  C   UNL     1       0.170  -5.566  -1.209  0.00  0.00    +0.029 A 
ATOM     11  C   UNL     1      -0.929  -6.391  -1.086  0.00  0.00    +0.010 A 
BRANCH   6  15
ATOM     12  C   UNL     1      -5.018  -9.332  -1.864  0.00  0.00    +0.000 A 
ATOM     13  C   UNL     1      -4.316  -8.955  -0.733  0.00  0.00    +0.001 A 
ATOM     14  C   UNL     1      -3.219  -8.125  -0.844  0.00  0.00    +0.008 A 
ATOM     15  C   UNL     1      -2.818  -7.667  -2.097  0.00  0.00    -0.018 A 
ATOM     16  C   UNL     1      -3.532  -8.046  -3.233  0.00  0.00    +0.008 A 
ATOM     17  C   UNL     1      -4.625  -8.880  -3.111  0.00  0.00    +0.001 A 
ENDBRANCH   6  15
ENDBRANCH   3   9
ENDBRANCH   1   3
BRANCH   1  18
ATOM     18  C   UNL     1       0.815  -2.021  -1.232  0.00  0.00    +0.109 C 
BRANCH  18  19
ATOM     19  C   UNL     1       0.738  -0.493  -1.249  0.00  0.00    +0.001 C 
ATOM     20  C   UNL     1       0.002  -0.004   0.002  0.00  0.00    -0.014 C 
ATOM     21  C   UNL     1      -0.019   1.526   0.010  0.00  0.00    -0.078 C 
ATOM     22  N   UNL     1       1.359   2.036   0.000  0.00  0.00    +0.384 N 
ATOM     23  C   UNL     1       2.070   1.619  -1.215  0.00  0.00    -0.078 C 
ATOM     24  C   UNL     1       2.153   0.091  -1.260  0.00  0.00    -0.014 C 
ATOM     25  H   UNL     1       1.884   1.600   0.863  0.00  0.00    -0.081 HD
BRANCH  22  26
ATOM     26  C   UNL     1       1.380   3.497   0.147  0.00  0.00    -0.003 C 
BRANCH  26  27
ATOM     27  C   UNL     1       2.796   3.958   0.378  0.00  0.00    +0.089 A 
ATOM     28  C   UNL     1       3.677   4.304  -0.578  0.00  0.00    +0.042 A 
ATOM     29  C   UNL     1       4.874   4.668   0.080  0.00  0.00    +0.041 A 
ATOM     30  C   UNL     1       4.654   4.522   1.399  0.00  0.00    +0.195 A 
ATOM     31  O   UNL     1       3.392   4.097   1.574  0.00  0.00    -0.470 OA
ENDBRANCH  26  27
ENDBRANCH  22  26
ENDBRANCH  18  19
ENDBRANCH   1  18
TORSDOF 7
