REMARK  Name = ZINC59875287
REMARK  7 active torsions:
REMARK  status: ('A' for Active; 'I' for Inactive)
REMARK    1  A    between atoms: C_1  and  C_2
REMARK    2  A    between atoms: C_2  and  C_3
REMARK    3  A    between atoms: C_2  and  C_4
REMARK    4  A    between atoms: C_4  and  C_6
REMARK    5  A    between atoms: C_4  and  N_25
REMARK    6  A    between atoms: C_11  and  N_14
REMARK    7  A    between atoms: C_26  and  C_28
REMARK                            x       y       z     vdW  Elec       q    Type
REMARK                         _______ _______ _______ _____ _____    ______ ____
ROOT
ATOM      1  C   UNL     1      -2.204  -0.004  -1.034  0.00  0.00    +0.236 C 
ATOM      2  O   UNL     1      -2.825  -0.790  -1.718  0.00  0.00    -0.274 OA
ATOM      3  N   UNL     1      -2.259   1.315  -1.305  0.00  0.00    -0.300 N 
ATOM      4  C   UNL     1      -1.596   2.287  -0.426  0.00  0.00    +0.110 C 
ATOM      5  C   UNL     1      -0.670   3.166  -1.273  0.00  0.00    +0.044 C 
ATOM      6  C   UNL     1      -1.473   3.795  -2.413  0.00  0.00    +0.095 C 
ATOM      7  C   UNL     1      -2.043   2.692  -3.308  0.00  0.00    +0.044 C 
ATOM      8  C   UNL     1      -2.979   1.807  -2.487  0.00  0.00    +0.110 C 
ENDROOT
BRANCH   6   9
ATOM      9  N   UNL     1      -0.598   4.662  -3.206  0.00  0.00    -0.289 N 
ATOM     10  C   UNL     1      -0.768   6.030  -3.404  0.00  0.00    +0.070 A 
ATOM     11  C   UNL     1      -1.717   6.944  -2.970  0.00  0.00    +0.028 A 
ATOM     12  C   UNL     1      -1.616   8.270  -3.342  0.00  0.00    +0.002 A 
ATOM     13  C   UNL     1      -0.572   8.691  -4.148  0.00  0.00    +0.002 A 
ATOM     14  C   UNL     1       0.378   7.788  -4.586  0.00  0.00    +0.028 A 
ATOM     15  C   UNL     1       0.285   6.455  -4.216  0.00  0.00    +0.067 A 
ATOM     16  N   UNL     1       1.063   5.332  -4.487  0.00  0.00    -0.306 N 
ATOM     17  H   UNL     1       1.867   5.315  -5.028  0.00  0.00    +0.170 HD
ATOM     18  C   UNL     1       0.511   4.274  -3.862  0.00  0.00    +0.328 A 
ATOM     19  O   UNL     1       0.948   3.138  -3.890  0.00  0.00    -0.247 OA
ENDBRANCH   6   9
BRANCH   1  20
ATOM     20  C   UNL     1      -1.370  -0.503   0.117  0.00  0.00    +0.162 C 
BRANCH  20  21
ATOM     21  N   UNL     1      -2.030  -1.656   0.735  0.00  0.00    -0.300 N 
ATOM     22  C   UNL     1      -1.785  -1.961   2.025  0.00  0.00    +0.245 C 
ATOM     23  O   UNL     1      -1.017  -1.280   2.676  0.00  0.00    -0.270 OA
ATOM     24  H   UNL     1      -2.643  -2.200   0.216  0.00  0.00    +0.150 HD
BRANCH  22  25
ATOM     25  C   UNL     1      -2.451  -3.124   2.648  0.00  0.00    +0.037 A 
ATOM     26  C   UNL     1      -3.329  -3.912   1.902  0.00  0.00    +0.014 A 
ATOM     27  C   UNL     1      -3.947  -4.996   2.489  0.00  0.00    +0.021 A 
ATOM     28  C   UNL     1      -3.699  -5.303   3.816  0.00  0.00    +0.041 A 
ATOM     29  C   UNL     1      -2.828  -4.526   4.562  0.00  0.00    +0.021 A 
ATOM     30  C   UNL     1      -2.200  -3.442   3.984  0.00  0.00    +0.014 A 
ATOM     31 CL   UNL     1      -4.481  -6.669   4.548  0.00  0.00    -0.084 Cl
ENDBRANCH  22  25
ENDBRANCH  20  21
BRANCH  20  33
ATOM     32  C   UNL     1       0.720   0.295  -0.995  0.00  0.00    +0.009 C 
ATOM     33  C   UNL     1       0.010  -0.920  -0.396  0.00  0.00    +0.012 C 
ATOM     34  C   UNL     1       0.839  -1.475   0.765  0.00  0.00    +0.009 C 
ENDBRANCH  20  33
ENDBRANCH   1  20
TORSDOF 5
