REMARK  Name = ZINC15827117
REMARK  8 active torsions:
REMARK  status: ('A' for Active; 'I' for Inactive)
REMARK    1  A    between atoms: C_1  and  C_2
REMARK    2  A    between atoms: C_2  and  C_3
REMARK    3  A    between atoms: C_3  and  C_5
REMARK    4  A    between atoms: C_3  and  N_6
REMARK    5  A    between atoms: C_7  and  C_9
REMARK    6  A    between atoms: C_9  and  N_10
REMARK    7  A    between atoms: N_20  and  C_23
REMARK    8  A    between atoms: C_28  and  C_29
REMARK                            x       y       z     vdW  Elec       q    Type
REMARK                         _______ _______ _______ _____ _____    ______ ____
ROOT
ATOM      1  N   UNL     1       2.348   3.893   0.001  0.00  0.00    -0.243 N 
ATOM      2  C   UNL     1       1.169   3.163  -0.001  0.00  0.00    +0.065 A 
ATOM      3  C   UNL     1       1.179   1.773  -0.016  0.00  0.00    +0.025 A 
ATOM      4  C   UNL     1      -0.013   1.076  -0.017  0.00  0.00    +0.002 A 
ATOM      5  C   UNL     1      -1.225   1.742  -0.009  0.00  0.00    +0.002 A 
ATOM      6  C   UNL     1      -1.248   3.129   0.012  0.00  0.00    +0.031 A 
ATOM      7  C   UNL     1      -0.067   3.814   0.013  0.00  0.00    +0.131 A 
ATOM      8  S   UNL     1       0.016   5.587   0.033  0.00  0.00    +0.084 S 
ATOM      9  O   UNL     1      -0.538   5.984   1.280  0.00  0.00    -0.149 OA
ATOM     10  O   UNL     1      -0.550   6.010  -1.200  0.00  0.00    -0.149 OA
ATOM     11  N   UNL     1       1.595   6.162   0.031  0.00  0.00    -0.123 N 
ATOM     12  C   UNL     1       2.549   5.202   0.015  0.00  0.00    +0.333 C 
ATOM     13  O   UNL     1       3.705   5.578   0.014  0.00  0.00    -0.250 OA
ENDROOT
BRANCH  11  14
ATOM     14  C   UNL     1       1.899   7.527   0.046  0.00  0.00    +0.064 A 
ATOM     15  C   UNL     1       2.147   8.198  -1.145  0.00  0.00    +0.025 A 
ATOM     16  C   UNL     1       2.447   9.546  -1.127  0.00  0.00    +0.002 A 
ATOM     17  C   UNL     1       2.501  10.228   0.074  0.00  0.00    +0.000 A 
ATOM     18  C   UNL     1       2.254   9.563   1.262  0.00  0.00    +0.005 A 
ATOM     19  C   UNL     1       1.949   8.216   1.250  0.00  0.00    -0.027 A 
ATOM     20  C   UNL     1       1.675   7.494   2.544  0.00  0.00    +0.046 C 
ENDBRANCH  11  14
BRANCH   1  21
ATOM     21  C   UNL     1       3.570   3.085  -0.014  0.00  0.00    +0.211 C 
BRANCH  21  23
ATOM     22  N   UNL     1       4.999   1.965  -1.694  0.00  0.00    -0.311 N 
ATOM     23  C   UNL     1       3.908   2.713  -1.435  0.00  0.00    +0.231 C 
ATOM     24  O   UNL     1       3.198   3.085  -2.345  0.00  0.00    -0.274 OA
ATOM     25  H   UNL     1       5.567   1.667  -0.966  0.00  0.00    +0.149 HD
BRANCH  22  26
ATOM     26  C   UNL     1       5.328   1.603  -3.074  0.00  0.00    +0.070 C 
ATOM     27  C   UNL     1       6.130   2.734  -3.721  0.00  0.00    +0.028 C 
BRANCH  26  29
ATOM     28  C   UNL     1       5.316  -0.839  -2.548  0.00  0.00    +0.005 C 
ATOM     29  C   UNL     1       6.161   0.320  -3.080  0.00  0.00    +0.018 C 
ENDBRANCH  26  29
ENDBRANCH  22  26
ENDBRANCH  21  23
ENDBRANCH   1  21
TORSDOF 5
