REMARK  Name = ZINC62765351
REMARK  4 active torsions:
REMARK  status: ('A' for Active; 'I' for Inactive)
REMARK    1  A    between atoms: C_1  and  C_2
REMARK    2  A    between atoms: C_7  and  S_10
REMARK    3  A    between atoms: S_10  and  C_11
REMARK    4  A    between atoms: C_18  and  C_20
REMARK                            x       y       z     vdW  Elec       q    Type
REMARK                         _______ _______ _______ _____ _____    ______ ____
ROOT
ATOM      1  S   UNL     1       0.259   2.556  -4.883  0.00  0.00    -0.084 S 
ENDROOT
BRANCH   1   8
ATOM      2  C   UNL     1      -0.013   1.086   0.008  0.00  0.00    +0.066 C 
ATOM      3  C   UNL     1      -0.742   1.585  -1.213  0.00  0.00    +0.046 A 
ATOM      4  C   UNL     1      -2.090   1.794  -1.164  0.00  0.00    +0.093 A 
ATOM      5  C   UNL     1      -2.748   2.260  -2.315  0.00  0.00    +0.252 A 
ATOM      6  O   UNL     1      -3.952   2.457  -2.306  0.00  0.00    -0.268 OA
ATOM      7  N   UNL     1      -2.023   2.485  -3.431  0.00  0.00    -0.302 N 
ATOM      8  C   UNL     1      -0.680   2.259  -3.422  0.00  0.00    +0.169 A 
ATOM      9  N   UNL     1      -0.069   1.827  -2.335  0.00  0.00    -0.228 NA
ATOM     10  H   UNL     1      -2.457   2.806  -4.237  0.00  0.00    +0.171 HD
ENDBRANCH   1   8
BRANCH   1  11
ATOM     11  C   UNL     1       1.957   2.127  -4.409  0.00  0.00    +0.068 C 
ATOM     12  C   UNL     1       2.012   0.662  -4.071  0.00  0.00    +0.015 C 
ATOM     13  C   UNL     1       3.023   0.462  -2.923  0.00  0.00    +0.001 C 
ATOM     14  C   UNL     1       4.401   0.453  -3.391  0.00  0.00    +0.000 C 
ATOM     15  C   UNL     1       4.807   1.788  -4.048  0.00  0.00    +0.001 C 
ATOM     16  C   UNL     1       4.278   1.808  -5.457  0.00  0.00    +0.016 C 
ATOM     17  C   UNL     1       2.906   2.500  -5.563  0.00  0.00    +0.115 C 
BRANCH  17  18
ATOM     18  C   UNL     1       2.262   2.109  -6.868  0.00  0.00    +0.360 C 
ATOM     19  O   UNL     1       2.356   2.842  -7.838  0.00  0.00    -0.246 OA
ATOM     20  O   UNL     1       1.647   1.060  -6.954  0.00  0.00    -0.246 OA
ENDBRANCH  17  18
ENDBRANCH   1  11
TORSDOF 3
