REMARK  Name = ZINC08451120
REMARK  8 active torsions:
REMARK  status: ('A' for Active; 'I' for Inactive)
REMARK    1  A    between atoms: C_1  and  N_54
REMARK    2  A    between atoms: C_6  and  C_27
REMARK    3  A    between atoms: C_7  and  C_25
REMARK    4  A    between atoms: C_8  and  S_10
REMARK    5  A    between atoms: S_10  and  C_11
REMARK    6  A    between atoms: C_11  and  C_12
REMARK    7  A    between atoms: N_14  and  C_15
REMARK    8  A    between atoms: C_16  and  C_23
REMARK                            x       y       z     vdW  Elec       q    Type
REMARK                         _______ _______ _______ _____ _____    ______ ____
ROOT
ATOM      1  C   UNL     1       3.702  -0.500   0.250  0.00  0.00    -0.096 C 
ATOM      2  C   UNL     1       1.378  -0.506  -0.436  0.00  0.00    -0.073 C 
ATOM      3  C   UNL     1       0.002  -0.004   0.002  0.00  0.00    +0.037 C 
ATOM      4  C   UNL     1      -0.018   1.505   0.010  0.00  0.00    +0.043 A 
ATOM      5  C   UNL     1       1.147   2.236   0.003  0.00  0.00    -0.034 A 
ATOM      6  C   UNL     1       1.081   3.636   0.017  0.00  0.00    +0.006 A 
ATOM      7  C   UNL     1      -0.188   4.250   0.035  0.00  0.00    +0.091 A 
ATOM      8  C   UNL     1      -1.327   3.426   0.037  0.00  0.00    +0.116 A 
ATOM      9  N   UNL     1      -1.199   2.111   0.030  0.00  0.00    -0.244 NA
ATOM     10  C   UNL     1       2.503   1.584  -0.022  0.00  0.00    -0.041 C 
ATOM     11  N   UNL     1       2.392   0.175   0.393  0.00  0.00    +0.381 N 
ATOM     12  H   UNL     1       2.102   0.137   1.377  0.00  0.00    -0.082 HD
ENDROOT
BRANCH   6  13
ATOM     13  C   UNL     1       2.316   4.451   0.012  0.00  0.00    -0.009 A 
ATOM     14  C   UNL     1       2.642   5.262   1.099  0.00  0.00    +0.016 A 
ATOM     15  C   UNL     1       3.788   5.975   1.029  0.00  0.00    +0.046 A 
ATOM     16  S   UNL     1       4.419   5.527  -0.577  0.00  0.00    -0.104 S 
ATOM     17  C   UNL     1       3.163   4.434  -1.061  0.00  0.00    +0.053 A 
ENDBRANCH   6  13
BRANCH   7  18
ATOM     18  C   UNL     1      -0.314   5.676   0.051  0.00  0.00    +0.102 C 
ATOM     19  N   UNL     1      -0.413   6.808   0.063  0.00  0.00    -0.191 NA
ENDBRANCH   7  18
BRANCH   8  20
ATOM     20  S   UNL     1      -2.933   4.151   0.056  0.00  0.00    -0.095 S 
BRANCH  20  21
ATOM     21  C   UNL     1      -3.952   2.655   0.052  0.00  0.00    +0.172 C 
BRANCH  21  22
ATOM     22  C   UNL     1      -5.409   3.040   0.067  0.00  0.00    +0.228 C 
ATOM     23  O   UNL     1      -5.727   4.211   0.079  0.00  0.00    -0.275 OA
ATOM     24  N   UNL     1      -6.359   2.084   0.067  0.00  0.00    -0.278 N 
ATOM     25  H   UNL     1      -6.105   1.148   0.058  0.00  0.00    +0.155 HD
BRANCH  24  26
ATOM     26  C   UNL     1      -7.701   2.439   0.081  0.00  0.00    +0.090 A 
ATOM     27  C   UNL     1      -8.809   1.611   0.077  0.00  0.00    +0.084 A 
ATOM     28  C   UNL     1     -10.127   2.243   0.098  0.00  0.00    -0.018 A 
ATOM     29  C   UNL     1     -10.116   3.589   0.109  0.00  0.00    -0.004 A 
ATOM     30  S   UNL     1      -8.394   4.025   0.098  0.00  0.00    -0.077 S 
ATOM     31  C   UNL     1     -11.506   4.165   0.128  0.00  0.00    +0.043 C 
ATOM     32  C   UNL     1     -12.408   2.989   0.564  0.00  0.00    +0.010 C 
ATOM     33  C   UNL     1     -11.582   1.771   0.104  0.00  0.00    +0.037 C 
BRANCH  27  34
ATOM     34  C   UNL     1      -8.670   0.186   0.059  0.00  0.00    +0.102 C 
ATOM     35  N   UNL     1      -8.560  -0.945   0.044  0.00  0.00    -0.191 NA
ENDBRANCH  27  34
ENDBRANCH  24  26
ENDBRANCH  21  22
ENDBRANCH  20  21
ENDBRANCH   8  20
TORSDOF 7
