REMARK  Name = ZINC36557527
REMARK  14 active torsions:
REMARK  status: ('A' for Active; 'I' for Inactive)
REMARK    1  A    between atoms: C_1  and  C_2
REMARK    2  A    between atoms: C_2  and  C_3
REMARK    3  A    between atoms: C_3  and  C_4
REMARK    4  A    between atoms: C_4  and  C_5
REMARK    5  A    between atoms: C_5  and  C_6
REMARK    6  A    between atoms: C_7  and  C_8
REMARK    7  A    between atoms: N_10  and  C_11
REMARK    8  A    between atoms: N_10  and  C_18
REMARK    9  A    between atoms: C_11  and  C_12
REMARK   10  A    between atoms: C_15  and  C_17
REMARK   11  A    between atoms: C_18  and  C_20
REMARK   12  A    between atoms: C_18  and  C_30
REMARK   13  A    between atoms: C_22  and  N_27
REMARK   14  A    between atoms: N_32  and  C_33
REMARK                            x       y       z     vdW  Elec       q    Type
REMARK                         _______ _______ _______ _____ _____    ______ ____
ROOT
ATOM      1  C   UNL     1      -0.917  -3.916  -6.770  0.00  0.00    +0.194 C 
ENDROOT
BRANCH   1   2
ATOM      2  C   UNL     1       0.254  -3.377  -7.550  0.00  0.00    +0.002 A 
ATOM      3  C   UNL     1       0.637  -2.057  -7.397  0.00  0.00    +0.040 A 
ATOM      4  C   UNL     1       1.711  -1.562  -8.113  0.00  0.00    +0.127 A 
ATOM      5  C   UNL     1       2.403  -2.386  -8.982  0.00  0.00    +0.034 A 
ATOM      6  C   UNL     1       2.021  -3.705  -9.135  0.00  0.00    +0.022 A 
ATOM      7  C   UNL     1       0.949  -4.203  -8.414  0.00  0.00    +0.047 A 
ATOM      8 CL   UNL     1       0.473  -5.862  -8.600  0.00  0.00    -0.083 Cl
BRANCH   4   9
ATOM      9  N   UNL     1       2.121  -0.149  -7.950  0.00  0.00    +0.056 N 
ATOM     10  O   UNL     1       1.578   0.546  -7.123  0.00  0.00    -0.126 OA
ATOM     11  O   UNL     1       2.998   0.310  -8.643  0.00  0.00    -0.126 OA
ENDBRANCH   4   9
ENDBRANCH   1   2
BRANCH   1  12
ATOM     12  C   UNL     1      -1.709  -2.770  -6.196  0.00  0.00    +0.238 C 
ATOM     13  O   UNL     1      -1.739  -2.594  -4.996  0.00  0.00    -0.273 OA
ATOM     14  N   UNL     1      -2.385  -1.940  -7.016  0.00  0.00    -0.311 N 
ATOM     15  H   UNL     1      -2.421  -2.123  -7.968  0.00  0.00    +0.149 HD
BRANCH  14  16
ATOM     16  C   UNL     1      -3.064  -0.763  -6.469  0.00  0.00    +0.073 C 
ATOM     17  C   UNL     1      -4.453  -1.162  -5.968  0.00  0.00    +0.022 C 
ATOM     18  C   UNL     1      -5.162   0.068  -5.398  0.00  0.00    +0.002 C 
ATOM     19  C   UNL     1      -5.300   1.130  -6.490  0.00  0.00    +0.000 C 
ATOM     20  C   UNL     1      -3.910   1.529  -6.990  0.00  0.00    +0.002 C 
ATOM     21  C   UNL     1      -3.201   0.300  -7.561  0.00  0.00    +0.022 C 
ENDBRANCH  14  16
ENDBRANCH   1  12
BRANCH   1  24
ATOM     22  C   UNL     1       0.476  -4.285  -4.805  0.00  0.00    +0.240 C 
ATOM     23  O   UNL     1       0.887  -3.146  -4.918  0.00  0.00    -0.271 OA
ATOM     24  N   UNL     1      -0.429  -4.766  -5.681  0.00  0.00    -0.275 N 
BRANCH  22  26
ATOM     25  C   UNL     1       1.740  -4.622  -2.761  0.00  0.00    -0.022 C 
ATOM     26  C   UNL     1       0.966  -5.138  -3.711  0.00  0.00    +0.063 C 
BRANCH  25  27
ATOM     27  C   UNL     1       1.836  -3.127  -2.597  0.00  0.00    +0.027 C 
BRANCH  27  28
ATOM     28  C   UNL     1       1.595  -2.758  -1.132  0.00  0.00    +0.004 C 
BRANCH  28  29
ATOM     29  C   UNL     1       1.692  -1.240  -0.965  0.00  0.00    +0.000 C 
BRANCH  29  31
ATOM     30  C   UNL     1       1.548   0.646   0.667  0.00  0.00    +0.004 C 
ATOM     31  C   UNL     1       1.450  -0.872   0.500  0.00  0.00    -0.003 C 
ENDBRANCH  29  31
ENDBRANCH  28  29
ENDBRANCH  27  28
ENDBRANCH  25  27
ENDBRANCH  22  26
BRANCH  24  32
ATOM     32  C   UNL     1      -0.924  -6.138  -5.544  0.00  0.00    +0.183 C 
BRANCH  32  33
ATOM     33  C   UNL     1      -2.066  -6.164  -4.561  0.00  0.00    +0.122 A 
ATOM     34  C   UNL     1      -3.373  -6.098  -4.872  0.00  0.00    +0.046 A 
ATOM     35  C   UNL     1      -4.088  -6.155  -3.654  0.00  0.00    +0.045 A 
ATOM     36  C   UNL     1      -3.175  -6.252  -2.671  0.00  0.00    +0.102 A 
ATOM     37  O   UNL     1      -1.952  -6.263  -3.227  0.00  0.00    -0.463 OA
ATOM     38  C   UNL     1      -3.473  -6.339  -1.196  0.00  0.00    +0.086 C 
ENDBRANCH  32  33
ENDBRANCH  24  32
ENDBRANCH   1  24
TORSDOF 12
