REMARK  Name = ZINC36895226
REMARK  7 active torsions:
REMARK  status: ('A' for Active; 'I' for Inactive)
REMARK    1  A    between atoms: C_1  and  C_2
REMARK    2  A    between atoms: C_7  and  C_9
REMARK    3  A    between atoms: C_7  and  C_10
REMARK    4  A    between atoms: N_13  and  C_17
REMARK    5  A    between atoms: C_17  and  C_18
REMARK    6  A    between atoms: N_20  and  N_21
REMARK    7  A    between atoms: C_22  and  C_24
REMARK                            x       y       z     vdW  Elec       q    Type
REMARK                         _______ _______ _______ _____ _____    ______ ____
ROOT
ATOM      1  C   UNL     1      -0.019   1.528   0.010  0.00  0.00    +0.007 C 
ATOM      2  C   UNL     1       0.002  -0.004   0.002  0.00  0.00    -0.011 C 
ATOM      3  C   UNL     1       0.726  -0.492  -1.255  0.00  0.00    +0.038 C 
ATOM      4  C   UNL     1       0.711  -2.014  -1.298  0.00  0.00    +0.113 C 
ATOM      5  C   UNL     1       1.264  -2.646  -0.036  0.00  0.00    +0.041 C 
ATOM      6  C   UNL     1       0.787  -2.030   1.268  0.00  0.00    -0.032 C 
ATOM      7  C   UNL     1       0.764  -0.507   1.226  0.00  0.00    +0.009 C 
ATOM      8  C   UNL     1      -0.596  -2.567   1.647  0.00  0.00    +0.011 C 
ATOM      9  C   UNL     1       1.769  -2.455   2.382  0.00  0.00    +0.011 C 
ATOM     10  C   UNL     1      -0.665  -2.529  -1.638  0.00  0.00    +0.247 C 
ATOM     11  O   UNL     1      -1.716  -2.282  -1.086  0.00  0.00    -0.273 OA
ATOM     12  N   UNL     1      -0.504  -3.320  -2.721  0.00  0.00    -0.215 N 
ATOM     13  C   UNL     1       0.750  -3.268  -3.183  0.00  0.00    +0.310 C 
ATOM     14  O   UNL     1       1.137  -3.883  -4.158  0.00  0.00    -0.252 OA
ATOM     15  N   UNL     1       1.532  -2.462  -2.446  0.00  0.00    -0.285 N 
ATOM     16  H   UNL     1       2.452  -2.214  -2.618  0.00  0.00    +0.151 HD
ENDROOT
BRANCH  12  17
ATOM     17  C   UNL     1      -1.571  -4.131  -3.313  0.00  0.00    +0.215 C 
BRANCH  17  18
ATOM     18  C   UNL     1      -2.293  -3.324  -4.361  0.00  0.00    +0.247 C 
ATOM     19  O   UNL     1      -1.950  -2.184  -4.591  0.00  0.00    -0.273 OA
ATOM     20  N   UNL     1      -3.319  -3.870  -5.043  0.00  0.00    -0.233 N 
ATOM     21  H   UNL     1      -3.593  -4.782  -4.859  0.00  0.00    +0.173 HD
BRANCH  20  22
ATOM     22  N   UNL     1      -3.990  -3.119  -6.018  0.00  0.00    -0.230 N 
ATOM     23  C   UNL     1      -5.017  -3.665  -6.700  0.00  0.00    +0.260 C 
ATOM     24  O   UNL     1      -5.360  -4.808  -6.469  0.00  0.00    -0.269 OA
ATOM     25  H   UNL     1      -3.716  -2.207  -6.202  0.00  0.00    +0.173 HD
BRANCH  23  26
ATOM     26  C   UNL     1      -5.725  -2.874  -7.728  0.00  0.00    +0.040 A 
ATOM     27  C   UNL     1      -5.329  -1.563  -7.999  0.00  0.00    +0.013 A 
ATOM     28  C   UNL     1      -5.994  -0.829  -8.960  0.00  0.00    +0.002 A 
ATOM     29  C   UNL     1      -7.051  -1.389  -9.655  0.00  0.00    +0.020 A 
ATOM     30  C   UNL     1      -7.449  -2.689  -9.392  0.00  0.00    +0.042 A 
ATOM     31  C   UNL     1      -6.788  -3.436  -8.436  0.00  0.00    +0.033 A 
ATOM     32 CL   UNL     1      -8.776  -3.383 -10.269  0.00  0.00    -0.084 Cl
ENDBRANCH  23  26
ENDBRANCH  20  22
ENDBRANCH  17  18
ENDBRANCH  12  17
TORSDOF 4
