REMARK  Name = ZINC09194577
REMARK  4 active torsions:
REMARK  status: ('A' for Active; 'I' for Inactive)
REMARK    1  A    between atoms: C_1  and  C_2
REMARK    2  A    between atoms: C_2  and  C_3
REMARK    3  A    between atoms: C_12  and  C_14
REMARK    4  A    between atoms: C_22  and  C_26
REMARK                            x       y       z     vdW  Elec       q    Type
REMARK                         _______ _______ _______ _____ _____    ______ ____
ROOT
ATOM      1  C   UNL     1      -2.600   4.032   0.048  0.00  0.00    +0.285 C 
ATOM      2  O   UNL     1      -2.697   5.244   0.055  0.00  0.00    -0.266 OA
ATOM      3  N   UNL     1      -3.710   3.267   0.055  0.00  0.00    -0.258 N 
ATOM      4  C   UNL     1      -4.959   3.861   0.070  0.00  0.00    +0.166 A 
ATOM      5  N   UNL     1      -5.265   5.138   0.079  0.00  0.00    -0.225 NA
ATOM      6  C   UNL     1      -6.541   5.579   0.093  0.00  0.00    +0.080 A 
ATOM      7  C   UNL     1      -7.002   6.916   0.104  0.00  0.00    +0.029 A 
ATOM      8  C   UNL     1      -8.344   7.193   0.118  0.00  0.00    +0.005 A 
ATOM      9  C   UNL     1      -9.294   6.181   0.123  0.00  0.00    -0.049 A 
ATOM     10  C   UNL     1      -8.878   4.862   0.112  0.00  0.00    +0.020 A 
ATOM     11  C   UNL     1      -7.536   4.575   0.098  0.00  0.00    +0.041 A 
ATOM     12  S   UNL     1      -6.569   3.084   0.074  0.00  0.00    -0.052 S 
ATOM     13  C   UNL     1     -10.763   6.516   0.138  0.00  0.00    +0.044 C 
ATOM     14  H   UNL     1      -3.632   2.300   0.049  0.00  0.00    +0.157 HD
ENDROOT
BRANCH   1  24
ATOM     15  C   UNL     1       2.406   0.025  -0.021  0.00  0.00    -0.047 A 
ATOM     16  C   UNL     1       1.207  -0.673  -0.013  0.00  0.00    +0.007 A 
ATOM     17  C   UNL     1       0.002  -0.004   0.002  0.00  0.00    +0.047 A 
ATOM     18  C   UNL     1      -0.017   1.387   0.010  0.00  0.00    +0.139 A 
ATOM     19  C   UNL     1       1.202   2.087   0.002  0.00  0.00    +0.064 A 
ATOM     20  C   UNL     1       2.411   1.392  -0.013  0.00  0.00    +0.019 A 
ATOM     21  C   UNL     1       1.165   3.562   0.010  0.00  0.00    +0.193 A 
ATOM     22  O   UNL     1       2.186   4.226   0.004  0.00  0.00    -0.287 OA
ATOM     23  C   UNL     1      -0.164   4.191   0.026  0.00  0.00    +0.103 A 
ATOM     24  C   UNL     1      -1.262   3.397   0.032  0.00  0.00    +0.194 A 
ATOM     25  O   UNL     1      -1.185   2.058   0.019  0.00  0.00    -0.450 OA
BRANCH  15  27
ATOM     26  C   UNL     1       4.139  -0.977  -1.485  0.00  0.00    +0.009 C 
ATOM     27  C   UNL     1       3.711  -0.729  -0.037  0.00  0.00    +0.032 C 
ENDBRANCH  15  27
ENDBRANCH   1  24
TORSDOF 2
