REMARK  Name = ZINC59131785
REMARK  5 active torsions:
REMARK  status: ('A' for Active; 'I' for Inactive)
REMARK    1  A    between atoms: C_4  and  N_17
REMARK    2  A    between atoms: C_5  and  C_7
REMARK    3  A    between atoms: N_9  and  C_10
REMARK    4  A    between atoms: C_18  and  C_20
REMARK    5  A    between atoms: N_25  and  C_27
REMARK                            x       y       z     vdW  Elec       q    Type
REMARK                         _______ _______ _______ _____ _____    ______ ____
ROOT
ATOM      1  C   UNL     1      -0.105   1.238  -0.072  0.00  0.00    +0.001 A 
ATOM      2  C   UNL     1       0.949   1.921   0.514  0.00  0.00    +0.002 A 
ATOM      3  C   UNL     1       2.216   1.373   0.524  0.00  0.00    +0.024 A 
ATOM      4  C   UNL     1       2.442   0.132  -0.055  0.00  0.00    +0.046 A 
ATOM      5  C   UNL     1       1.377  -0.562  -0.649  0.00  0.00    +0.058 A 
ATOM      6  C   UNL     1       0.100   0.005  -0.651  0.00  0.00    +0.015 A 
ENDROOT
BRANCH   5   7
ATOM      7  C   UNL     1       1.604  -1.881  -1.268  0.00  0.00    +0.250 C 
ATOM      8  O   UNL     1       2.695  -2.412  -1.185  0.00  0.00    -0.270 OA
ATOM      9  N   UNL     1       0.603  -2.498  -1.925  0.00  0.00    -0.281 N 
ATOM     10  H   UNL     1      -0.241  -2.040  -2.065  0.00  0.00    +0.155 HD
BRANCH   9  11
ATOM     11  C   UNL     1       0.779  -3.800  -2.405  0.00  0.00    +0.034 A 
ATOM     12  C   UNL     1       0.046  -4.244  -3.498  0.00  0.00    +0.025 A 
ATOM     13  C   UNL     1       0.223  -5.530  -3.971  0.00  0.00    +0.022 A 
ATOM     14  C   UNL     1       1.130  -6.376  -3.357  0.00  0.00    +0.041 A 
ATOM     15  C   UNL     1       1.862  -5.936  -2.268  0.00  0.00    +0.022 A 
ATOM     16  C   UNL     1       1.693  -4.650  -1.794  0.00  0.00    +0.025 A 
ATOM     17 CL   UNL     1       1.349  -7.991  -3.953  0.00  0.00    -0.084 Cl
ENDBRANCH   9  11
ENDBRANCH   5   7
BRANCH   4  18
ATOM     18  N   UNL     1       3.720  -0.422  -0.046  0.00  0.00    -0.285 N 
ATOM     19  C   UNL     1       4.801   0.375  -0.168  0.00  0.00    +0.222 C 
ATOM     20  O   UNL     1       4.665   1.579  -0.200  0.00  0.00    -0.275 OA
ATOM     21  H   UNL     1       3.833  -1.381   0.047  0.00  0.00    +0.155 HD
BRANCH  19  22
ATOM     22  C   UNL     1       6.177  -0.232  -0.264  0.00  0.00    +0.102 C 
ATOM     23  C   UNL     1       6.546  -0.976   1.040  0.00  0.00    +0.110 C 
ATOM     24  C   UNL     1       8.022  -0.700   1.221  0.00  0.00    +0.221 C 
ATOM     25  O   UNL     1       8.760  -1.319   1.958  0.00  0.00    -0.275 OA
ATOM     26  N   UNL     1       8.397   0.333   0.446  0.00  0.00    -0.271 N 
ATOM     27  C   UNL     1       7.262   0.866  -0.318  0.00  0.00    +0.127 C 
BRANCH  26  28
ATOM     28  C   UNL     1       9.702   0.834   0.375  0.00  0.00    +0.036 A 
ATOM     29  C   UNL     1      10.732   0.189   1.046  0.00  0.00    +0.025 A 
ATOM     30  C   UNL     1      12.019   0.685   0.974  0.00  0.00    +0.022 A 
ATOM     31  C   UNL     1      12.282   1.825   0.235  0.00  0.00    +0.041 A 
ATOM     32  C   UNL     1      11.257   2.470  -0.435  0.00  0.00    +0.022 A 
ATOM     33  C   UNL     1       9.969   1.974  -0.371  0.00  0.00    +0.025 A 
ATOM     34 CL   UNL     1      13.900   2.447   0.148  0.00  0.00    -0.084 Cl
ENDBRANCH  26  28
ENDBRANCH  19  22
ENDBRANCH   4  18
TORSDOF 5
