REMARK  Name = ZINC23465890
REMARK  4 active torsions:
REMARK  status: ('A' for Active; 'I' for Inactive)
REMARK    1  A    between atoms: C_1  and  C_2
REMARK    2  A    between atoms: C_3  and  C_7
REMARK    3  A    between atoms: C_14  and  C_18
REMARK    4  A    between atoms: C_18  and  C_19
REMARK                            x       y       z     vdW  Elec       q    Type
REMARK                         _______ _______ _______ _____ _____    ______ ____
ROOT
ATOM      1  C   UNL     1      -3.176  -2.085   3.191  0.00  0.00    +0.257 C 
ATOM      2  O   UNL     1      -3.977  -2.412   4.046  0.00  0.00    -0.269 OA
ATOM      3  N   UNL     1      -3.003  -0.783   2.892  0.00  0.00    -0.292 N 
ATOM      4  C   UNL     1      -3.872   0.247   3.480  0.00  0.00    +0.114 C 
ATOM      5  C   UNL     1      -3.031   1.163   4.378  0.00  0.00    +0.074 C 
ATOM      6  C   UNL     1      -1.762   1.527   3.648  0.00  0.00    +0.042 A 
ATOM      7  C   UNL     1      -1.269   0.851   2.579  0.00  0.00    +0.013 A 
ATOM      8  C   UNL     1      -0.086   1.468   2.184  0.00  0.00    +0.068 A 
ATOM      9  N   UNL     1       0.132   2.481   2.988  0.00  0.00    -0.178 NA
ATOM     10  N   UNL     1      -0.919   2.539   3.915  0.00  0.00    -0.281 N 
ATOM     11  H   UNL     1      -1.132   3.227   4.747  0.00  0.00    +0.189 HD
ATOM     12  C   UNL     1      -1.939  -0.356   1.965  0.00  0.00    +0.146 C 
ENDROOT
BRANCH   1  15
ATOM     13  C   UNL     1      -3.026  -5.181   3.835  0.00  0.00    +0.069 C 
ATOM     14  C   UNL     1      -2.293  -4.479   2.721  0.00  0.00    +0.081 A 
ATOM     15  C   UNL     1      -2.396  -3.113   2.483  0.00  0.00    +0.117 A 
ATOM     16  S   UNL     1      -1.306  -2.959   1.079  0.00  0.00    +0.041 S 
ATOM     17  N   UNL     1      -0.880  -4.476   0.943  0.00  0.00    -0.110 NA
ATOM     18  N   UNL     1      -1.499  -5.097   1.880  0.00  0.00    -0.146 NA
ENDBRANCH   1  15
BRANCH   8  19
ATOM     19  C   UNL     1       0.795   1.043   1.037  0.00  0.00    +0.061 C 
BRANCH  19  20
ATOM     20  C   UNL     1       0.348   1.757  -0.240  0.00  0.00    -0.005 C 
ATOM     21  C   UNL     1      -1.060   1.294  -0.618  0.00  0.00    +0.004 C 
ATOM     22  C   UNL     1      -1.507   2.008  -1.895  0.00  0.00    +0.000 C 
ATOM     23  C   UNL     1      -0.539   1.674  -3.031  0.00  0.00    +0.000 C 
ATOM     24  C   UNL     1       0.870   2.137  -2.654  0.00  0.00    +0.000 C 
ATOM     25  C   UNL     1       1.316   1.423  -1.377  0.00  0.00    +0.004 C 
ENDBRANCH  19  20
ENDBRANCH   8  19
TORSDOF 3
