REMARK  Name = ZINC44148963
REMARK  8 active torsions:
REMARK  status: ('A' for Active; 'I' for Inactive)
REMARK    1  A    between atoms: C_1  and  C_2
REMARK    2  A    between atoms: C_2  and  C_3
REMARK    3  A    between atoms: C_2  and  N_4
REMARK    4  A    between atoms: C_5  and  C_7
REMARK    5  A    between atoms: C_7  and  C_8
REMARK    6  A    between atoms: C_11  and  N_14
REMARK    7  A    between atoms: N_17  and  C_18
REMARK    8  A    between atoms: C_18  and  C_19
REMARK                            x       y       z     vdW  Elec       q    Type
REMARK                         _______ _______ _______ _____ _____    ______ ____
ROOT
ATOM      1  N   UNL     1      -2.821  -1.397   7.953  0.00  0.00    -0.269 N 
ATOM      2  C   UNL     1      -3.372  -0.268   8.441  0.00  0.00    +0.304 C 
ATOM      3  O   UNL     1      -3.170   0.796   7.888  0.00  0.00    -0.253 OA
ATOM      4  N   UNL     1      -4.146  -0.318   9.543  0.00  0.00    -0.296 N 
ATOM      5  H   UNL     1      -3.043  -2.255   8.347  0.00  0.00    +0.156 HD
ATOM      6  H   UNL     1      -4.308  -1.167   9.984  0.00  0.00    +0.150 HD
ENDROOT
BRANCH   1  10
ATOM      7  C   UNL     1      -0.161  -1.201   4.751  0.00  0.00    -0.039 A 
ATOM      8  C   UNL     1      -0.204  -0.174   5.676  0.00  0.00    +0.006 A 
ATOM      9  C   UNL     1      -1.085  -0.236   6.739  0.00  0.00    +0.023 A 
ATOM     10  C   UNL     1      -1.927  -1.331   6.877  0.00  0.00    +0.035 A 
ATOM     11  C   UNL     1      -1.882  -2.360   5.947  0.00  0.00    +0.023 A 
ATOM     12  C   UNL     1      -1.003  -2.290   4.883  0.00  0.00    +0.006 A 
BRANCH   7  13
ATOM     13  C   UNL     1       0.801  -1.130   3.594  0.00  0.00    +0.130 C 
BRANCH  13  15
ATOM     14  N   UNL     1       0.812  -0.262   1.277  0.00  0.00    -0.313 N 
ATOM     15  C   UNL     1       0.137  -0.440   2.430  0.00  0.00    +0.218 C 
ATOM     16  O   UNL     1      -1.005  -0.044   2.531  0.00  0.00    -0.275 OA
ATOM     17  H   UNL     1       1.725  -0.579   1.196  0.00  0.00    +0.149 HD
BRANCH  14  19
ATOM     18  C   UNL     1       0.318   1.924   0.298  0.00  0.00    +0.027 C 
ATOM     19  C   UNL     1       0.166   0.409   0.146  0.00  0.00    +0.067 C 
ATOM     20  C   UNL     1       0.826  -0.041  -1.158  0.00  0.00    +0.027 C 
ENDBRANCH  14  19
ENDBRANCH  13  15
ENDBRANCH   7  13
ENDBRANCH   1  10
BRANCH   4  21
ATOM     21  C   UNL     1      -4.745   0.909  10.074  0.00  0.00    +0.150 C 
BRANCH  21  22
ATOM     22  C   UNL     1      -5.571   0.576  11.318  0.00  0.00    +0.195 C 
ATOM     23  C   UNL     1      -6.269   1.843  11.867  0.00  0.00    +0.085 C 
ATOM     24  C   UNL     1      -7.595   1.286  12.348  0.00  0.00    -0.002 A 
ATOM     25  C   UNL     1      -8.568   1.800  13.177  0.00  0.00    +0.007 A 
ATOM     26  C   UNL     1      -9.700   1.057  13.459  0.00  0.00    +0.000 A 
ATOM     27  C   UNL     1      -9.850  -0.202  12.906  0.00  0.00    +0.004 A 
ATOM     28  C   UNL     1      -8.879  -0.717  12.073  0.00  0.00    +0.046 A 
ATOM     29  C   UNL     1      -7.738   0.027  11.781  0.00  0.00    +0.124 A 
ATOM     30  O   UNL     1      -6.676  -0.280  10.982  0.00  0.00    -0.487 OA
ENDBRANCH  21  22
ENDBRANCH   4  21
TORSDOF 6
