REMARK  Name = ZINC43218874
REMARK  9 active torsions:
REMARK  status: ('A' for Active; 'I' for Inactive)
REMARK    1  A    between atoms: C_1  and  C_2
REMARK    2  A    between atoms: C_5  and  C_34
REMARK    3  A    between atoms: C_6  and  C_8
REMARK    4  A    between atoms: N_16  and  C_19
REMARK    5  A    between atoms: C_19  and  C_20
REMARK    6  A    between atoms: C_19  and  C_21
REMARK    7  A    between atoms: C_19  and  C_22
REMARK    8  A    between atoms: C_23  and  C_25
REMARK    9  A    between atoms: C_23  and  C_31
REMARK                            x       y       z     vdW  Elec       q    Type
REMARK                         _______ _______ _______ _____ _____    ______ ____
ROOT
ATOM      1  C   UNL     1       0.134  -3.213   2.230  0.00  0.00    -0.026 C 
ATOM      2  C   UNL     1       1.580  -3.569   2.563  0.00  0.00    +0.077 C 
ATOM      3  C   UNL     1       1.317  -4.114   4.018  0.00  0.00    +0.090 C 
ATOM      4  C   UNL     1       2.524  -4.859   4.281  0.00  0.00    +0.226 C 
ATOM      5  O   UNL     1       3.087  -5.000   5.346  0.00  0.00    -0.275 OA
ATOM      6  N   UNL     1       2.896  -5.373   3.064  0.00  0.00    -0.236 N 
ATOM      7  C   UNL     1       2.220  -4.801   2.006  0.00  0.00    +0.225 C 
ATOM      8  O   UNL     1       2.149  -5.207   0.866  0.00  0.00    -0.275 OA
ATOM      9  C   UNL     1       0.481  -3.072   4.628  0.00  0.00    +0.074 C 
ATOM     10  N   UNL     1      -0.353  -2.548   3.483  0.00  0.00    +0.398 N 
ATOM     11  H   UNL     1      -0.230  -1.549   3.410  0.00  0.00    -0.083 HD
ATOM     12  H   UNL     1      -1.328  -2.765   3.628  0.00  0.00    -0.083 HD
ENDROOT
BRANCH   1  18
ATOM     13  C   UNL     1       2.443  -0.146  -0.981  0.00  0.00    +0.044 C 
ATOM     14  C   UNL     1       1.180  -0.792  -0.472  0.00  0.00    -0.050 A 
ATOM     15  C   UNL     1      -0.032  -0.511  -1.075  0.00  0.00    +0.003 A 
ATOM     16  C   UNL     1      -1.190  -1.104  -0.608  0.00  0.00    +0.004 A 
ATOM     17  C   UNL     1      -1.136  -1.979   0.462  0.00  0.00    -0.049 A 
ATOM     18  C   UNL     1       0.076  -2.260   1.064  0.00  0.00    -0.057 A 
ATOM     19  C   UNL     1       1.235  -1.671   0.594  0.00  0.00    +0.005 A 
ATOM     20  C   UNL     1      -2.399  -2.624   0.972  0.00  0.00    +0.044 C 
ENDBRANCH   1  18
BRANCH   9  21
ATOM     21  C   UNL     1      -0.416  -3.668   5.682  0.00  0.00    -0.047 A 
ATOM     22  C   UNL     1      -0.004  -4.780   6.393  0.00  0.00    +0.003 A 
ATOM     23  C   UNL     1      -0.828  -5.327   7.359  0.00  0.00    +0.000 A 
ATOM     24  C   UNL     1      -2.063  -4.762   7.615  0.00  0.00    +0.000 A 
ATOM     25  C   UNL     1      -2.475  -3.650   6.904  0.00  0.00    +0.000 A 
ATOM     26  C   UNL     1      -1.650  -3.100   5.941  0.00  0.00    +0.003 A 
ENDBRANCH   9  21
BRANCH   6  27
ATOM     27  C   UNL     1       3.915  -6.413   2.900  0.00  0.00    +0.036 C 
ATOM     28  C   UNL     1       3.488  -7.670   3.659  0.00  0.00    +0.031 C 
ATOM     29  C   UNL     1       4.072  -6.743   1.414  0.00  0.00    +0.031 C 
ATOM     30  C   UNL     1       5.250  -5.910   3.454  0.00  0.00    +0.031 C 
ENDBRANCH   6  27
BRANCH   9  31
ATOM     31  C   UNL     1       1.343  -1.988   5.223  0.00  0.00    +0.350 C 
ATOM     32  O   UNL     1       1.240  -0.841   4.825  0.00  0.00    -0.248 OA
ATOM     33  O   UNL     1       2.143  -2.259   6.102  0.00  0.00    -0.248 OA
ENDBRANCH   9  31
TORSDOF 4
