REMARK  Name = ZINC04317760
REMARK  7 active torsions:
REMARK  status: ('A' for Active; 'I' for Inactive)
REMARK    1  A    between atoms: C_1  and  C_2
REMARK    2  A    between atoms: C_2  and  C_3
REMARK    3  A    between atoms: C_3  and  C_4
REMARK    4  A    between atoms: C_4  and  N_5
REMARK    5  A    between atoms: C_9  and  N_13
REMARK    6  A    between atoms: N_13  and  C_14
REMARK    7  A    between atoms: C_17  and  N_20
REMARK                            x       y       z     vdW  Elec       q    Type
REMARK                         _______ _______ _______ _____ _____    ______ ____
ROOT
ATOM      1  N   UNL     1       4.067  -2.276  -4.524  0.00  0.00    -0.333 N 
ATOM      2  H   UNL     1       3.736  -1.523  -5.038  0.00  0.00    +0.147 HD
ENDROOT
BRANCH   1   7
ATOM      3  N   UNL     1       1.422  -2.527  -2.478  0.00  0.00    -0.241 N 
ATOM      4  C   UNL     1       0.784  -2.753  -3.632  0.00  0.00    +0.224 C 
ATOM      5  O   UNL     1      -0.406  -2.611  -3.817  0.00  0.00    -0.275 OA
ATOM      6  C   UNL     1       1.783  -3.212  -4.672  0.00  0.00    +0.128 C 
ATOM      7  C   UNL     1       3.123  -3.213  -3.909  0.00  0.00    +0.166 C 
ATOM      8  C   UNL     1       2.741  -2.748  -2.520  0.00  0.00    +0.243 C 
ATOM      9  O   UNL     1       3.508  -2.602  -1.593  0.00  0.00    -0.273 OA
BRANCH   3  10
ATOM     10  C   UNL     1       0.733  -2.070  -1.268  0.00  0.00    +0.116 C 
BRANCH  10  11
ATOM     11  C   UNL     1       0.711  -0.540  -1.242  0.00  0.00    +0.019 C 
BRANCH  11  13
ATOM     12  C   UNL     1      -0.031   1.468   0.048  0.00  0.00    +0.004 C 
ATOM     13  C   UNL     1      -0.008  -0.062   0.021  0.00  0.00    -0.002 C 
ENDBRANCH  11  13
ENDBRANCH  10  11
ENDBRANCH   3  10
ENDBRANCH   1   7
BRANCH   1  14
ATOM     14  C   UNL     1       5.445  -2.466  -4.368  0.00  0.00    +0.028 A 
ATOM     15  C   UNL     1       5.918  -3.547  -3.635  0.00  0.00    +0.025 A 
ATOM     16  C   UNL     1       7.277  -3.735  -3.481  0.00  0.00    +0.025 A 
ATOM     17  C   UNL     1       8.171  -2.844  -4.059  0.00  0.00    +0.030 A 
ATOM     18  C   UNL     1       7.698  -1.763  -4.792  0.00  0.00    +0.025 A 
ATOM     19  C   UNL     1       6.339  -1.578  -4.950  0.00  0.00    +0.025 A 
BRANCH  17  20
ATOM     20  N   UNL     1       9.549  -3.034  -3.902  0.00  0.00    -0.326 N 
ATOM     21  C   UNL     1      10.517  -2.173  -4.601  0.00  0.00    +0.133 C 
ATOM     22  C   UNL     1      11.530  -1.653  -3.575  0.00  0.00    +0.178 C 
ATOM     23  O   UNL     1      12.072  -2.757  -2.847  0.00  0.00    -0.377 OA
ATOM     24  C   UNL     1      11.107  -3.486  -2.084  0.00  0.00    +0.178 C 
ATOM     25  C   UNL     1      10.073  -4.097  -3.030  0.00  0.00    +0.133 C 
ENDBRANCH  17  20
ENDBRANCH   1  14
TORSDOF 6
