REMARK  Name = ZINC13498759
REMARK  13 active torsions:
REMARK  status: ('A' for Active; 'I' for Inactive)
REMARK    1  A    between atoms: C_1  and  C_2
REMARK    2  A    between atoms: C_2  and  C_3
REMARK    3  A    between atoms: C_2  and  C_4
REMARK    4  A    between atoms: C_4  and  C_6
REMARK    5  A    between atoms: C_4  and  N_17
REMARK    6  A    between atoms: N_10  and  C_11
REMARK    7  A    between atoms: C_11  and  C_12
REMARK    8  A    between atoms: N_17  and  C_18
REMARK    9  A    between atoms: N_17  and  C_25
REMARK   10  A    between atoms: C_18  and  C_19
REMARK   11  A    between atoms: C_25  and  C_26
REMARK   12  A    between atoms: C_31  and  O_38
REMARK   13  A    between atoms: O_38  and  C_39
REMARK                            x       y       z     vdW  Elec       q    Type
REMARK                         _______ _______ _______ _____ _____    ______ ____
ROOT
ATOM      1  N   UNL     1      -1.504  -2.458   0.071  0.00  0.00    -0.284 NA
ENDROOT
BRANCH   1   2
ATOM      2  C   UNL     1      -1.680  -1.000   0.103  0.00  0.00    +0.130 C 
BRANCH   2   3
ATOM      3  C   UNL     1      -1.524  -0.444  -1.289  0.00  0.00    +0.169 A 
ATOM      4  N   UNL     1      -2.166  -0.833  -2.364  0.00  0.00    -0.112 NA
ATOM      5  N   UNL     1      -1.756  -0.117  -3.353  0.00  0.00    -0.023 NA
ATOM      6  N   UNL     1      -0.869   0.719  -2.937  0.00  0.00    -0.043 NA
ATOM      7  N   UNL     1      -0.702   0.552  -1.669  0.00  0.00    -0.220 N 
BRANCH   7   8
ATOM      8  C   UNL     1       0.213   1.303  -0.805  0.00  0.00    +0.221 C 
BRANCH   8   9
ATOM      9  C   UNL     1       1.552   0.613  -0.772  0.00  0.00    +0.126 A 
ATOM     10  C   UNL     1       2.578   0.848  -1.609  0.00  0.00    +0.046 A 
ATOM     11  C   UNL     1       3.630  -0.014  -1.221  0.00  0.00    +0.041 A 
ATOM     12  C   UNL     1       3.183  -0.724  -0.169  0.00  0.00    +0.195 A 
ATOM     13  O   UNL     1       1.926  -0.336   0.102  0.00  0.00    -0.466 OA
ENDBRANCH   8   9
ENDBRANCH   7   8
ENDBRANCH   2   3
BRANCH   2  15
ATOM     14  C   UNL     1      -3.211   0.849   0.796  0.00  0.00    +0.009 C 
ATOM     15  C   UNL     1      -3.077  -0.666   0.631  0.00  0.00    +0.008 C 
ATOM     16  C   UNL     1      -4.130  -1.167  -0.359  0.00  0.00    +0.009 C 
ENDBRANCH   2  15
ENDBRANCH   1   2
BRANCH   1  17
ATOM     17  C   UNL     1      -1.056  -2.963   1.375  0.00  0.00    +0.122 C 
BRANCH  17  18
ATOM     18  C   UNL     1      -2.138  -2.740   2.400  0.00  0.00    -0.015 A 
ATOM     19  C   UNL     1      -2.092  -1.640   3.242  0.00  0.00    +0.008 A 
ATOM     20  C   UNL     1      -3.109  -1.475   4.169  0.00  0.00    +0.020 A 
ATOM     21  C   UNL     1      -4.129  -2.406   4.223  0.00  0.00    +0.111 A 
ATOM     22  N   UNL     1      -4.141  -3.441   3.406  0.00  0.00    -0.263 NA
ATOM     23  C   UNL     1      -3.193  -3.626   2.507  0.00  0.00    +0.115 A 
ENDBRANCH  17  18
ENDBRANCH   1  17
BRANCH   1  24
ATOM     24  C   UNL     1      -0.574  -2.853  -0.995  0.00  0.00    +0.126 C 
BRANCH  24  25
ATOM     25  C   UNL     1      -0.500  -4.356  -1.066  0.00  0.00    +0.031 A 
ATOM     26  C   UNL     1      -1.281  -5.030  -1.948  0.00  0.00    +0.020 A 
ATOM     27  C   UNL     1      -1.186  -6.489  -1.994  0.00  0.00    -0.001 A 
ATOM     28  C   UNL     1      -1.966  -7.237  -2.883  0.00  0.00    +0.013 A 
ATOM     29  C   UNL     1      -1.856  -8.596  -2.904  0.00  0.00    +0.046 A 
ATOM     30  C   UNL     1      -0.972  -9.248  -2.045  0.00  0.00    +0.122 A 
ATOM     31  C   UNL     1      -0.191  -8.526  -1.158  0.00  0.00    +0.072 A 
ATOM     32  C   UNL     1      -0.290  -7.141  -1.124  0.00  0.00    +0.053 A 
ATOM     33  N   UNL     1       0.476  -6.397  -0.251  0.00  0.00    -0.322 N 
ATOM     34  H   UNL     1       1.093  -6.848   0.347  0.00  0.00    +0.169 HD
ATOM     35  C   UNL     1       0.385  -5.056  -0.221  0.00  0.00    +0.254 A 
ATOM     36  O   UNL     1       1.081  -4.431   0.560  0.00  0.00    -0.268 OA
BRANCH  30  37
ATOM     37  O   UNL     1      -0.875 -10.602  -2.078  0.00  0.00    -0.495 OA
ATOM     38  C   UNL     1      -1.708 -11.288  -3.015  0.00  0.00    +0.277 C 
ENDBRANCH  30  37
ENDBRANCH  24  25
ENDBRANCH   1  24
TORSDOF 10
