REMARK  Name = ZINC38740537
REMARK  6 active torsions:
REMARK  status: ('A' for Active; 'I' for Inactive)
REMARK    1  A    between atoms: C_1  and  C_2
REMARK    2  A    between atoms: C_10  and  N_20
REMARK    3  A    between atoms: C_12  and  C_14
REMARK    4  A    between atoms: C_21  and  C_23
REMARK    5  A    between atoms: C_25  and  C_29
REMARK    6  A    between atoms: C_27  and  C_28
REMARK                            x       y       z     vdW  Elec       q    Type
REMARK                         _______ _______ _______ _____ _____    ______ ____
ROOT
ATOM      1  C   UNL     1      -0.018   1.503   0.010  0.00  0.00    +0.066 C 
ATOM      2  C   UNL     1       0.002  -0.004   0.002  0.00  0.00    +0.047 A 
ATOM      3  C   UNL     1       0.006  -0.697  -1.195  0.00  0.00    +0.095 A 
ATOM      4  C   UNL     1       0.025  -2.090  -1.156  0.00  0.00    +0.275 A 
ATOM      5  O   UNL     1       0.030  -2.809  -2.304  0.00  0.00    -0.266 OA
ATOM      6  N   UNL     1       0.039  -2.702   0.022  0.00  0.00    -0.172 NA
ATOM      7  C   UNL     1       0.035  -2.003   1.146  0.00  0.00    +0.256 A 
ATOM      8  N   UNL     1       0.022  -0.680   1.141  0.00  0.00    -0.216 NA
ATOM      9  N   UNL     1       0.049  -2.678   2.365  0.00  0.00    -0.183 N 
ATOM     10  C   UNL     1       0.074  -4.031   2.532  0.00  0.00    +0.133 A 
ATOM     11  C   UNL     1       0.081  -4.280   3.868  0.00  0.00    +0.074 A 
ATOM     12  C   UNL     1       0.061  -3.042   4.537  0.00  0.00    +0.095 A 
ATOM     13  N   UNL     1       0.048  -2.085   3.634  0.00  0.00    -0.162 NA
ENDROOT
BRANCH  12  14
ATOM     14  C   UNL     1       0.060  -2.848   6.009  0.00  0.00    +0.002 A 
ATOM     15  C   UNL     1       0.087  -3.952   6.859  0.00  0.00    +0.010 A 
ATOM     16  C   UNL     1       0.087  -3.767   8.227  0.00  0.00    +0.001 A 
ATOM     17  C   UNL     1       0.060  -2.488   8.754  0.00  0.00    +0.000 A 
ATOM     18  C   UNL     1       0.033  -1.389   7.914  0.00  0.00    +0.001 A 
ATOM     19  C   UNL     1       0.038  -1.562   6.545  0.00  0.00    +0.010 A 
ENDBRANCH  12  14
BRANCH  10  20
ATOM     20  N   UNL     1       0.089  -4.985   1.517  0.00  0.00    -0.266 N 
ATOM     21  C   UNL     1       0.113  -6.297   1.826  0.00  0.00    +0.253 C 
ATOM     22  O   UNL     1       0.122  -6.647   2.990  0.00  0.00    -0.270 OA
ATOM     23  H   UNL     1       0.082  -4.705   0.589  0.00  0.00    +0.157 HD
BRANCH  21  24
ATOM     24  C   UNL     1       0.129  -7.306   0.752  0.00  0.00    +0.078 A 
ATOM     25  C   UNL     1       0.127  -7.061  -0.697  0.00  0.00    +0.057 A 
ATOM     26  C   UNL     1       0.145  -8.272  -1.276  0.00  0.00    +0.103 A 
ATOM     27  O   UNL     1       0.157  -9.215  -0.321  0.00  0.00    -0.464 OA
ATOM     28  C   UNL     1       0.153  -8.662   0.896  0.00  0.00    +0.114 A 
ATOM     29  C   UNL     1       0.169  -9.410   2.204  0.00  0.00    +0.087 C 
ATOM     30  C   UNL     1       0.150  -8.531  -2.760  0.00  0.00    +0.086 C 
ENDBRANCH  21  24
ENDBRANCH  10  20
TORSDOF 3
