REMARK  Name = ZINC64870045
REMARK  8 active torsions:
REMARK  status: ('A' for Active; 'I' for Inactive)
REMARK    1  A    between atoms: C_1  and  C_2
REMARK    2  A    between atoms: C_5  and  N_8
REMARK    3  A    between atoms: C_14  and  C_21
REMARK    4  A    between atoms: C_24  and  C_28
REMARK    5  A    between atoms: C_31  and  O_36
REMARK    6  A    between atoms: C_33  and  O_34
REMARK    7  A    between atoms: O_34  and  C_35
REMARK    8  A    between atoms: O_36  and  C_37
REMARK                            x       y       z     vdW  Elec       q    Type
REMARK                         _______ _______ _______ _____ _____    ______ ____
ROOT
ATOM      1  N   UNL     1       0.149  -4.171  -0.025  0.00  0.00    -0.229 N 
ATOM      2  C   UNL     1       0.172  -4.839   1.148  0.00  0.00    +0.269 A 
ATOM      3  O   UNL     1       0.180  -4.241   2.207  0.00  0.00    -0.266 OA
ATOM      4  C   UNL     1       0.186  -6.312   1.112  0.00  0.00    +0.063 A 
ATOM      5  C   UNL     1       0.209  -7.073   2.279  0.00  0.00    +0.016 A 
ATOM      6  C   UNL     1       0.221  -8.449   2.192  0.00  0.00    +0.008 A 
ATOM      7  C   UNL     1       0.210  -9.075   0.955  0.00  0.00    -0.000 A 
ATOM      8  C   UNL     1       0.187  -8.332  -0.209  0.00  0.00    +0.034 A 
ATOM      9  C   UNL     1       0.174  -6.947  -0.142  0.00  0.00    +0.056 A 
ATOM     10  N   UNL     1       0.151  -6.164  -1.286  0.00  0.00    -0.307 N 
ATOM     11  H   UNL     1       0.143  -6.588  -2.159  0.00  0.00    +0.170 HD
ATOM     12  C   UNL     1       0.134  -4.823  -1.198  0.00  0.00    +0.334 A 
ATOM     13  O   UNL     1       0.109  -4.173  -2.225  0.00  0.00    -0.246 OA
ENDROOT
BRANCH   1  18
ATOM     14  C   UNL     1       0.093   1.504   0.006  0.00  0.00    +0.044 C 
ATOM     15  C   UNL     1       0.108  -0.003  -0.002  0.00  0.00    -0.050 A 
ATOM     16  C   UNL     1      -1.083  -0.705  -0.032  0.00  0.00    +0.005 A 
ATOM     17  C   UNL     1      -1.073  -2.086  -0.040  0.00  0.00    +0.026 A 
ATOM     18  C   UNL     1       0.135  -2.769  -0.018  0.00  0.00    +0.054 A 
ATOM     19  C   UNL     1       1.330  -2.062   0.012  0.00  0.00    +0.026 A 
ATOM     20  C   UNL     1       1.313  -0.681   0.015  0.00  0.00    +0.005 A 
ENDBRANCH   1  18
BRANCH   7  21
ATOM     21  C   UNL     1       0.223 -10.580   0.879  0.00  0.00    +0.242 C 
ATOM     22  N   UNL     1       1.338 -11.030   0.016  0.00  0.00    -0.265 NA
ATOM     23  C   UNL     1       0.779 -12.199  -0.716  0.00  0.00    +0.184 C 
ATOM     24  N   UNL     1      -0.630 -11.783  -0.944  0.00  0.00    -0.177 NA
ATOM     25  O   UNL     1      -0.996 -11.050   0.285  0.00  0.00    -0.274 OA
ATOM     26  H   UNL     1       1.617 -10.302  -0.625  0.00  0.00    +0.127 HD
ATOM     27  H   UNL     1      -1.227 -12.586  -1.075  0.00  0.00    +0.156 HD
BRANCH  23  28
ATOM     28  C   UNL     1       1.500 -12.408  -2.023  0.00  0.00    +0.028 A 
ATOM     29  C   UNL     1       2.797 -11.958  -2.176  0.00  0.00    +0.014 A 
ATOM     30  C   UNL     1       3.460 -12.148  -3.373  0.00  0.00    +0.046 A 
ATOM     31  C   UNL     1       2.824 -12.792  -4.425  0.00  0.00    +0.124 A 
ATOM     32  C   UNL     1       1.523 -13.244  -4.274  0.00  0.00    +0.091 A 
ATOM     33  C   UNL     1       0.861 -13.057  -3.070  0.00  0.00    +0.130 A 
BRANCH  33  34
ATOM     34  O   UNL     1      -0.412 -13.505  -2.917  0.00  0.00    -0.495 OA
ATOM     35  C   UNL     1      -1.007 -14.165  -4.036  0.00  0.00    +0.277 C 
ENDBRANCH  33  34
BRANCH  31  36
ATOM     36  O   UNL     1       3.477 -12.978  -5.602  0.00  0.00    -0.495 OA
ATOM     37  C   UNL     1       4.815 -12.486  -5.687  0.00  0.00    +0.277 C 
ENDBRANCH  31  36
ENDBRANCH  23  28
ENDBRANCH   7  21
TORSDOF 5
