REMARK  Name = ZINC38597731
REMARK  7 active torsions:
REMARK  status: ('A' for Active; 'I' for Inactive)
REMARK    1  A    between atoms: C_3  and  C_6
REMARK    2  A    between atoms: C_6  and  C_8
REMARK    3  A    between atoms: C_6  and  N_26
REMARK    4  A    between atoms: C_8  and  N_9
REMARK    5  A    between atoms: C_10  and  C_12
REMARK    6  A    between atoms: N_17  and  C_19
REMARK    7  A    between atoms: N_29  and  C_32
REMARK                            x       y       z     vdW  Elec       q    Type
REMARK                         _______ _______ _______ _____ _____    ______ ____
ROOT
ATOM      1  C   UNL     1       3.518   0.691  -0.025  0.00  0.00    +0.017 C 
ENDROOT
BRANCH   1   2
ATOM      2  N   UNL     1       3.913  -0.461  -0.847  0.00  0.00    +0.389 N 
ATOM      3  C   UNL     1       5.366  -0.653  -0.750  0.00  0.00    -0.059 C 
ATOM      4  C   UNL     1       5.764  -1.920  -1.513  0.00  0.00    +0.086 C 
ATOM      5  N   UNL     1       5.256  -1.814  -2.890  0.00  0.00    -0.333 N 
ATOM      6  C   UNL     1       3.841  -1.462  -3.081  0.00  0.00    +0.086 C 
ATOM      7  C   UNL     1       3.533  -0.216  -2.244  0.00  0.00    -0.059 C 
ATOM      8  H   UNL     1       3.444  -1.289  -0.511  0.00  0.00    -0.081 HD
BRANCH   5   9
ATOM      9  C   UNL     1       6.094  -2.043  -3.985  0.00  0.00    +0.030 A 
ATOM     10  C   UNL     1       7.390  -2.500  -3.786  0.00  0.00    +0.026 A 
ATOM     11  C   UNL     1       8.217  -2.726  -4.869  0.00  0.00    +0.040 A 
ATOM     12  C   UNL     1       7.754  -2.496  -6.154  0.00  0.00    +0.124 A 
ATOM     13  C   UNL     1       6.462  -2.041  -6.355  0.00  0.00    +0.040 A 
ATOM     14  C   UNL     1       5.630  -1.819  -5.275  0.00  0.00    +0.026 A 
ATOM     15  F   UNL     1       8.564  -2.717  -7.212  0.00  0.00    -0.205 F 
ENDBRANCH   5   9
ENDBRANCH   1   2
BRANCH   1  18
ATOM     16  C   UNL     1      -0.014   1.731  -0.203  0.00  0.00    +0.041 A 
ATOM     17  C   UNL     1       1.367   2.034  -0.167  0.00  0.00    +0.043 A 
ATOM     18  C   UNL     1       2.022   0.862  -0.087  0.00  0.00    +0.093 A 
ATOM     19  O   UNL     1       1.116  -0.130  -0.072  0.00  0.00    -0.469 OA
ATOM     20  C   UNL     1      -0.120   0.391  -0.142  0.00  0.00    +0.195 A 
ENDBRANCH   1  18
BRANCH   1  21
ATOM     21  C   UNL     1       3.944   0.453   1.425  0.00  0.00    +0.096 C 
BRANCH  21  22
ATOM     22  N   UNL     1       3.397  -0.824   1.892  0.00  0.00    -0.316 N 
ATOM     23  C   UNL     1       3.566  -1.201   3.175  0.00  0.00    +0.218 C 
ATOM     24  O   UNL     1       4.171  -0.483   3.943  0.00  0.00    -0.275 OA
ATOM     25  H   UNL     1       2.913  -1.397   1.278  0.00  0.00    +0.149 HD
BRANCH  23  26
ATOM     26  C   UNL     1       3.003  -2.514   3.655  0.00  0.00    +0.101 C 
ATOM     27  C   UNL     1       3.686  -3.703   2.940  0.00  0.00    +0.110 C 
ATOM     28  C   UNL     1       4.817  -4.093   3.866  0.00  0.00    +0.221 C 
ATOM     29  O   UNL     1       5.760  -4.789   3.556  0.00  0.00    -0.275 OA
ATOM     30  N   UNL     1       4.624  -3.554   5.083  0.00  0.00    -0.271 N 
ATOM     31  C   UNL     1       3.382  -2.772   5.130  0.00  0.00    +0.127 C 
BRANCH  30  32
ATOM     32  C   UNL     1       5.496  -3.717   6.166  0.00  0.00    +0.036 A 
ATOM     33  C   UNL     1       6.584  -4.574   6.060  0.00  0.00    +0.026 A 
ATOM     34  C   UNL     1       7.443  -4.734   7.130  0.00  0.00    +0.040 A 
ATOM     35  C   UNL     1       7.220  -4.040   8.308  0.00  0.00    +0.124 A 
ATOM     36  C   UNL     1       6.136  -3.186   8.415  0.00  0.00    +0.040 A 
ATOM     37  C   UNL     1       5.278  -3.018   7.346  0.00  0.00    +0.026 A 
ATOM     38  F   UNL     1       8.060  -4.199   9.353  0.00  0.00    -0.205 F 
ENDBRANCH  30  32
ENDBRANCH  23  26
ENDBRANCH  21  22
ENDBRANCH   1  21
TORSDOF 7
