REMARK  Name = ZINC24709890
REMARK  6 active torsions:
REMARK  status: ('A' for Active; 'I' for Inactive)
REMARK    1  A    between atoms: C_1  and  C_2
REMARK    2  A    between atoms: C_2  and  C_3
REMARK    3  A    between atoms: C_3  and  C_26
REMARK    4  A    between atoms: N_6  and  C_10
REMARK    5  A    between atoms: C_10  and  C_11
REMARK    6  A    between atoms: N_13  and  N_14
REMARK                            x       y       z     vdW  Elec       q    Type
REMARK                         _______ _______ _______ _____ _____    ______ ____
ROOT
ATOM      1  C   UNL     1       2.453   1.438  -0.013  0.00  0.00    +0.215 C 
ENDROOT
BRANCH   1   5
ATOM      2  C   UNL     1      -0.727   3.357   0.027  0.00  0.00    +0.138 C 
ATOM      3  C   UNL     1       0.787   3.284   0.012  0.00  0.00    +0.251 C 
ATOM      4  O   UNL     1       1.565   4.213   0.009  0.00  0.00    -0.272 OA
ATOM      5  N   UNL     1       1.087   1.970   0.002  0.00  0.00    -0.215 N 
ATOM      6  C   UNL     1      -0.014   1.211   0.009  0.00  0.00    +0.310 C 
ATOM      7  O   UNL     1       0.002  -0.004   0.002  0.00  0.00    -0.252 OA
ATOM      8  N   UNL     1      -1.143   1.944   0.018  0.00  0.00    -0.281 N 
ATOM      9  H   UNL     1      -2.212   1.685   0.019  0.00  0.00    +0.152 HD
BRANCH   2  10
ATOM     10  C   UNL     1      -1.212   4.052   1.273  0.00  0.00    -0.015 A 
ATOM     11  C   UNL     1      -1.397   5.422   1.272  0.00  0.00    +0.007 A 
ATOM     12  C   UNL     1      -1.848   6.060   2.413  0.00  0.00    +0.020 A 
ATOM     13  C   UNL     1      -2.102   5.328   3.559  0.00  0.00    +0.041 A 
ATOM     14  C   UNL     1      -1.911   3.958   3.561  0.00  0.00    +0.020 A 
ATOM     15  C   UNL     1      -1.466   3.321   2.418  0.00  0.00    +0.007 A 
ATOM     16 CL   UNL     1      -2.660   6.129   4.995  0.00  0.00    -0.084 Cl
ENDBRANCH   2  10
BRANCH   2  18
ATOM     17  C   UNL     1      -0.889   3.252  -2.464  0.00  0.00    +0.007 C 
ATOM     18  C   UNL     1      -1.244   4.073  -1.222  0.00  0.00    +0.037 C 
ENDBRANCH   2  18
ENDBRANCH   1   5
BRANCH   1  19
ATOM     19  C   UNL     1       2.908   1.264  -1.439  0.00  0.00    +0.248 C 
ATOM     20  O   UNL     1       2.165   1.554  -2.353  0.00  0.00    -0.273 OA
ATOM     21  N   UNL     1       4.140   0.784  -1.699  0.00  0.00    -0.222 N 
ATOM     22  H   UNL     1       4.814   0.521  -0.870  0.00  0.00    +0.174 HD
BRANCH  21  23
ATOM     23  N   UNL     1       4.564   0.622  -3.024  0.00  0.00    -0.137 N 
ATOM     24  C   UNL     1       4.661  -0.570  -3.648  0.00  0.00    +0.263 C 
ATOM     25  O   UNL     1       4.409  -1.663  -3.188  0.00  0.00    -0.271 OA
ATOM     26  C   UNL     1       5.149  -0.257  -5.044  0.00  0.00    +0.114 C 
ATOM     27  C   UNL     1       6.495  -0.926  -5.296  0.00  0.00    +0.035 C 
ATOM     28  C   UNL     1       6.990  -0.567  -6.700  0.00  0.00    +0.003 C 
ATOM     29  C   UNL     1       5.966  -1.035  -7.736  0.00  0.00    +0.000 C 
ATOM     30  C   UNL     1       4.627  -0.339  -7.483  0.00  0.00    +0.003 C 
ATOM     31  C   UNL     1       4.124  -0.698  -6.083  0.00  0.00    +0.035 C 
ATOM     32  N   UNL     1       5.292   1.205  -5.052  0.00  0.00    -0.284 N 
ATOM     33  C   UNL     1       4.927   1.630  -3.827  0.00  0.00    +0.326 C 
ATOM     34  O   UNL     1       4.927   2.797  -3.489  0.00  0.00    -0.251 OA
ATOM     35  H   UNL     1       5.642   1.719  -5.959  0.00  0.00    +0.151 HD
ENDBRANCH  21  23
ENDBRANCH   1  19
TORSDOF 5
