REMARK  Name = ZINC07659766
REMARK  8 active torsions:
REMARK  status: ('A' for Active; 'I' for Inactive)
REMARK    1  A    between atoms: C_2  and  C_3
REMARK    2  A    between atoms: C_3  and  N_4
REMARK    3  A    between atoms: N_4  and  C_5
REMARK    4  A    between atoms: C_5  and  N_7
REMARK    5  A    between atoms: N_7  and  C_8
REMARK    6  A    between atoms: C_8  and  C_9
REMARK    7  A    between atoms: C_9  and  C_11
REMARK    8  A    between atoms: C_9  and  C_18
REMARK                            x       y       z     vdW  Elec       q    Type
REMARK                         _______ _______ _______ _____ _____    ______ ____
ROOT
ATOM      1  C   UNL     1       2.452   3.936   0.000  0.00  0.00    +0.069 C 
ENDROOT
BRANCH   1   2
ATOM      2  C   UNL     1       3.236   3.589  -1.239  0.00  0.00    -0.013 A 
ATOM      3  C   UNL     1       3.681   2.372  -1.587  0.00  0.00    +0.088 A 
ATOM      4  N   UNL     1       4.349   2.443  -2.780  0.00  0.00    -0.360 N 
ATOM      5  H   UNL     1       4.759   1.690  -3.235  0.00  0.00    +0.165 HD
ATOM      6  C   UNL     1       4.358   3.742  -3.235  0.00  0.00    +0.047 A 
ATOM      7  C   UNL     1       3.661   4.517  -2.290  0.00  0.00    +0.003 A 
ATOM      8  C   UNL     1       3.509   5.890  -2.491  0.00  0.00    +0.010 A 
ATOM      9  C   UNL     1       4.040   6.475  -3.606  0.00  0.00    +0.001 A 
ATOM     10  C   UNL     1       4.728   5.715  -4.541  0.00  0.00    +0.002 A 
ATOM     11  C   UNL     1       4.890   4.358  -4.362  0.00  0.00    +0.026 A 
ENDBRANCH   1   2
BRANCH   1  12
ATOM     12  C   UNL     1       1.157   3.165   0.008  0.00  0.00    -0.020 A 
ATOM     13  C   UNL     1       1.175   1.783   0.000  0.00  0.00    +0.006 A 
ATOM     14  C   UNL     1      -0.013   1.076   0.008  0.00  0.00    +0.000 A 
ATOM     15  C   UNL     1      -1.219   1.750   0.017  0.00  0.00    +0.001 A 
ATOM     16  C   UNL     1      -1.239   3.132   0.031  0.00  0.00    +0.020 A 
ATOM     17  C   UNL     1      -0.050   3.841   0.023  0.00  0.00    +0.045 A 
ATOM     18 CL   UNL     1      -0.074   5.576   0.032  0.00  0.00    -0.083 Cl
ENDBRANCH   1  12
BRANCH   1  19
ATOM     19  C   UNL     1       3.271   3.570   1.240  0.00  0.00    +0.116 C 
BRANCH  19  20
ATOM     20  N   UNL     1       2.562   4.016   2.442  0.00  0.00    -0.326 N 
ATOM     21  H   UNL     1       1.706   4.466   2.362  0.00  0.00    +0.148 HD
BRANCH  20  22
ATOM     22  C   UNL     1       3.097   3.799   3.660  0.00  0.00    +0.131 C 
ATOM     23  S   UNL     1       4.607   3.004   3.802  0.00  0.00    -0.019 S 
BRANCH  22  24
ATOM     24  N   UNL     1       2.445   4.209   4.766  0.00  0.00    -0.323 N 
ATOM     25  H   UNL     1       1.590   4.660   4.685  0.00  0.00    +0.148 HD
BRANCH  24  26
ATOM     26  C   UNL     1       3.028   3.974   6.089  0.00  0.00    +0.130 C 
BRANCH  26  28
ATOM     27  C   UNL     1       1.686   3.749   8.117  0.00  0.00    +0.005 C 
ATOM     28  C   UNL     1       2.107   4.524   7.148  0.00  0.00    -0.016 C 
ENDBRANCH  26  28
ENDBRANCH  24  26
ENDBRANCH  22  24
ENDBRANCH  20  22
ENDBRANCH  19  20
ENDBRANCH   1  19
TORSDOF 8
