REMARK  Name = ZINC12664594
REMARK  6 active torsions:
REMARK  status: ('A' for Active; 'I' for Inactive)
REMARK    1  A    between atoms: C_2  and  C_3
REMARK    2  A    between atoms: C_3  and  N_4
REMARK    3  A    between atoms: N_13  and  C_14
REMARK    4  A    between atoms: C_14  and  C_16
REMARK    5  A    between atoms: N_21  and  S_23
REMARK    6  A    between atoms: S_23  and  C_26
REMARK                            x       y       z     vdW  Elec       q    Type
REMARK                         _______ _______ _______ _____ _____    ______ ____
ROOT
ATOM      1  C   UNL     1       0.347   1.500   2.588  0.00  0.00    +0.243 C 
ATOM      2  O   UNL     1       1.271   0.720   2.462  0.00  0.00    -0.273 OA
ENDROOT
BRANCH   1  12
ATOM      3  N   UNL     1      -0.321   0.926   6.080  0.00  0.00    -0.308 N 
ATOM      4  C   UNL     1       0.242   0.104   7.040  0.00  0.00    +0.078 A 
ATOM      5  C   UNL     1      -0.116  -0.029   8.392  0.00  0.00    +0.066 A 
ATOM      6  C   UNL     1       0.556  -0.902   9.215  0.00  0.00    +0.023 A 
ATOM      7  C   UNL     1       1.604  -1.674   8.740  0.00  0.00    +0.022 A 
ATOM      8  C   UNL     1       1.978  -1.562   7.411  0.00  0.00    +0.057 A 
ATOM      9  C   UNL     1       1.305  -0.689   6.587  0.00  0.00    +0.059 A 
ATOM     10  S   UNL     1       1.442  -0.248   4.873  0.00  0.00    -0.051 S 
ATOM     11  C   UNL     1       0.162   0.921   4.810  0.00  0.00    +0.167 A 
ATOM     12  N   UNL     1      -0.251   1.637   3.766  0.00  0.00    -0.156 NA
ATOM     13 CL   UNL     1       3.287  -2.517   6.789  0.00  0.00    -0.082 Cl
ATOM     14 CL   UNL     1      -1.422   0.919   9.031  0.00  0.00    -0.081 Cl
BRANCH   3  15
ATOM     15  C   UNL     1      -1.441   1.802   6.433  0.00  0.00    +0.212 C 
BRANCH  15  17
ATOM     16  C   UNL     1      -1.539   3.833   4.740  0.00  0.00    +0.005 C 
ATOM     17  C   UNL     1      -1.496   2.932   5.491  0.00  0.00    -0.084 C 
ENDBRANCH  15  17
ENDBRANCH   3  15
ENDBRANCH   1  12
BRANCH   1  18
ATOM     18  C   UNL     1      -0.121   2.310   1.407  0.00  0.00    +0.093 C 
ATOM     19  C   UNL     1      -1.590   1.987   1.107  0.00  0.00    +0.015 C 
ATOM     20  C   UNL     1      -2.072   2.834  -0.072  0.00  0.00    +0.018 C 
ATOM     21  C   UNL     1      -1.241   2.494  -1.313  0.00  0.00    +0.109 C 
ATOM     22  N   UNL     1       0.182   2.663  -0.991  0.00  0.00    -0.176 NA
ATOM     23  C   UNL     1       0.729   1.964   0.180  0.00  0.00    +0.122 C 
BRANCH  22  24
ATOM     24  S   UNL     1       1.151   3.624  -1.929  0.00  0.00    +0.061 S 
ATOM     25  O   UNL     1       0.295   4.554  -2.578  0.00  0.00    -0.153 OA
ATOM     26  O   UNL     1       2.236   4.033  -1.107  0.00  0.00    -0.153 OA
BRANCH  24  27
ATOM     27  C   UNL     1       1.833   2.602  -3.191  0.00  0.00    +0.105 A 
ATOM     28  C   UNL     1       3.037   1.954  -2.981  0.00  0.00    +0.028 A 
ATOM     29  C   UNL     1       3.569   1.149  -3.970  0.00  0.00    +0.002 A 
ATOM     30  C   UNL     1       2.904   0.998  -5.172  0.00  0.00    +0.000 A 
ATOM     31  C   UNL     1       1.703   1.649  -5.384  0.00  0.00    +0.002 A 
ATOM     32  C   UNL     1       1.168   2.451  -4.393  0.00  0.00    +0.028 A 
ENDBRANCH  24  27
ENDBRANCH  22  24
ENDBRANCH   1  18
TORSDOF 6
