REMARK  Name = ZINC01334403
REMARK  16 active torsions:
REMARK  status: ('A' for Active; 'I' for Inactive)
REMARK    1  A    between atoms: C_1  and  C_2
REMARK    2  A    between atoms: C_2  and  C_3
REMARK    3  A    between atoms: C_3  and  C_4
REMARK    4  A    between atoms: C_3  and  C_5
REMARK    5  A    between atoms: C_3  and  N_6
REMARK    6  A    between atoms: C_7  and  C_11
REMARK    7  A    between atoms: C_11  and  C_13
REMARK    8  A    between atoms: C_11  and  N_16
REMARK    9  A    between atoms: C_13  and  C_14
REMARK   10  A    between atoms: C_13  and  C_15
REMARK   11  A    between atoms: N_16  and  C_17
REMARK   12  A    between atoms: N_16  and  C_26
REMARK   13  A    between atoms: C_17  and  C_18
REMARK   14  A    between atoms: C_21  and  O_24
REMARK   15  A    between atoms: O_24  and  C_25
REMARK   16  A    between atoms: C_26  and  C_27
REMARK                            x       y       z     vdW  Elec       q    Type
REMARK                         _______ _______ _______ _____ _____    ______ ____
ROOT
ATOM      1  N   UNL     1       4.243  -2.948  -3.696  0.00  0.00    -0.284 NA
ENDROOT
BRANCH   1   2
ATOM      2  C   UNL     1       2.922  -2.596  -3.158  0.00  0.00    +0.130 C 
BRANCH   2   4
ATOM      3  N   UNL     1       1.069  -3.972  -4.242  0.00  0.00    -0.222 N 
ATOM      4  C   UNL     1       1.864  -2.887  -4.190  0.00  0.00    +0.169 A 
ATOM      5  N   UNL     1       1.540  -2.134  -5.212  0.00  0.00    -0.112 NA
ATOM      6  N   UNL     1       0.594  -2.724  -5.858  0.00  0.00    -0.023 NA
ATOM      7  N   UNL     1       0.311  -3.838  -5.277  0.00  0.00    -0.043 NA
BRANCH   3   8
ATOM      8  C   UNL     1       1.068  -5.096  -3.302  0.00  0.00    +0.061 C 
ATOM      9  C   UNL     1       0.768  -4.582  -1.893  0.00  0.00    +0.036 C 
ATOM     10  C   UNL     1       2.439  -5.774  -3.317  0.00  0.00    +0.036 C 
BRANCH   8  12
ATOM     11  C   UNL     1      -0.006  -7.279  -2.735  0.00  0.00    +0.006 C 
ATOM     12  C   UNL     1      -0.005  -6.105  -3.716  0.00  0.00    +0.026 C 
ENDBRANCH   8  12
ENDBRANCH   3   8
ENDBRANCH   2   4
BRANCH   2  13
ATOM     13  C   UNL     1       2.895  -1.107  -2.806  0.00  0.00    +0.008 C 
ATOM     14  C   UNL     1       4.240  -0.702  -2.199  0.00  0.00    +0.009 C 
ATOM     15  C   UNL     1       2.640  -0.288  -4.073  0.00  0.00    +0.009 C 
ENDBRANCH   2  13
ENDBRANCH   1   2
BRANCH   1  16
ATOM     16  C   UNL     1       4.798  -1.845  -4.491  0.00  0.00    +0.120 C 
BRANCH  16  17
ATOM     17  C   UNL     1       4.680  -2.172  -5.957  0.00  0.00    -0.033 A 
ATOM     18  C   UNL     1       5.483  -3.151  -6.513  0.00  0.00    +0.008 A 
ATOM     19  C   UNL     1       5.377  -3.454  -7.857  0.00  0.00    +0.046 A 
ATOM     20  C   UNL     1       4.463  -2.774  -8.649  0.00  0.00    +0.120 A 
ATOM     21  C   UNL     1       3.658  -1.792  -8.089  0.00  0.00    +0.046 A 
ATOM     22  C   UNL     1       3.764  -1.497  -6.744  0.00  0.00    +0.008 A 
BRANCH  20  23
ATOM     23  O   UNL     1       4.357  -3.068  -9.971  0.00  0.00    -0.495 OA
ATOM     24  C   UNL     1       3.395  -2.329 -10.726  0.00  0.00    +0.277 C 
ENDBRANCH  20  23
ENDBRANCH  16  17
ENDBRANCH   1  16
BRANCH   1  25
ATOM     25  C   UNL     1       5.164  -3.338  -2.620  0.00  0.00    +0.126 C 
BRANCH  25  26
ATOM     26  C   UNL     1       4.721  -4.652  -2.031  0.00  0.00    +0.031 A 
ATOM     27  C   UNL     1       5.268  -5.811  -2.477  0.00  0.00    +0.020 A 
ATOM     28  C   UNL     1       4.818  -7.071  -1.885  0.00  0.00    +0.003 A 
ATOM     29  C   UNL     1       5.346  -8.297  -2.306  0.00  0.00    +0.059 A 
ATOM     30  C   UNL     1       4.903  -9.468  -1.729  0.00  0.00    +0.163 A 
ATOM     31  C   UNL     1       3.931  -9.434  -0.725  0.00  0.00    +0.164 A 
ATOM     32  C   UNL     1       3.401  -8.226  -0.304  0.00  0.00    +0.075 A 
ATOM     33  C   UNL     1       3.836  -7.038  -0.876  0.00  0.00    +0.053 A 
ATOM     34  N   UNL     1       3.319  -5.825  -0.468  0.00  0.00    -0.322 N 
ATOM     35  H   UNL     1       2.642  -5.803   0.227  0.00  0.00    +0.169 HD
ATOM     36  C   UNL     1       3.744  -4.673  -1.016  0.00  0.00    +0.254 A 
ATOM     37  O   UNL     1       3.268  -3.619  -0.627  0.00  0.00    -0.268 OA
ATOM     38  O   UNL     1       3.494 -10.585  -0.145  0.00  0.00    -0.485 OA
ATOM     39  C   UNL     1       3.768 -11.803  -0.844  0.00  0.00    +0.270 C 
ATOM     40  C   UNL     1       5.235 -11.782  -1.292  0.00  0.00    +0.270 C 
ATOM     41  O   UNL     1       5.425 -10.653  -2.151  0.00  0.00    -0.485 OA
ENDBRANCH  25  26
ENDBRANCH   1  25
TORSDOF 10
