REMARK  Name = ZINC09925929
REMARK  11 active torsions:
REMARK  status: ('A' for Active; 'I' for Inactive)
REMARK    1  A    between atoms: C_1  and  C_2
REMARK    2  A    between atoms: C_8  and  N_9
REMARK    3  A    between atoms: C_8  and  N_66
REMARK    4  A    between atoms: C_16  and  C_19
REMARK    5  A    between atoms: C_16  and  O_32
REMARK    6  A    between atoms: C_19  and  C_20
REMARK    7  A    between atoms: C_20  and  C_22
REMARK    8  A    between atoms: C_25  and  C_28
REMARK    9  A    between atoms: C_28  and  C_29
REMARK   10  A    between atoms: C_28  and  C_30
REMARK   11  A    between atoms: C_28  and  C_31
REMARK                            x       y       z     vdW  Elec       q    Type
REMARK                         _______ _______ _______ _____ _____    ______ ____
ROOT
ATOM      1  N   UNL     1      -0.261  -3.714  -1.319  0.00  0.00    -0.285 N 
ATOM      2  C   UNL     1      -1.356  -4.011  -0.507  0.00  0.00    +0.041 A 
ATOM      3  C   UNL     1      -2.502  -4.761  -0.763  0.00  0.00    +0.024 A 
ATOM      4  C   UNL     1      -3.462  -4.915   0.216  0.00  0.00    +0.002 A 
ATOM      5  C   UNL     1      -3.294  -4.329   1.458  0.00  0.00    +0.000 A 
ATOM      6  C   UNL     1      -2.159  -3.582   1.719  0.00  0.00    +0.009 A 
ATOM      7  C   UNL     1      -1.200  -3.426   0.743  0.00  0.00    +0.014 A 
ATOM      8  C   UNL     1       0.121  -2.693   0.708  0.00  0.00    +0.175 C 
ATOM      9  C   UNL     1       0.647  -2.950  -0.688  0.00  0.00    +0.255 C 
ATOM     10  O   UNL     1       1.692  -2.542  -1.151  0.00  0.00    -0.272 OA
ENDROOT
BRANCH   8  11
ATOM     11  O   UNL     1       1.018  -3.224   1.686  0.00  0.00    -0.374 OA
ATOM     12  H   UNL     1       1.891  -2.809   1.686  0.00  0.00    +0.211 HD
ENDBRANCH   8  11
BRANCH   1  13
ATOM     13  C   UNL     1      -0.117  -4.180  -2.700  0.00  0.00    +0.039 C 
BRANCH  13  20
ATOM     14  C   UNL     1       2.269  -4.470  -4.163  0.00  0.00    -0.013 C 
ATOM     15  C   UNL     1       1.330  -5.660  -3.956  0.00  0.00    -0.070 C 
ATOM     16  C   UNL     1       2.151  -6.949  -3.870  0.00  0.00    -0.016 C 
ATOM     17  C   UNL     1       1.209  -8.134  -3.643  0.00  0.00    -0.003 C 
ATOM     18  C   UNL     1       0.400  -7.895  -2.365  0.00  0.00    -0.019 C 
ATOM     19  C   UNL     1      -0.370  -6.579  -2.494  0.00  0.00    -0.076 C 
ATOM     20  N   UNL     1       0.594  -5.475  -2.687  0.00  0.00    +0.392 N 
ATOM     21  H   UNL     1       1.264  -5.480  -1.909  0.00  0.00    -0.079 HD
ENDBRANCH  13  20
ENDBRANCH   1  13
BRANCH   8  22
ATOM     22  C   UNL     1      -0.091  -1.195   0.934  0.00  0.00    +0.129 C 
BRANCH  22  23
ATOM     23  C   UNL     1       1.200  -0.461   0.679  0.00  0.00    +0.167 C 
ATOM     24  O   UNL     1       2.192  -1.075   0.349  0.00  0.00    -0.292 OA
BRANCH  23  25
ATOM     25  C   UNL     1       1.258   1.002   0.830  0.00  0.00    +0.018 A 
ATOM     26  C   UNL     1       0.114   1.715   1.205  0.00  0.00    +0.011 A 
ATOM     27  C   UNL     1       0.177   3.084   1.351  0.00  0.00    +0.005 A 
ATOM     28  C   UNL     1       1.365   3.755   1.116  0.00  0.00    -0.042 A 
ATOM     29  C   UNL     1       2.499   3.057   0.739  0.00  0.00    +0.005 A 
ATOM     30  C   UNL     1       2.454   1.687   0.595  0.00  0.00    +0.011 A 
BRANCH  28  31
ATOM     31  C   UNL     1       1.424   5.253   1.271  0.00  0.00    -0.013 C 
ATOM     32  C   UNL     1       1.826   5.889  -0.061  0.00  0.00    +0.015 C 
ATOM     33  C   UNL     1       0.049   5.776   1.692  0.00  0.00    +0.015 C 
ATOM     34  C   UNL     1       2.456   5.614   2.341  0.00  0.00    +0.015 C 
ENDBRANCH  28  31
ENDBRANCH  23  25
ENDBRANCH  22  23
ENDBRANCH   8  22
TORSDOF 7
