REMARK  Name = ZINC20535135
REMARK  3 active torsions:
REMARK  status: ('A' for Active; 'I' for Inactive)
REMARK    1  A    between atoms: C_6  and  C_7
REMARK    2  A    between atoms: C_10  and  C_13
REMARK    3  A    between atoms: N_18  and  C_20
REMARK                            x       y       z     vdW  Elec       q    Type
REMARK                         _______ _______ _______ _____ _____    ______ ____
ROOT
ATOM      1  C   UNL     1      -3.677  -0.782   0.019  0.00  0.00    +0.064 A 
ATOM      2  C   UNL     1      -3.823  -2.134   0.011  0.00  0.00    +0.110 A 
ATOM      3  N   UNL     1      -5.133  -2.407   0.017  0.00  0.00    -0.349 N 
ATOM      4  C   UNL     1      -5.811  -1.291   0.028  0.00  0.00    +0.090 A 
ATOM      5  N   UNL     1      -4.948  -0.252   0.036  0.00  0.00    -0.343 N 
ATOM      6  H   UNL     1      -5.088   0.839   0.052  0.00  0.00    +0.167 HD
ATOM      7  H   UNL     1      -5.478  -3.451   0.013  0.00  0.00    +0.166 HD
ENDROOT
BRANCH   1  13
ATOM      8  C   UNL     1      -2.417   1.366   0.026  0.00  0.00    +0.014 A 
ATOM      9  C   UNL     1      -1.228   2.066   0.019  0.00  0.00    +0.050 A 
ATOM     10  C   UNL     1      -0.017   1.387   0.010  0.00  0.00    +0.162 A 
ATOM     11  C   UNL     1       0.002  -0.004   0.002  0.00  0.00    +0.163 A 
ATOM     12  C   UNL     1      -1.188  -0.712   0.004  0.00  0.00    +0.059 A 
ATOM     13  C   UNL     1      -2.404  -0.029   0.016  0.00  0.00    +0.003 A 
ATOM     14  O   UNL     1       1.181  -0.685  -0.007  0.00  0.00    -0.485 OA
ATOM     15  C   UNL     1       2.347   0.054  -0.387  0.00  0.00    +0.270 C 
ATOM     16  C   UNL     1       2.335   1.391   0.365  0.00  0.00    +0.270 C 
ATOM     17  O   UNL     1       1.144   2.099   0.002  0.00  0.00    -0.485 OA
ENDBRANCH   1  13
BRANCH   4  18
ATOM     18  C   UNL     1      -7.314  -1.180   0.038  0.00  0.00    +0.079 C 
ATOM     19  C   UNL     1      -7.768   0.135   0.713  0.00  0.00    +0.108 C 
ATOM     20  C   UNL     1      -8.969   0.572  -0.095  0.00  0.00    +0.217 C 
ATOM     21  O   UNL     1      -9.784   1.397   0.262  0.00  0.00    -0.276 OA
ATOM     22  N   UNL     1      -9.002  -0.085  -1.268  0.00  0.00    -0.298 N 
ATOM     23  C   UNL     1      -7.865  -1.004  -1.395  0.00  0.00    +0.119 C 
BRANCH  22  24
ATOM     24  C   UNL     1     -10.039   0.093  -2.287  0.00  0.00    +0.076 C 
ATOM     25  C   UNL     1     -10.099   1.571  -2.727  0.00  0.00    +0.022 C 
ATOM     26  C   UNL     1     -11.609   1.840  -2.947  0.00  0.00    +0.002 C 
ATOM     27  C   UNL     1     -12.271   1.034  -1.802  0.00  0.00    +0.002 C 
ATOM     28  C   UNL     1     -11.419  -0.248  -1.699  0.00  0.00    +0.022 C 
ENDBRANCH  22  24
ENDBRANCH   4  18
TORSDOF 3
