REMARK  Name = ZINC06135923
REMARK  11 active torsions:
REMARK  status: ('A' for Active; 'I' for Inactive)
REMARK    1  A    between atoms: C_1  and  N_2
REMARK    2  A    between atoms: N_2  and  C_3
REMARK    3  A    between atoms: N_2  and  C_4
REMARK    4  A    between atoms: C_7  and  C_10
REMARK    5  A    between atoms: C_10  and  C_12
REMARK    6  A    between atoms: C_10  and  N_20
REMARK    7  A    between atoms: N_14  and  C_15
REMARK    8  A    between atoms: N_20  and  C_21
REMARK    9  A    between atoms: C_28  and  C_30
REMARK   10  A    between atoms: C_31  and  N_38
REMARK   11  A    between atoms: C_32  and  C_35
REMARK                            x       y       z     vdW  Elec       q    Type
REMARK                         _______ _______ _______ _____ _____    ______ ____
ROOT
ATOM      1  N   UNL     1      -0.901   1.474  -1.362  0.00  0.00    -0.251 N 
ATOM      2  C   UNL     1      -0.911   0.510  -2.304  0.00  0.00    +0.262 C 
ATOM      3  O   UNL     1      -0.066  -0.367  -2.286  0.00  0.00    -0.269 OA
ENDROOT
BRANCH   1   4
ATOM      4  C   UNL     1      -1.931   2.420  -1.317  0.00  0.00    +0.038 A 
ATOM      5  C   UNL     1      -2.881   2.367  -0.305  0.00  0.00    +0.026 A 
ATOM      6  C   UNL     1      -3.894   3.304  -0.260  0.00  0.00    +0.040 A 
ATOM      7  C   UNL     1      -3.970   4.290  -1.230  0.00  0.00    +0.124 A 
ATOM      8  C   UNL     1      -3.027   4.341  -2.243  0.00  0.00    +0.040 A 
ATOM      9  C   UNL     1      -2.009   3.409  -2.289  0.00  0.00    +0.026 A 
ATOM     10  F   UNL     1      -4.964   5.203  -1.187  0.00  0.00    -0.205 F 
ENDBRANCH   1   4
BRANCH   2  11
ATOM     11  C   UNL     1      -1.937   0.517  -3.348  0.00  0.00    +0.116 A 
ATOM     12  C   UNL     1      -2.060  -0.299  -4.473  0.00  0.00    +0.076 A 
ATOM     13  C   UNL     1      -3.184   0.012  -5.239  0.00  0.00    +0.155 A 
ATOM     14  N   UNL     1      -3.970   0.994  -4.857  0.00  0.00    -0.203 NA
ATOM     15  S   UNL     1      -3.358   1.576  -3.526  0.00  0.00    +0.019 S 
BRANCH  13  16
ATOM     16  C   UNL     1      -3.484  -0.748  -6.466  0.00  0.00    +0.262 C 
ATOM     17  O   UNL     1      -2.752  -1.655  -6.813  0.00  0.00    -0.269 OA
ATOM     18  N   UNL     1      -4.568  -0.437  -7.203  0.00  0.00    -0.324 N 
ATOM     19  H   UNL     1      -5.152   0.286  -6.926  0.00  0.00    +0.145 HD
ATOM     20  H   UNL     1      -4.765  -0.938  -8.011  0.00  0.00    +0.145 HD
ENDBRANCH  13  16
BRANCH  12  21
ATOM     21  N   UNL     1      -1.165  -1.311  -4.794  0.00  0.00    -0.355 N 
ATOM     22  H   UNL     1      -0.402  -1.483  -4.221  0.00  0.00    +0.142 HD
ATOM     23  H   UNL     1      -1.303  -1.847  -5.591  0.00  0.00    +0.142 HD
ENDBRANCH  12  21
ENDBRANCH   2  11
BRANCH   1  24
ATOM     24  C   UNL     1       0.189   1.532  -0.384  0.00  0.00    +0.197 C 
BRANCH  24  28
ATOM     25  C   UNL     1      -0.681   4.520   2.545  0.00  0.00    +0.029 A 
ATOM     26  C   UNL     1      -0.476   3.202   2.934  0.00  0.00    +0.023 A 
ATOM     27  C   UNL     1      -0.195   2.239   1.985  0.00  0.00    +0.008 A 
ATOM     28  C   UNL     1      -0.118   2.585   0.649  0.00  0.00    -0.018 A 
ATOM     29  C   UNL     1      -0.317   3.897   0.258  0.00  0.00    +0.008 A 
ATOM     30  C   UNL     1      -0.604   4.864   1.202  0.00  0.00    +0.023 A 
BRANCH  25  32
ATOM     31  C   UNL     1      -0.931   5.157   4.927  0.00  0.00    +0.129 C 
ATOM     32  N   UNL     1      -0.966   5.496   3.503  0.00  0.00    -0.336 N 
ATOM     33  C   UNL     1      -1.298   6.860   3.082  0.00  0.00    +0.129 C 
ENDBRANCH  25  32
ENDBRANCH  24  28
BRANCH  24  34
ATOM     34  C   UNL     1       1.477   1.878  -1.087  0.00  0.00    +0.239 C 
ATOM     35  O   UNL     1       1.483   2.058  -2.287  0.00  0.00    -0.273 OA
ATOM     36  N   UNL     1       2.621   1.986  -0.383  0.00  0.00    -0.311 N 
ATOM     37  H   UNL     1       2.615   1.842   0.576  0.00  0.00    +0.149 HD
BRANCH  36  38
ATOM     38  C   UNL     1       3.872   2.323  -1.067  0.00  0.00    +0.073 C 
ATOM     39  C   UNL     1       4.560   1.038  -1.571  0.00  0.00    +0.022 C 
ATOM     40  C   UNL     1       6.071   1.308  -1.362  0.00  0.00    +0.002 C 
ATOM     41  C   UNL     1       6.097   2.081  -0.020  0.00  0.00    +0.002 C 
ATOM     42  C   UNL     1       4.849   2.986  -0.081  0.00  0.00    +0.022 C 
ENDBRANCH  36  38
ENDBRANCH  24  34
ENDBRANCH   1  24
TORSDOF 9
