REMARK  Name = ZINC39767908
REMARK  11 active torsions:
REMARK  status: ('A' for Active; 'I' for Inactive)
REMARK    1  A    between atoms: C_1  and  C_2
REMARK    2  A    between atoms: C_2  and  C_4
REMARK    3  A    between atoms: C_2  and  S_15
REMARK    4  A    between atoms: C_10  and  C_12
REMARK    5  A    between atoms: S_15  and  C_16
REMARK    6  A    between atoms: C_19  and  C_24
REMARK    7  A    between atoms: N_20  and  C_21
REMARK    8  A    between atoms: C_21  and  C_22
REMARK    9  A    between atoms: C_24  and  C_25
REMARK   10  A    between atoms: C_25  and  C_26
REMARK   11  A    between atoms: N_28  and  C_29
REMARK                            x       y       z     vdW  Elec       q    Type
REMARK                         _______ _______ _______ _____ _____    ______ ____
ROOT
ATOM      1  C   UNL     1      -0.178  -0.058   2.805  0.00  0.00    +0.193 A 
ATOM      2  N   UNL     1      -1.310   0.603   2.730  0.00  0.00    -0.122 NA
ATOM      3  N   UNL     1      -1.774   0.808   3.911  0.00  0.00    -0.133 NA
ATOM      4  C   UNL     1      -0.974   0.296   4.802  0.00  0.00    +0.135 A 
ATOM      5  N   UNL     1       0.069  -0.280   4.130  0.00  0.00    -0.302 N 
ENDROOT
BRANCH   1   6
ATOM      6  S   UNL     1       0.829  -0.569   1.453  0.00  0.00    -0.074 S 
BRANCH   6   8
ATOM      7  C   UNL     1      -0.082   1.566   0.006  0.00  0.00    +0.029 C 
ATOM      8  C   UNL     1      -0.059   0.036  -0.009  0.00  0.00    +0.137 C 
BRANCH   8   9
ATOM      9  C   UNL     1       0.639  -0.444  -1.255  0.00  0.00    +0.232 C 
ATOM     10  O   UNL     1       1.797  -0.801  -1.202  0.00  0.00    -0.274 OA
ATOM     11  N   UNL     1      -0.023  -0.475  -2.428  0.00  0.00    -0.262 N 
ATOM     12  C   UNL     1       0.621  -0.918  -3.579  0.00  0.00    +0.188 A 
ATOM     13  N   UNL     1       1.858  -1.349  -3.725  0.00  0.00    -0.126 NA
ATOM     14  N   UNL     1       2.307  -1.722  -4.846  0.00  0.00    -0.144 NA
ATOM     15  C   UNL     1       1.516  -1.681  -5.899  0.00  0.00    +0.107 A 
ATOM     16  S   UNL     1       0.021  -1.052  -5.149  0.00  0.00    -0.035 S 
ATOM     17  H   UNL     1      -0.949  -0.190  -2.470  0.00  0.00    +0.157 HD
BRANCH  15  18
ATOM     18  C   UNL     1       1.792  -2.062  -7.331  0.00  0.00    +0.047 C 
ATOM     19  C   UNL     1       3.115  -2.770  -7.631  0.00  0.00    +0.011 C 
ATOM     20  C   UNL     1       2.912  -1.315  -8.058  0.00  0.00    +0.011 C 
ENDBRANCH  15  18
ENDBRANCH   8   9
ENDBRANCH   6   8
ENDBRANCH   1   6
BRANCH   5  21
ATOM     21  C   UNL     1       1.214  -0.985   4.711  0.00  0.00    +0.152 C 
BRANCH  21  22
ATOM     22  C   UNL     1       2.324  -0.003   4.982  0.00  0.00    -0.013 C 
ATOM     23  C   UNL     1       2.836   0.091   6.184  0.00  0.00    +0.005 C 
ENDBRANCH  21  22
ENDBRANCH   5  21
BRANCH   4  24
ATOM     24  C   UNL     1      -1.166   0.326   6.297  0.00  0.00    +0.085 C 
BRANCH  24  25
ATOM     25  C   UNL     1      -1.953  -0.910   6.735  0.00  0.00    +0.104 C 
BRANCH  25  26
ATOM     26  C   UNL     1      -2.145  -0.880   8.229  0.00  0.00    +0.218 C 
ATOM     27  O   UNL     1      -1.696   0.039   8.880  0.00  0.00    -0.275 OA
ATOM     28  N   UNL     1      -2.815  -1.876   8.843  0.00  0.00    -0.284 N 
ATOM     29  H   UNL     1      -3.231  -2.577   8.317  0.00  0.00    +0.155 HD
BRANCH  28  30
ATOM     30  C   UNL     1      -2.913  -1.897  10.239  0.00  0.00    +0.052 A 
ATOM     31  C   UNL     1      -3.009  -0.707  10.948  0.00  0.00    +0.025 A 
ATOM     32  C   UNL     1      -3.105  -0.731  12.326  0.00  0.00    +0.002 A 
ATOM     33  C   UNL     1      -3.106  -1.939  13.000  0.00  0.00    +0.002 A 
ATOM     34  C   UNL     1      -3.010  -3.126  12.297  0.00  0.00    +0.022 A 
ATOM     35  C   UNL     1      -2.919  -3.109  10.918  0.00  0.00    +0.062 A 
ATOM     36 CL   UNL     1      -2.806  -4.600  10.036  0.00  0.00    -0.082 Cl
ENDBRANCH  28  30
ENDBRANCH  25  26
ENDBRANCH  24  25
ENDBRANCH   4  24
TORSDOF 10
