REMARK  Name = ZINC40466448
REMARK  8 active torsions:
REMARK  status: ('A' for Active; 'I' for Inactive)
REMARK    1  A    between atoms: C_1  and  C_2
REMARK    2  A    between atoms: C_16  and  C_40
REMARK    3  A    between atoms: C_21  and  C_22
REMARK    4  A    between atoms: C_21  and  O_39
REMARK    5  A    between atoms: C_22  and  C_24
REMARK    6  A    between atoms: C_24  and  N_25
REMARK    7  A    between atoms: N_28  and  C_31
REMARK    8  A    between atoms: C_31  and  C_32
REMARK                            x       y       z     vdW  Elec       q    Type
REMARK                         _______ _______ _______ _____ _____    ______ ____
ROOT
ATOM      1  C   UNL     1      -0.442   0.636   0.352  0.00  0.00    +0.020 C 
ATOM      2  C   UNL     1      -0.416  -0.866   0.058  0.00  0.00    +0.011 C 
ATOM      3  C   UNL     1      -1.829  -1.390  -0.206  0.00  0.00    +0.023 C 
ATOM      4  C   UNL     1      -2.670  -1.222   1.063  0.00  0.00    +0.080 C 
ATOM      5  C   UNL     1      -1.994  -1.955   2.196  0.00  0.00    +0.156 C 
ATOM      6  O   UNL     1      -2.654  -2.395   3.115  0.00  0.00    -0.293 OA
ATOM      7  C   UNL     1      -0.544  -2.133   2.184  0.00  0.00    +0.046 C 
ATOM      8  C   UNL     1       0.195  -1.629   1.215  0.00  0.00    -0.056 C 
ATOM      9  C   UNL     1       1.691  -1.819   1.216  0.00  0.00    +0.032 C 
ATOM     10  C   UNL     1       2.131  -2.636   0.006  0.00  0.00    +0.012 C 
ATOM     11  C   UNL     1       1.167  -2.493  -1.163  0.00  0.00    +0.020 C 
ATOM     12  C   UNL     1       0.469  -1.166  -1.142  0.00  0.00    -0.060 C 
ATOM     13  C   UNL     1       0.603  -0.280  -2.075  0.00  0.00    -0.026 C 
ATOM     14  C   UNL     1       1.426  -0.465  -3.306  0.00  0.00    +0.037 C 
ATOM     15  C   UNL     1       2.478  -1.568  -3.141  0.00  0.00    +0.010 C 
ATOM     16  C   UNL     1       1.837  -2.783  -2.474  0.00  0.00    +0.006 C 
ATOM     17  C   UNL     1       0.898  -3.324  -3.562  0.00  0.00    +0.008 C 
ATOM     18  C   UNL     1       1.730  -3.156  -4.857  0.00  0.00    +0.043 C 
ATOM     19  C   UNL     1       2.768  -2.090  -4.578  0.00  0.00    +0.131 C 
ATOM     20  C   UNL     1       3.736  -1.077  -2.421  0.00  0.00    +0.015 C 
ENDROOT
BRANCH  19  21
ATOM     21  C   UNL     1       4.157  -2.669  -4.649  0.00  0.00    +0.179 C 
ATOM     22  O   UNL     1       4.342  -3.830  -4.371  0.00  0.00    -0.293 OA
BRANCH  21  23
ATOM     23  C   UNL     1       5.315  -1.800  -5.067  0.00  0.00    +0.161 C 
BRANCH  23  24
ATOM     24  N   UNL     1       6.551  -2.594  -5.056  0.00  0.00    -0.299 NA
ATOM     25  C   UNL     1       6.515  -3.639  -6.089  0.00  0.00    +0.066 C 
ATOM     26  C   UNL     1       7.791  -4.479  -6.005  0.00  0.00    -0.063 C 
ATOM     27  N   UNL     1       8.961  -3.613  -6.203  0.00  0.00    +0.385 N 
ATOM     28  C   UNL     1       8.997  -2.589  -5.150  0.00  0.00    -0.063 C 
ATOM     29  C   UNL     1       7.731  -1.734  -5.226  0.00  0.00    +0.066 C 
ATOM     30  H   UNL     1       8.900  -3.165  -7.105  0.00  0.00    -0.081 HD
BRANCH  27  31
ATOM     31  C   UNL     1      10.185  -4.422  -6.141  0.00  0.00    -0.021 C 
BRANCH  31  32
ATOM     32  C   UNL     1      11.376  -3.557  -6.465  0.00  0.00    +0.046 A 
ATOM     33  C   UNL     1      11.911  -2.731  -5.487  0.00  0.00    +0.196 A 
ATOM     34  C   UNL     1      13.010  -1.938  -5.799  0.00  0.00    +0.054 A 
ATOM     35  C   UNL     1      13.529  -2.007  -7.082  0.00  0.00    +0.021 A 
ATOM     36  C   UNL     1      12.941  -2.855  -8.002  0.00  0.00    +0.083 A 
ATOM     37  N   UNL     1      11.903  -3.597  -7.673  0.00  0.00    -0.363 N 
ATOM     38  O   UNL     1      11.367  -2.696  -4.242  0.00  0.00    -0.286 OA
ATOM     39  H   UNL     1      11.513  -4.186  -8.338  0.00  0.00    +0.165 HD
ENDBRANCH  31  32
ENDBRANCH  27  31
ENDBRANCH  23  24
ENDBRANCH  21  23
ENDBRANCH  19  21
BRANCH  19  40
ATOM     40  O   UNL     1       2.627  -1.028  -5.524  0.00  0.00    -0.380 OA
ATOM     41  H   UNL     1       2.796  -1.292  -6.439  0.00  0.00    +0.211 HD
ENDBRANCH  19  40
TORSDOF 6
