REMARK  Name = ZINC09698722
REMARK  8 active torsions:
REMARK  status: ('A' for Active; 'I' for Inactive)
REMARK    1  A    between atoms: C_1  and  C_2
REMARK    2  A    between atoms: C_5  and  N_8
REMARK    3  A    between atoms: C_10  and  C_15
REMARK    4  A    between atoms: C_20  and  C_23
REMARK    5  A    between atoms: C_23  and  C_24
REMARK    6  A    between atoms: N_26  and  C_27
REMARK    7  A    between atoms: C_29  and  C_34
REMARK    8  A    between atoms: C_32  and  C_33
REMARK                            x       y       z     vdW  Elec       q    Type
REMARK                         _______ _______ _______ _____ _____    ______ ____
ROOT
ATOM      1  C   UNL     1      -0.789   0.594  -2.337  0.00  0.00    +0.224 C 
ATOM      2  O   UNL     1      -0.228  -0.472  -2.196  0.00  0.00    -0.275 OA
ATOM      3  N   UNL     1      -1.424   0.874  -3.492  0.00  0.00    -0.264 N 
ATOM      4  C   UNL     1      -1.434  -0.059  -4.523  0.00  0.00    +0.165 A 
ATOM      5  N   UNL     1      -1.998   0.026  -5.712  0.00  0.00    -0.229 NA
ATOM      6  C   UNL     1      -1.908  -0.959  -6.583  0.00  0.00    +0.059 A 
ATOM      7  C   UNL     1      -1.228  -2.076  -6.227  0.00  0.00    +0.072 A 
ATOM      8  S   UNL     1      -0.715  -1.638  -4.572  0.00  0.00    -0.060 S 
ATOM      9  H   UNL     1      -1.873   1.726  -3.605  0.00  0.00    +0.157 HD
ENDROOT
BRANCH   1  12
ATOM     10  N   UNL     1      -0.716   1.572   1.179  0.00  0.00    -0.271 N 
ATOM     11  C   UNL     1       0.004   1.071   0.001  0.00  0.00    +0.127 C 
ATOM     12  C   UNL     1      -0.778   1.605  -1.219  0.00  0.00    +0.102 C 
ATOM     13  C   UNL     1      -2.195   1.793  -0.628  0.00  0.00    +0.110 C 
ATOM     14  C   UNL     1      -1.957   1.978   0.854  0.00  0.00    +0.221 C 
ATOM     15  O   UNL     1      -2.767   2.428   1.637  0.00  0.00    -0.275 OA
BRANCH  10  20
ATOM     16  C   UNL     1       1.459   1.766   6.415  0.00  0.00    +0.044 C 
ATOM     17  C   UNL     1       0.881   1.714   5.024  0.00  0.00    -0.050 A 
ATOM     18  C   UNL     1      -0.408   2.157   4.796  0.00  0.00    +0.005 A 
ATOM     19  C   UNL     1      -0.941   2.111   3.522  0.00  0.00    +0.024 A 
ATOM     20  C   UNL     1      -0.179   1.619   2.470  0.00  0.00    +0.036 A 
ATOM     21  C   UNL     1       1.114   1.170   2.704  0.00  0.00    +0.024 A 
ATOM     22  C   UNL     1       1.642   1.223   3.979  0.00  0.00    +0.005 A 
ENDBRANCH  10  20
ENDBRANCH   1  12
BRANCH   6  23
ATOM     23  C   UNL     1      -2.551  -0.849  -7.942  0.00  0.00    +0.152 C 
BRANCH  23  24
ATOM     24  C   UNL     1      -4.014  -0.526  -7.780  0.00  0.00    +0.223 C 
ATOM     25  O   UNL     1      -4.488  -0.398  -6.671  0.00  0.00    -0.275 OA
ATOM     26  N   UNL     1      -4.795  -0.379  -8.869  0.00  0.00    -0.285 N 
ATOM     27  H   UNL     1      -4.402  -0.401  -9.755  0.00  0.00    +0.155 HD
BRANCH  26  28
ATOM     28  C   UNL     1      -6.174  -0.194  -8.720  0.00  0.00    +0.037 A 
ATOM     29  C   UNL     1      -6.819  -0.656  -7.580  0.00  0.00    +0.027 A 
ATOM     30  C   UNL     1      -8.180  -0.468  -7.434  0.00  0.00    -0.049 A 
ATOM     31  C   UNL     1      -8.901   0.171  -8.425  0.00  0.00    +0.004 A 
ATOM     32  C   UNL     1      -8.263   0.628  -9.564  0.00  0.00    +0.005 A 
ATOM     33  C   UNL     1      -6.902   0.447  -9.714  0.00  0.00    -0.029 A 
ATOM     34  C   UNL     1      -6.207   0.944 -10.955  0.00  0.00    +0.045 C 
ATOM     35  C   UNL     1      -8.879  -0.965  -6.195  0.00  0.00    +0.044 C 
ENDBRANCH  26  28
ENDBRANCH  23  24
ENDBRANCH   6  23
TORSDOF 5
