REMARK  Name = ZINC06351646
REMARK  9 active torsions:
REMARK  status: ('A' for Active; 'I' for Inactive)
REMARK    1  A    between atoms: C_1  and  C_2
REMARK    2  A    between atoms: C_2  and  C_4
REMARK    3  A    between atoms: C_2  and  O_15
REMARK    4  A    between atoms: N_6  and  C_7
REMARK    5  A    between atoms: C_7  and  C_13
REMARK    6  A    between atoms: O_15  and  C_16
REMARK    7  A    between atoms: C_16  and  C_18
REMARK    8  A    between atoms: C_23  and  O_24
REMARK    9  A    between atoms: O_24  and  C_25
REMARK                            x       y       z     vdW  Elec       q    Type
REMARK                         _______ _______ _______ _____ _____    ______ ____
ROOT
ATOM      1  O   UNL     1       1.245   2.352   0.008  0.00  0.00    -0.449 OA
ENDROOT
BRANCH   1   3
ATOM      2  C   UNL     1      -0.651   0.828   0.122  0.00  0.00    +0.062 C 
ATOM      3  C   UNL     1      -0.205   2.288   0.017  0.00  0.00    +0.259 C 
BRANCH   3   4
ATOM      4  C   UNL     1      -0.743   2.887  -1.257  0.00  0.00    +0.255 C 
ATOM      5  O   UNL     1       0.021   3.241  -2.130  0.00  0.00    -0.272 OA
ATOM      6  N   UNL     1      -2.072   3.029  -1.427  0.00  0.00    -0.294 N 
ATOM      7  H   UNL     1      -2.683   2.745  -0.729  0.00  0.00    +0.150 HD
BRANCH   6   8
ATOM      8  C   UNL     1      -2.594   3.611  -2.666  0.00  0.00    +0.121 C 
ATOM      9  C   UNL     1      -2.047   5.029  -2.833  0.00  0.00    +0.041 C 
ATOM     10  C   UNL     1      -2.592   5.637  -4.127  0.00  0.00    +0.003 C 
ATOM     11  C   UNL     1      -4.120   5.684  -4.064  0.00  0.00    +0.000 C 
ATOM     12  C   UNL     1      -4.668   4.266  -3.897  0.00  0.00    +0.003 C 
ATOM     13  C   UNL     1      -4.122   3.658  -2.603  0.00  0.00    +0.041 C 
BRANCH   8  14
ATOM     14  C   UNL     1      -2.176   2.785  -3.811  0.00  0.00    +0.088 C 
ATOM     15  N   UNL     1      -1.853   2.148  -4.694  0.00  0.00    -0.194 NA
ENDBRANCH   8  14
ENDBRANCH   6   8
ENDBRANCH   3   4
ENDBRANCH   1   3
BRANCH   1  16
ATOM     16  C   UNL     1       1.860   2.463   1.202  0.00  0.00    +0.343 C 
ATOM     17  O   UNL     1       1.202   2.506   2.222  0.00  0.00    -0.245 OA
BRANCH  16  18
ATOM     18  C   UNL     1       3.331   2.533   1.269  0.00  0.00    +0.101 A 
ATOM     19  C   UNL     1       4.092   2.478   0.098  0.00  0.00    +0.018 A 
ATOM     20  C   UNL     1       5.466   2.549   0.168  0.00  0.00    +0.001 A 
ATOM     21  C   UNL     1       6.099   2.664   1.395  0.00  0.00    +0.004 A 
ATOM     22  C   UNL     1       5.360   2.714   2.560  0.00  0.00    +0.047 A 
ATOM     23  C   UNL     1       3.975   2.650   2.509  0.00  0.00    +0.142 A 
BRANCH  23  24
ATOM     24  O   UNL     1       3.248   2.699   3.653  0.00  0.00    -0.455 OA
BRANCH  24  25
ATOM     25  C   UNL     1       3.917   2.823   4.829  0.00  0.00    +0.128 A 
ATOM     26  C   UNL     1       4.317   1.691   5.525  0.00  0.00    +0.046 A 
ATOM     27  C   UNL     1       5.001   1.821   6.718  0.00  0.00    +0.004 A 
ATOM     28  C   UNL     1       5.278   3.077   7.224  0.00  0.00    +0.000 A 
ATOM     29  C   UNL     1       4.876   4.207   6.536  0.00  0.00    +0.004 A 
ATOM     30  C   UNL     1       4.196   4.083   5.340  0.00  0.00    +0.046 A 
ENDBRANCH  24  25
ENDBRANCH  23  24
ENDBRANCH  16  18
ENDBRANCH   1  16
TORSDOF 8
