REMARK  Name = ZINC39678561
REMARK  6 active torsions:
REMARK  status: ('A' for Active; 'I' for Inactive)
REMARK    1  A    between atoms: C_3  and  C_11
REMARK    2  A    between atoms: C_5  and  O_7
REMARK    3  A    between atoms: O_7  and  C_8
REMARK    4  A    between atoms: C_11  and  N_12
REMARK    5  A    between atoms: C_13  and  C_15
REMARK    6  A    between atoms: C_26  and  C_28
REMARK                            x       y       z     vdW  Elec       q    Type
REMARK                         _______ _______ _______ _____ _____    ______ ____
ROOT
ATOM      1  C   UNL     1       5.669   3.055   2.095  0.00  0.00    +0.100 C 
ATOM      2  C   UNL     1       5.862   2.062   3.263  0.00  0.00    +0.121 C 
ATOM      3  N   UNL     1       7.300   1.707   3.219  0.00  0.00    -0.300 N 
ATOM      4  C   UNL     1       7.984   2.981   2.890  0.00  0.00    +0.115 C 
ATOM      5  C   UNL     1       7.063   3.659   1.856  0.00  0.00    -0.004 C 
ATOM      6  C   UNL     1       7.033   5.167   2.085  0.00  0.00    -0.010 C 
ATOM      7  C   UNL     1       8.415   5.753   1.785  0.00  0.00    -0.082 C 
ATOM      8  N   UNL     1       8.783   5.456   0.395  0.00  0.00    +0.379 N 
ATOM      9  C   UNL     1       8.901   4.005   0.207  0.00  0.00    -0.082 C 
ATOM     10  C   UNL     1       7.539   3.345   0.441  0.00  0.00    -0.010 C 
ATOM     11  C   UNL     1       7.860   0.500   3.431  0.00  0.00    +0.219 C 
ATOM     12  O   UNL     1       7.156  -0.471   3.617  0.00  0.00    -0.275 OA
ATOM     13  H   UNL     1       8.073   5.817  -0.224  0.00  0.00    -0.086 HD
ATOM     14  H   UNL     1       9.666   5.894   0.181  0.00  0.00    -0.086 HD
ENDROOT
BRANCH  11  15
ATOM     15  C   UNL     1       9.360   0.355   3.438  0.00  0.00    +0.079 C 
ATOM     16  C   UNL     1       9.741  -1.084   3.068  0.00  0.00    +0.017 C 
ATOM     17  C   UNL     1      11.261  -1.156   2.908  0.00  0.00    +0.027 C 
ATOM     18  C   UNL     1      11.936  -0.530   4.093  0.00  0.00    -0.031 C 
ATOM     19  C   UNL     1      11.345   0.261   4.930  0.00  0.00    -0.030 C 
ATOM     20  C   UNL     1       9.900   0.659   4.837  0.00  0.00    +0.039 C 
ENDBRANCH  11  15
BRANCH   1  22
ATOM     21  N   UNL     1       4.431   2.973  -0.044  0.00  0.00    -0.311 N 
ATOM     22  C   UNL     1       5.193   2.330   0.863  0.00  0.00    +0.218 C 
ATOM     23  O   UNL     1       5.496   1.169   0.687  0.00  0.00    -0.275 OA
ATOM     24  H   UNL     1       4.189   3.901   0.096  0.00  0.00    +0.149 HD
BRANCH  21  25
ATOM     25  C   UNL     1       3.968   2.268  -1.242  0.00  0.00    +0.139 C 
BRANCH  25  28
ATOM     26  C   UNL     1       2.991   4.835  -3.834  0.00  0.00    +0.004 A 
ATOM     27  C   UNL     1       3.748   3.977  -3.058  0.00  0.00    +0.005 A 
ATOM     28  C   UNL     1       3.140   3.203  -2.087  0.00  0.00    -0.027 A 
ATOM     29  C   UNL     1       1.775   3.285  -1.890  0.00  0.00    +0.051 A 
ATOM     30  C   UNL     1       1.014   4.146  -2.667  0.00  0.00    +0.127 A 
ATOM     31  C   UNL     1       1.627   4.922  -3.641  0.00  0.00    +0.046 A 
BRANCH  30  32
ATOM     32  O   UNL     1      -0.328   4.229  -2.475  0.00  0.00    -0.434 OA
BRANCH  32  33
ATOM     33  C   UNL     1      -1.048   5.136  -3.312  0.00  0.00    +0.541 C 
ATOM     34  F   UNL     1      -0.561   6.434  -3.122  0.00  0.00    -0.166 F 
ATOM     35  F   UNL     1      -0.882   4.768  -4.651  0.00  0.00    -0.166 F 
ENDBRANCH  32  33
ENDBRANCH  30  32
ENDBRANCH  25  28
ENDBRANCH  21  25
ENDBRANCH   1  22
TORSDOF 6
