REMARK  Name = ZINC09435247
REMARK  10 active torsions:
REMARK  status: ('A' for Active; 'I' for Inactive)
REMARK    1  A    between atoms: C_1  and  C_2
REMARK    2  A    between atoms: C_6  and  O_32
REMARK    3  A    between atoms: C_7  and  C_31
REMARK    4  A    between atoms: C_12  and  C_13
REMARK    5  A    between atoms: C_13  and  C_14
REMARK    6  A    between atoms: C_14  and  C_15
REMARK    7  A    between atoms: N_17  and  C_18
REMARK    8  A    between atoms: C_18  and  C_19
REMARK    9  A    between atoms: C_19  and  C_20
REMARK   10  A    between atoms: O_32  and  C_33
REMARK                            x       y       z     vdW  Elec       q    Type
REMARK                         _______ _______ _______ _____ _____    ______ ____
ROOT
ATOM      1  C   UNL     1       1.104   4.103   1.456  0.00  0.00    +0.100 C 
ENDROOT
BRANCH   1   2
ATOM      2  C   UNL     1       1.041   5.608   1.465  0.00  0.00    +0.213 C 
ATOM      3  O   UNL     1       1.006   6.220   0.418  0.00  0.00    -0.276 OA
ATOM      4  N   UNL     1       1.024   6.275   2.636  0.00  0.00    -0.315 N 
ATOM      5  H   UNL     1       1.052   5.786   3.473  0.00  0.00    +0.149 HD
BRANCH   4   6
ATOM      6  C   UNL     1       0.964   7.739   2.644  0.00  0.00    +0.109 C 
BRANCH   6   7
ATOM      7  C   UNL     1       0.956   8.241   4.089  0.00  0.00    +0.056 C 
BRANCH   7   8
ATOM      8  C   UNL     1       0.894   9.746   4.098  0.00  0.00    -0.021 A 
ATOM      9  C   UNL     1       1.935  10.588   4.186  0.00  0.00    +0.087 A 
ATOM     10  N   UNL     1       1.493  11.883   4.163  0.00  0.00    -0.360 N 
ATOM     11  H   UNL     1       2.061  12.667   4.213  0.00  0.00    +0.165 HD
ATOM     12  C   UNL     1       0.119  11.906   4.056  0.00  0.00    +0.047 A 
ATOM     13  C   UNL     1      -0.315  10.569   4.005  0.00  0.00    +0.004 A 
ATOM     14  C   UNL     1      -1.678  10.282   3.902  0.00  0.00    +0.030 A 
ATOM     15  C   UNL     1      -2.588  11.314   3.840  0.00  0.00    +0.042 A 
ATOM     16  C   UNL     1      -2.158  12.634   3.885  0.00  0.00    +0.022 A 
ATOM     17  C   UNL     1      -0.817  12.932   3.992  0.00  0.00    +0.027 A 
ATOM     18 CL   UNL     1      -4.283  10.963   3.705  0.00  0.00    -0.084 Cl
ENDBRANCH   7   8
ENDBRANCH   6   7
ENDBRANCH   4   6
ENDBRANCH   1   2
BRANCH   1  19
ATOM     19  C   UNL     1       1.111   3.601   0.011  0.00  0.00    +0.052 C 
BRANCH  19  31
ATOM     20  C   UNL     1       3.663   2.248  -0.020  0.00  0.00    +0.045 C 
ATOM     21  C   UNL     1       2.376   1.463  -0.012  0.00  0.00    -0.030 A 
ATOM     22  C   UNL     1       2.389  -0.001  -0.021  0.00  0.00    +0.021 A 
ATOM     23  C   UNL     1       3.594  -0.712  -0.036  0.00  0.00    +0.015 A 
ATOM     24  C   UNL     1       3.577  -2.076  -0.043  0.00  0.00    +0.047 A 
ATOM     25  C   UNL     1       2.367  -2.767  -0.036  0.00  0.00    +0.127 A 
ATOM     26  C   UNL     1       1.164  -2.080  -0.021  0.00  0.00    +0.034 A 
ATOM     27  C   UNL     1       1.163  -0.693  -0.013  0.00  0.00    +0.146 A 
ATOM     28  O   UNL     1       0.002  -0.004   0.002  0.00  0.00    -0.422 OA
ATOM     29  C   UNL     1      -0.016   1.338   0.009  0.00  0.00    +0.341 A 
ATOM     30  O   UNL     1      -1.088   1.917   0.018  0.00  0.00    -0.245 OA
ATOM     31  C   UNL     1       1.173   2.095   0.002  0.00  0.00    +0.041 A 
ATOM     32  C   UNL     1      -0.139  -2.837  -0.012  0.00  0.00    +0.051 C 
BRANCH  25  33
ATOM     33  O   UNL     1       2.367  -4.124  -0.044  0.00  0.00    -0.495 OA
ATOM     34  C   UNL     1       3.640  -4.773  -0.060  0.00  0.00    +0.277 C 
ENDBRANCH  25  33
ENDBRANCH  19  31
ENDBRANCH   1  19
TORSDOF 7
