REMARK  Name = ZINC36206536
REMARK  17 active torsions:
REMARK  status: ('A' for Active; 'I' for Inactive)
REMARK    1  A    between atoms: C_1  and  C_2
REMARK    2  A    between atoms: C_2  and  C_3
REMARK    3  A    between atoms: C_2  and  C_4
REMARK    4  A    between atoms: C_4  and  N_5
REMARK    5  A    between atoms: N_5  and  C_6
REMARK    6  A    between atoms: N_5  and  C_26
REMARK    7  A    between atoms: C_6  and  C_7
REMARK    8  A    between atoms: C_13  and  C_18
REMARK    9  A    between atoms: C_23  and  O_24
REMARK   10  A    between atoms: O_24  and  C_25
REMARK   11  A    between atoms: C_26  and  C_27
REMARK   12  A    between atoms: C_27  and  C_29
REMARK   13  A    between atoms: C_27  and  O_34
REMARK   14  A    between atoms: C_29  and  O_30
REMARK   15  A    between atoms: O_30  and  C_31
REMARK   16  A    between atoms: C_31  and  C_32
REMARK   17  A    between atoms: C_31  and  C_33
REMARK                            x       y       z     vdW  Elec       q    Type
REMARK                         _______ _______ _______ _____ _____    ______ ____
ROOT
ATOM      1  C   UNL     1       4.512  -1.031  -0.730  0.00  0.00    +0.094 A 
ATOM      2  N   UNL     1       5.304  -1.903  -0.054  0.00  0.00    -0.312 N 
ATOM      3  H   UNL     1       4.906  -2.497   0.602  0.00  0.00    +0.170 HD
ATOM      4  C   UNL     1       6.630  -1.960  -0.276  0.00  0.00    +0.260 A 
ATOM      5  O   UNL     1       7.327  -2.748   0.339  0.00  0.00    -0.267 OA
ATOM      6  C   UNL     1       7.209  -1.081  -1.245  0.00  0.00    +0.080 A 
ATOM      7  C   UNL     1       8.601  -0.953  -1.660  0.00  0.00    +0.007 A 
ATOM      8  C   UNL     1       8.917  -0.039  -2.608  0.00  0.00    +0.056 A 
ATOM      9  S   UNL     1       7.347   0.708  -3.001  0.00  0.00    -0.076 S 
ATOM     10  C   UNL     1       6.313  -0.215  -1.894  0.00  0.00    +0.116 A 
ATOM     11  N   UNL     1       5.011  -0.220  -1.624  0.00  0.00    -0.229 NA
ENDROOT
BRANCH   7  12
ATOM     12  C   UNL     1       9.651  -1.807  -1.054  0.00  0.00    +0.025 A 
ATOM     13  C   UNL     1      10.657  -1.234  -0.278  0.00  0.00    +0.012 A 
ATOM     14  C   UNL     1      11.632  -2.034   0.283  0.00  0.00    +0.001 A 
ATOM     15  C   UNL     1      11.614  -3.402   0.079  0.00  0.00    +0.004 A 
ATOM     16  C   UNL     1      10.620  -3.980  -0.689  0.00  0.00    +0.046 A 
ATOM     17  C   UNL     1       9.633  -3.191  -1.254  0.00  0.00    +0.128 A 
BRANCH  17  18
ATOM     18  O   UNL     1       8.652  -3.758  -2.005  0.00  0.00    -0.495 OA
ATOM     19  C   UNL     1       8.698  -5.177  -2.166  0.00  0.00    +0.277 C 
ENDBRANCH  17  18
ENDBRANCH   7  12
BRANCH   1  20
ATOM     20  C   UNL     1       3.032  -1.004  -0.448  0.00  0.00    -0.003 C 
BRANCH  20  21
ATOM     21  N   UNL     1       2.369  -0.100  -1.398  0.00  0.00    +0.386 N 
ATOM     22  H   UNL     1       2.840   0.793  -1.397  0.00  0.00    -0.081 HD
BRANCH  21  23
ATOM     23  C   UNL     1       0.967   0.085  -1.001  0.00  0.00    -0.075 C 
BRANCH  23  25
ATOM     24  C   UNL     1       1.565   2.118   0.323  0.00  0.00    +0.005 C 
ATOM     25  C   UNL     1       0.910   0.736   0.382  0.00  0.00    -0.034 C 
ATOM     26  C   UNL     1      -0.550   0.881   0.817  0.00  0.00    +0.005 C 
ENDBRANCH  23  25
ENDBRANCH  21  23
BRANCH  21  27
ATOM     27  C   UNL     1       2.425  -0.681  -2.746  0.00  0.00    -0.044 C 
BRANCH  27  28
ATOM     28  C   UNL     1       1.912   0.341  -3.763  0.00  0.00    +0.124 C 
BRANCH  28  29
ATOM     29  O   UNL     1       0.505   0.522  -3.589  0.00  0.00    -0.391 OA
ATOM     30  H   UNL     1      -0.013  -0.286  -3.710  0.00  0.00    +0.210 HD
ENDBRANCH  28  29
BRANCH  28  31
ATOM     31  C   UNL     1       2.190  -0.165  -5.180  0.00  0.00    +0.189 C 
BRANCH  31  32
ATOM     32  O   UNL     1       1.818   0.839  -6.126  0.00  0.00    -0.375 OA
BRANCH  32  33
ATOM     33  C   UNL     1       2.038   0.464  -7.487  0.00  0.00    +0.112 C 
ATOM     34  C   UNL     1       0.786  -0.222  -8.037  0.00  0.00    +0.037 C 
ATOM     35  C   UNL     1       2.341   1.714  -8.317  0.00  0.00    +0.037 C 
ENDBRANCH  32  33
ENDBRANCH  31  32
ENDBRANCH  28  31
ENDBRANCH  27  28
ENDBRANCH  21  27
ENDBRANCH  20  21
ENDBRANCH   1  20
TORSDOF 12
