REMARK  Name = ZINC35969322
REMARK  14 active torsions:
REMARK  status: ('A' for Active; 'I' for Inactive)
REMARK    1  A    between atoms: C_1  and  C_2
REMARK    2  A    between atoms: C_2  and  C_3
REMARK    3  A    between atoms: C_2  and  C_4
REMARK    4  A    between atoms: C_4  and  N_5
REMARK    5  A    between atoms: C_6  and  C_8
REMARK    6  A    between atoms: C_8  and  C_10
REMARK    7  A    between atoms: C_8  and  N_13
REMARK    8  A    between atoms: C_10  and  C_11
REMARK    9  A    between atoms: C_10  and  C_12
REMARK   10  A    between atoms: C_19  and  C_28
REMARK   11  A    between atoms: N_24  and  C_25
REMARK   12  A    between atoms: C_25  and  C_26
REMARK   13  A    between atoms: C_32  and  O_34
REMARK   14  A    between atoms: O_34  and  C_35
REMARK                            x       y       z     vdW  Elec       q    Type
REMARK                         _______ _______ _______ _____ _____    ______ ____
ROOT
ATOM      1  N   UNL     1      -3.844  -4.650  -0.361  0.00  0.00    -0.280 N 
ATOM      2  C   UNL     1      -4.463  -5.698   0.464  0.00  0.00    +0.160 C 
ATOM      3  C   UNL     1      -5.851  -5.875  -0.110  0.00  0.00    +0.043 C 
ATOM      4  C   UNL     1      -5.952  -5.006  -1.136  0.00  0.00    +0.058 C 
ATOM      5  C   UNL     1      -4.755  -4.275  -1.278  0.00  0.00    +0.247 C 
ATOM      6  O   UNL     1      -4.568  -3.418  -2.123  0.00  0.00    -0.270 OA
ATOM      7  C   UNL     1      -7.258  -4.969  -1.903  0.00  0.00    +0.142 C 
ATOM      8  N   UNL     1      -8.317  -5.893  -1.462  0.00  0.00    -0.288 N 
ATOM      9  C   UNL     1      -8.065  -6.705  -0.416  0.00  0.00    +0.307 C 
ATOM     10  O   UNL     1      -8.933  -7.471  -0.044  0.00  0.00    -0.252 OA
ATOM     11  N   UNL     1      -6.890  -6.695   0.227  0.00  0.00    -0.253 N 
ATOM     12  H   UNL     1      -9.175  -5.916  -1.913  0.00  0.00    +0.151 HD
ENDROOT
BRANCH   7  13
ATOM     13  C   UNL     1      -7.803  -3.567  -1.826  0.00  0.00    -0.019 A 
ATOM     14  C   UNL     1      -8.471  -3.147  -0.689  0.00  0.00    +0.006 A 
ATOM     15  C   UNL     1      -8.972  -1.861  -0.615  0.00  0.00    +0.004 A 
ATOM     16  C   UNL     1      -8.808  -0.991  -1.676  0.00  0.00    +0.046 A 
ATOM     17  C   UNL     1      -8.139  -1.410  -2.817  0.00  0.00    +0.129 A 
ATOM     18  C   UNL     1      -7.632  -2.700  -2.887  0.00  0.00    +0.052 A 
BRANCH  17  19
ATOM     19  O   UNL     1      -7.976  -0.557  -3.862  0.00  0.00    -0.456 OA
BRANCH  19  20
ATOM     20  C   UNL     1      -8.763  -0.731  -4.956  0.00  0.00    +0.128 A 
ATOM     21  C   UNL     1      -9.783  -1.672  -4.936  0.00  0.00    +0.046 A 
ATOM     22  C   UNL     1     -10.581  -1.847  -6.050  0.00  0.00    +0.004 A 
ATOM     23  C   UNL     1     -10.365  -1.085  -7.183  0.00  0.00    +0.000 A 
ATOM     24  C   UNL     1      -9.350  -0.147  -7.206  0.00  0.00    +0.004 A 
ATOM     25  C   UNL     1      -8.553   0.037  -6.093  0.00  0.00    +0.046 A 
ENDBRANCH  19  20
ENDBRANCH  17  19
ENDBRANCH   7  13
BRANCH   1  26
ATOM     26  C   UNL     1      -2.490  -4.111  -0.209  0.00  0.00    +0.165 C 
BRANCH  26  28
ATOM     27  N   UNL     1      -1.503  -1.988   0.589  0.00  0.00    -0.314 N 
ATOM     28  C   UNL     1      -2.567  -2.632   0.069  0.00  0.00    +0.234 C 
ATOM     29  O   UNL     1      -3.586  -2.021  -0.174  0.00  0.00    -0.274 OA
ATOM     30  H   UNL     1      -0.717  -2.489   0.858  0.00  0.00    +0.149 HD
BRANCH  27  31
ATOM     31  C   UNL     1      -1.534  -0.532   0.748  0.00  0.00    +0.107 C 
BRANCH  31  33
ATOM     32  C   UNL     1      -0.194   1.472   1.405  0.00  0.00    +0.009 C 
ATOM     33  C   UNL     1      -0.212  -0.057   1.355  0.00  0.00    -0.000 C 
ATOM     34  C   UNL     1      -0.072  -0.616   2.772  0.00  0.00    +0.009 C 
ENDBRANCH  31  33
ENDBRANCH  27  31
ENDBRANCH  26  28
BRANCH  26  35
ATOM     35  C   UNL     1      -1.700  -4.347  -1.498  0.00  0.00    +0.012 C 
ATOM     36  C   UNL     1      -0.252  -3.894  -1.299  0.00  0.00    +0.009 C 
ATOM     37  C   UNL     1      -1.725  -5.836  -1.847  0.00  0.00    +0.009 C 
ENDBRANCH  26  35
ENDBRANCH   1  26
BRANCH  11  38
ATOM     38  C   UNL     1      -6.710  -7.614   1.353  0.00  0.00    +0.141 C 
BRANCH  38  39
ATOM     39  C   UNL     1      -7.142  -6.938   2.629  0.00  0.00    -0.015 C 
ATOM     40  C   UNL     1      -8.042  -7.500   3.396  0.00  0.00    +0.005 C 
ENDBRANCH  38  39
ENDBRANCH  11  38
TORSDOF 10
