REMARK  Name = ZINC06193325
REMARK  20 active torsions:
REMARK  status: ('A' for Active; 'I' for Inactive)
REMARK    1  A    between atoms: C_1  and  C_2
REMARK    2  A    between atoms: C_2  and  N_77
REMARK    3  A    between atoms: C_3  and  C_4
REMARK    4  A    between atoms: C_3  and  N_77
REMARK    5  A    between atoms: C_5  and  C_6
REMARK    6  A    between atoms: C_5  and  N_77
REMARK    7  A    between atoms: C_6  and  N_7
REMARK    8  A    between atoms: N_7  and  C_8
REMARK    9  A    between atoms: N_7  and  C_23
REMARK   10  A    between atoms: C_8  and  C_9
REMARK   11  A    between atoms: C_13  and  C_22
REMARK   12  A    between atoms: C_15  and  C_21
REMARK   13  A    between atoms: C_23  and  N_25
REMARK   14  A    between atoms: N_25  and  C_26
REMARK   15  A    between atoms: C_26  and  C_27
REMARK   16  A    between atoms: C_27  and  C_28
REMARK   17  A    between atoms: C_31  and  O_36
REMARK   18  A    between atoms: C_32  and  O_34
REMARK   19  A    between atoms: O_34  and  C_35
REMARK   20  A    between atoms: O_36  and  C_37
REMARK                            x       y       z     vdW  Elec       q    Type
REMARK                         _______ _______ _______ _____ _____    ______ ____
ROOT
ATOM      1  N   UNL     1      -1.491   7.923  -1.312  0.00  0.00    -0.310 N 
ENDROOT
BRANCH   1   2
ATOM      2  C   UNL     1      -0.397   8.219  -2.042  0.00  0.00    +0.133 C 
ATOM      3  S   UNL     1       1.163   8.000  -1.373  0.00  0.00    -0.019 S 
BRANCH   2   4
ATOM      4  N   UNL     1      -0.531   8.687  -3.299  0.00  0.00    -0.326 N 
ATOM      5  H   UNL     1      -1.416   8.811  -3.678  0.00  0.00    +0.148 HD
BRANCH   4   6
ATOM      6  C   UNL     1       0.658   9.009  -4.092  0.00  0.00    +0.108 C 
BRANCH   6   7
ATOM      7  C   UNL     1       0.229   9.516  -5.470  0.00  0.00    +0.054 C 
BRANCH   7   8
ATOM      8  C   UNL     1       1.453   9.847  -6.286  0.00  0.00    -0.042 A 
ATOM      9  C   UNL     1       1.986  11.122  -6.243  0.00  0.00    +0.007 A 
ATOM     10  C   UNL     1       3.111  11.428  -6.986  0.00  0.00    +0.049 A 
ATOM     11  C   UNL     1       3.700  10.460  -7.783  0.00  0.00    +0.161 A 
ATOM     12  C   UNL     1       3.160   9.179  -7.830  0.00  0.00    +0.162 A 
ATOM     13  C   UNL     1       2.035   8.877  -7.080  0.00  0.00    +0.053 A 
BRANCH  12  14
ATOM     14  O   UNL     1       3.735   8.225  -8.611  0.00  0.00    -0.491 OA
ATOM     15  C   UNL     1       3.126   6.932  -8.610  0.00  0.00    +0.277 C 
ENDBRANCH  12  14
BRANCH  11  16
ATOM     16  O   UNL     1       4.804  10.762  -8.518  0.00  0.00    -0.491 OA
ATOM     17  C   UNL     1       5.304  12.097  -8.420  0.00  0.00    +0.277 C 
ENDBRANCH  11  16
ENDBRANCH   7   8
ENDBRANCH   6   7
ENDBRANCH   4   6
ENDBRANCH   2   4
ENDBRANCH   1   2
BRANCH   1  18
ATOM     18  C   UNL     1      -2.826   8.111  -1.885  0.00  0.00    +0.088 C 
BRANCH  18  19
ATOM     19  C   UNL     1      -3.319   9.527  -1.579  0.00  0.00    -0.060 C 
BRANCH  19  20
ATOM     20  N   UNL     1      -4.600   9.745  -2.283  0.00  0.00    +0.380 N 
ATOM     21  H   UNL     1      -4.532   9.350  -3.229  0.00  0.00    -0.082 HD
BRANCH  20  23
ATOM     22  C   UNL     1      -6.961   9.120  -2.418  0.00  0.00    -0.017 C 
ATOM     23  C   UNL     1      -5.697   9.070  -1.558  0.00  0.00    -0.082 C 
ENDBRANCH  20  23
BRANCH  20  24
ATOM     24  C   UNL     1      -4.879  11.193  -2.386  0.00  0.00    -0.082 C 
ATOM     25  C   UNL     1      -4.011  11.781  -3.501  0.00  0.00    -0.017 C 
ENDBRANCH  20  24
ENDBRANCH  19  20
ENDBRANCH  18  19
ENDBRANCH   1  18
BRANCH   1  26
ATOM     26  C   UNL     1      -1.345   7.415   0.053  0.00  0.00    +0.147 C 
BRANCH  26  27
ATOM     27  C   UNL     1      -1.268   5.910   0.024  0.00  0.00    +0.035 A 
ATOM     28  C   UNL     1      -0.059   5.296   0.011  0.00  0.00    +0.020 A 
ATOM     29  C   UNL     1      -0.018   3.833  -0.019  0.00  0.00    -0.001 A 
ATOM     30  C   UNL     1       1.199   3.143  -0.033  0.00  0.00    +0.013 A 
ATOM     31  C   UNL     1       1.203   1.777  -0.059  0.00  0.00    -0.050 A 
ATOM     32  C   UNL     1       0.009   1.067  -0.073  0.00  0.00    +0.008 A 
ATOM     33  C   UNL     1      -1.201   1.726  -0.065  0.00  0.00    -0.026 A 
ATOM     34  C   UNL     1      -1.230   3.116  -0.032  0.00  0.00    +0.052 A 
ATOM     35  N   UNL     1      -2.426   3.801  -0.018  0.00  0.00    -0.322 N 
ATOM     36  H   UNL     1      -3.260   3.306  -0.028  0.00  0.00    +0.169 HD
ATOM     37  C   UNL     1      -2.454   5.145   0.009  0.00  0.00    +0.254 A 
ATOM     38  O   UNL     1      -3.530   5.717   0.020  0.00  0.00    -0.268 OA
ATOM     39  C   UNL     1      -2.488   0.943  -0.086  0.00  0.00    +0.046 C 
ATOM     40  C   UNL     1       2.514   1.034  -0.074  0.00  0.00    +0.044 C 
ENDBRANCH  26  27
ENDBRANCH   1  26
TORSDOF 14
