REMARK  Name = ZINC39696429
REMARK  15 active torsions:
REMARK  status: ('A' for Active; 'I' for Inactive)
REMARK    1  A    between atoms: C_1  and  C_2
REMARK    2  A    between atoms: C_2  and  C_3
REMARK    3  A    between atoms: C_2  and  C_4
REMARK    4  A    between atoms: C_2  and  S_5
REMARK    5  A    between atoms: S_5  and  C_6
REMARK    6  A    between atoms: C_6  and  C_7
REMARK    7  A    between atoms: C_7  and  N_8
REMARK    8  A    between atoms: C_9  and  C_11
REMARK    9  A    between atoms: C_22  and  C_24
REMARK   10  A    between atoms: C_26  and  O_34
REMARK   11  A    between atoms: C_27  and  O_32
REMARK   12  A    between atoms: C_28  and  O_30
REMARK   13  A    between atoms: O_30  and  C_31
REMARK   14  A    between atoms: O_32  and  C_33
REMARK   15  A    between atoms: O_34  and  C_35
REMARK                            x       y       z     vdW  Elec       q    Type
REMARK                         _______ _______ _______ _____ _____    ______ ____
ROOT
ATOM      1  C   UNL     1       7.500   0.980  -3.041  0.00  0.00    +0.100 C 
ATOM      2  C   UNL     1       7.930   0.262  -1.741  0.00  0.00    +0.121 C 
ATOM      3  N   UNL     1       8.675  -0.932  -2.202  0.00  0.00    -0.296 N 
ATOM      4  C   UNL     1       9.460  -0.451  -3.364  0.00  0.00    +0.115 C 
ATOM      5  C   UNL     1       8.510   0.512  -4.102  0.00  0.00    -0.004 C 
ATOM      6  C   UNL     1       9.288   1.703  -4.653  0.00  0.00    -0.010 C 
ATOM      7  C   UNL     1      10.243   1.220  -5.748  0.00  0.00    -0.082 C 
ATOM      8  N   UNL     1       9.476   0.573  -6.820  0.00  0.00    +0.379 N 
ATOM      9  C   UNL     1       8.805  -0.625  -6.301  0.00  0.00    -0.082 C 
ATOM     10  C   UNL     1       7.789  -0.221  -5.230  0.00  0.00    -0.010 C 
ATOM     11  C   UNL     1       8.646  -2.176  -1.682  0.00  0.00    +0.247 C 
ATOM     12  O   UNL     1       7.854  -2.448  -0.801  0.00  0.00    -0.270 OA
ATOM     13  H   UNL     1       8.785   1.218  -7.173  0.00  0.00    -0.086 HD
ATOM     14  H   UNL     1      10.101   0.311  -7.567  0.00  0.00    -0.086 HD
ENDROOT
BRANCH  11  15
ATOM     15  C   UNL     1       9.577  -3.207  -2.183  0.00  0.00    +0.044 A 
ATOM     16  C   UNL     1      10.750  -2.830  -2.841  0.00  0.00    +0.062 A 
ATOM     17  C   UNL     1      11.620  -3.797  -3.308  0.00  0.00    +0.166 A 
ATOM     18  C   UNL     1      11.328  -5.146  -3.123  0.00  0.00    +0.204 A 
ATOM     19  C   UNL     1      10.159  -5.524  -2.467  0.00  0.00    +0.166 A 
ATOM     20  C   UNL     1       9.289  -4.560  -1.993  0.00  0.00    +0.062 A 
BRANCH  19  21
ATOM     21  O   UNL     1       9.877  -6.842  -2.288  0.00  0.00    -0.491 OA
ATOM     22  C   UNL     1       8.661  -7.158  -1.607  0.00  0.00    +0.277 C 
ENDBRANCH  19  21
BRANCH  18  23
ATOM     23  O   UNL     1      12.184  -6.095  -3.583  0.00  0.00    -0.488 OA
ATOM     24  C   UNL     1      13.212  -6.529  -2.690  0.00  0.00    +0.277 C 
ENDBRANCH  18  23
BRANCH  17  25
ATOM     25  O   UNL     1      12.762  -3.432  -3.950  0.00  0.00    -0.491 OA
ATOM     26  C   UNL     1      12.998  -2.031  -4.105  0.00  0.00    +0.277 C 
ENDBRANCH  17  25
ENDBRANCH  11  15
BRANCH   1  28
ATOM     27  N   UNL     1       5.355   1.381  -4.204  0.00  0.00    -0.314 N 
ATOM     28  C   UNL     1       6.103   0.571  -3.429  0.00  0.00    +0.218 C 
ATOM     29  O   UNL     1       5.652  -0.487  -3.043  0.00  0.00    -0.275 OA
ATOM     30  H   UNL     1       5.716   2.226  -4.512  0.00  0.00    +0.149 HD
BRANCH  27  31
ATOM     31  C   UNL     1       3.996   0.983  -4.581  0.00  0.00    +0.115 C 
BRANCH  31  32
ATOM     32  C   UNL     1       3.371   2.071  -5.457  0.00  0.00    +0.088 C 
BRANCH  32  33
ATOM     33  S   UNL     1       1.689   1.579  -5.924  0.00  0.00    -0.153 S 
BRANCH  33  35
ATOM     34  C   UNL     1       2.008   3.118  -8.162  0.00  0.00    +0.022 C 
ATOM     35  C   UNL     1       1.096   2.956  -6.944  0.00  0.00    +0.008 C 
ATOM     36  C   UNL     1       1.111   4.245  -6.120  0.00  0.00    +0.022 C 
ATOM     37  C   UNL     1      -0.332   2.667  -7.412  0.00  0.00    +0.022 C 
ENDBRANCH  33  35
ENDBRANCH  32  33
ENDBRANCH  31  32
ENDBRANCH  27  31
ENDBRANCH   1  28
TORSDOF 9
