REMARK  Name = ZINC08027230
REMARK  6 active torsions:
REMARK  status: ('A' for Active; 'I' for Inactive)
REMARK    1  A    between atoms: C_4  and  N_7
REMARK    2  A    between atoms: C_8  and  C_27
REMARK    3  A    between atoms: C_11  and  S_12
REMARK    4  A    between atoms: S_12  and  C_13
REMARK    5  A    between atoms: C_13  and  C_14
REMARK    6  A    between atoms: C_14  and  C_16
REMARK                            x       y       z     vdW  Elec       q    Type
REMARK                         _______ _______ _______ _____ _____    ______ ____
ROOT
ATOM      1  S   UNL     1       5.428  -2.758  -0.064  0.00  0.00    -0.078 S 
ENDROOT
BRANCH   1   6
ATOM      2  N   UNL     1       6.130  -5.469  -0.092  0.00  0.00    -0.274 N 
ATOM      3  C   UNL     1       5.456  -6.662  -0.086  0.00  0.00    +0.142 A 
ATOM      4  N   UNL     1       4.183  -6.387  -0.074  0.00  0.00    -0.133 NA
ATOM      5  N   UNL     1       4.004  -5.114  -0.065  0.00  0.00    -0.122 NA
ATOM      6  C   UNL     1       5.165  -4.500  -0.072  0.00  0.00    +0.197 A 
BRANCH   2  10
ATOM      7  C   UNL     1      10.261  -4.910  -0.148  0.00  0.00    +0.000 A 
ATOM      8  C   UNL     1       9.525  -4.507   0.951  0.00  0.00    +0.002 A 
ATOM      9  C   UNL     1       8.156  -4.691   0.973  0.00  0.00    +0.026 A 
ATOM     10  C   UNL     1       7.520  -5.281  -0.111  0.00  0.00    +0.050 A 
ATOM     11  C   UNL     1       8.262  -5.688  -1.211  0.00  0.00    +0.026 A 
ATOM     12  C   UNL     1       9.629  -5.496  -1.229  0.00  0.00    +0.002 A 
ENDBRANCH   2  10
BRANCH   3  13
ATOM     13  C   UNL     1       6.074  -8.036  -0.099  0.00  0.00    +0.057 C 
ATOM     14  C   UNL     1       5.138  -9.229  -0.304  0.00  0.00    +0.012 C 
ATOM     15  C   UNL     1       5.752  -8.966   1.073  0.00  0.00    +0.012 C 
ENDBRANCH   3  13
ENDBRANCH   1   6
BRANCH   1  16
ATOM     16  C   UNL     1       3.713  -2.180  -0.045  0.00  0.00    +0.157 C 
BRANCH  16  17
ATOM     17  C   UNL     1       3.690  -0.674  -0.036  0.00  0.00    +0.173 C 
ATOM     18  O   UNL     1       4.731  -0.051  -0.042  0.00  0.00    -0.291 OA
BRANCH  17  19
ATOM     19  C   UNL     1       2.408   0.041  -0.020  0.00  0.00    +0.022 A 
ATOM     20  C   UNL     1       1.205  -0.675  -0.013  0.00  0.00    +0.015 A 
ATOM     21  C   UNL     1       0.002  -0.004   0.002  0.00  0.00    +0.050 A 
ATOM     22  C   UNL     1      -0.017   1.384   0.010  0.00  0.00    +0.162 A 
ATOM     23  C   UNL     1       1.174   2.104   0.002  0.00  0.00    +0.163 A 
ATOM     24  C   UNL     1       2.385   1.442  -0.012  0.00  0.00    +0.060 A 
ATOM     25  O   UNL     1       1.137   3.468   0.007  0.00  0.00    -0.488 OA
ATOM     26  C   UNL     1       0.656   4.076   1.207  0.00  0.00    +0.232 C 
ATOM     27  C   UNL     1      -0.863   4.146   1.205  0.00  0.00    +0.082 C 
ATOM     28  C   UNL     1      -1.505   2.768   1.223  0.00  0.00    +0.232 C 
ATOM     29  O   UNL     1      -1.205   2.052   0.019  0.00  0.00    -0.488 OA
ENDBRANCH  17  19
ENDBRANCH  16  17
ENDBRANCH   1  16
TORSDOF 6
