REMARK  Name = ZINC05239671
REMARK  11 active torsions:
REMARK  status: ('A' for Active; 'I' for Inactive)
REMARK    1  A    between atoms: C_1  and  C_2
REMARK    2  A    between atoms: C_5  and  S_8
REMARK    3  A    between atoms: S_8  and  C_9
REMARK    4  A    between atoms: C_9  and  C_10
REMARK    5  A    between atoms: N_12  and  C_13
REMARK    6  A    between atoms: C_13  and  C_14
REMARK    7  A    between atoms: C_14  and  N_55
REMARK    8  A    between atoms: C_15  and  N_55
REMARK    9  A    between atoms: C_16  and  N_55
REMARK   10  A    between atoms: C_20  and  C_27
REMARK   11  A    between atoms: C_23  and  C_26
REMARK                            x       y       z     vdW  Elec       q    Type
REMARK                         _______ _______ _______ _____ _____    ______ ____
ROOT
ATOM      1  C   UNL     1       4.073   5.825  -0.008  0.00  0.00    +0.231 C 
ATOM      2  O   UNL     1       2.909   6.165   0.005  0.00  0.00    -0.274 OA
ATOM      3  N   UNL     1       4.392   4.515  -0.017  0.00  0.00    -0.252 N 
ATOM      4  C   UNL     1       3.390   3.558  -0.012  0.00  0.00    +0.168 A 
ATOM      5  N   UNL     1       3.501   2.251  -0.021  0.00  0.00    -0.224 NA
ATOM      6  C   UNL     1       2.427   1.431  -0.014  0.00  0.00    +0.083 A 
ATOM      7  C   UNL     1       2.408   0.017  -0.021  0.00  0.00    -0.024 A 
ATOM      8  C   UNL     1       1.221  -0.667  -0.013  0.00  0.00    +0.006 A 
ATOM      9  C   UNL     1       0.002  -0.004   0.002  0.00  0.00    +0.005 A 
ATOM     10  C   UNL     1      -0.017   1.379   0.010  0.00  0.00    -0.035 A 
ATOM     11  C   UNL     1       1.168   2.072   0.002  0.00  0.00    +0.044 A 
ATOM     12  S   UNL     1       1.618   3.791   0.006  0.00  0.00    -0.052 S 
ATOM     13  C   UNL     1      -1.329   2.119   0.020  0.00  0.00    +0.045 C 
ATOM     14  C   UNL     1       3.708  -0.746  -0.039  0.00  0.00    +0.046 C 
ENDROOT
BRANCH   1  15
ATOM     15  C   UNL     1       5.163   6.866  -0.013  0.00  0.00    +0.170 C 
BRANCH  15  16
ATOM     16  S   UNL     1       4.419   8.520   0.002  0.00  0.00    -0.116 S 
BRANCH  16  21
ATOM     17  C   UNL     1       9.162  12.254  -0.025  0.00  0.00    +0.044 C 
ATOM     18  C   UNL     1       7.978  11.322  -0.019  0.00  0.00    -0.050 A 
ATOM     19  C   UNL     1       6.694  11.837  -0.004  0.00  0.00    +0.004 A 
ATOM     20  C   UNL     1       5.607  10.986   0.002  0.00  0.00    +0.015 A 
ATOM     21  C   UNL     1       5.803   9.610  -0.006  0.00  0.00    +0.008 A 
ATOM     22  C   UNL     1       7.095   9.096  -0.016  0.00  0.00    +0.015 A 
ATOM     23  C   UNL     1       8.177   9.953  -0.028  0.00  0.00    +0.004 A 
ENDBRANCH  16  21
ENDBRANCH  15  16
ENDBRANCH   1  15
BRANCH   3  24
ATOM     24  C   UNL     1       5.798   4.104  -0.033  0.00  0.00    +0.097 C 
BRANCH  24  25
ATOM     25  C   UNL     1       6.273   3.967  -1.481  0.00  0.00    -0.060 C 
BRANCH  25  28
ATOM     26  C   UNL     1       7.842   2.201  -0.948  0.00  0.00    -0.097 C 
ATOM     27  C   UNL     1       8.242   3.642  -2.852  0.00  0.00    -0.097 C 
ATOM     28  N   UNL     1       7.698   3.573  -1.480  0.00  0.00    +0.377 N 
ATOM     29  H   UNL     1       8.223   4.220  -0.880  0.00  0.00    -0.083 HD
ENDBRANCH  25  28
ENDBRANCH  24  25
ENDBRANCH   3  24
TORSDOF 6
