REMARK  Name = ZINC35980981
REMARK  4 active torsions:
REMARK  status: ('A' for Active; 'I' for Inactive)
REMARK    1  A    between atoms: C_3  and  C_6
REMARK    2  A    between atoms: C_6  and  N_7
REMARK    3  A    between atoms: C_8  and  C_10
REMARK    4  A    between atoms: C_16  and  C_18
REMARK                            x       y       z     vdW  Elec       q    Type
REMARK                         _______ _______ _______ _____ _____    ______ ____
ROOT
ATOM      1  C   UNL     1       6.224   1.287   2.326  0.00  0.00    +0.190 C 
ATOM      2  C   UNL     1       6.243   2.730   2.891  0.00  0.00    +0.194 C 
ATOM      3  O   UNL     1       6.949   2.563   4.143  0.00  0.00    -0.354 OA
ATOM      4  C   UNL     1       7.970   1.587   3.882  0.00  0.00    +0.139 C 
ATOM      5  N   UNL     1       7.535   0.748   2.751  0.00  0.00    -0.255 N 
ATOM      6  C   UNL     1       8.195  -0.297   2.213  0.00  0.00    +0.249 C 
ATOM      7  O   UNL     1       9.292  -0.605   2.634  0.00  0.00    -0.270 OA
ATOM      8  C   UNL     1       8.172   0.713   5.120  0.00  0.00    +0.055 C 
ATOM      9  C   UNL     1       9.262  -0.324   4.841  0.00  0.00    +0.004 C 
ATOM     10  C   UNL     1      10.570   0.392   4.495  0.00  0.00    +0.000 C 
ATOM     11  C   UNL     1      10.364   1.257   3.250  0.00  0.00    +0.004 C 
ATOM     12  C   UNL     1       9.277   2.297   3.526  0.00  0.00    +0.055 C 
ENDROOT
BRANCH   6  13
ATOM     13  C   UNL     1       7.584  -1.067   1.109  0.00  0.00    +0.038 A 
ATOM     14  C   UNL     1       6.224  -0.926   0.825  0.00  0.00    +0.014 A 
ATOM     15  C   UNL     1       5.659  -1.648  -0.205  0.00  0.00    +0.022 A 
ATOM     16  C   UNL     1       6.437  -2.511  -0.959  0.00  0.00    +0.059 A 
ATOM     17  C   UNL     1       7.787  -2.655  -0.682  0.00  0.00    +0.060 A 
ATOM     18  C   UNL     1       8.365  -1.934   0.343  0.00  0.00    +0.034 A 
ATOM     19 CL   UNL     1       8.755  -3.739  -1.631  0.00  0.00    -0.082 Cl
ATOM     20 CL   UNL     1       5.718  -3.416  -2.254  0.00  0.00    -0.082 Cl
ENDBRANCH   6  13
BRANCH   1  22
ATOM     21  N   UNL     1       4.903   1.288   0.235  0.00  0.00    -0.307 N 
ATOM     22  C   UNL     1       6.115   1.303   0.823  0.00  0.00    +0.236 C 
ATOM     23  O   UNL     1       7.119   1.330   0.143  0.00  0.00    -0.274 OA
ATOM     24  H   UNL     1       4.100   1.266   0.779  0.00  0.00    +0.149 HD
BRANCH  21  25
ATOM     25  C   UNL     1       4.797   1.304  -1.226  0.00  0.00    +0.178 C 
BRANCH  25  28
ATOM     26  C   UNL     1       1.284   1.882  -2.180  0.00  0.00    +0.041 A 
ATOM     27  C   UNL     1       2.565   2.361  -1.820  0.00  0.00    +0.046 A 
ATOM     28  C   UNL     1       3.344   1.282  -1.625  0.00  0.00    +0.122 A 
ATOM     29  O   UNL     1       2.607   0.181  -1.847  0.00  0.00    -0.466 OA
ATOM     30  C   UNL     1       1.357   0.539  -2.183  0.00  0.00    +0.195 A 
ENDBRANCH  25  28
ENDBRANCH  21  25
ENDBRANCH   1  22
TORSDOF 4
