REMARK  Name = ZINC45599363
REMARK  7 active torsions:
REMARK  status: ('A' for Active; 'I' for Inactive)
REMARK    1  A    between atoms: C_1  and  N_2
REMARK    2  A    between atoms: C_3  and  C_24
REMARK    3  A    between atoms: C_6  and  S_7
REMARK    4  A    between atoms: S_7  and  C_8
REMARK    5  A    between atoms: C_8  and  C_9
REMARK    6  A    between atoms: C_24  and  O_25
REMARK    7  A    between atoms: O_25  and  C_26
REMARK                            x       y       z     vdW  Elec       q    Type
REMARK                         _______ _______ _______ _____ _____    ______ ____
ROOT
ATOM      1  C   UNL     1       0.059  -2.270   3.778  0.00  0.00    +0.153 C 
ENDROOT
BRANCH   1   2
ATOM      2  C   UNL     1       0.073  -1.805   5.211  0.00  0.00    +0.143 A 
ATOM      3  N   UNL     1       1.230  -1.660   5.832  0.00  0.00    -0.216 NA
ATOM      4  C   UNL     1       1.309  -1.255   7.090  0.00  0.00    +0.128 A 
ATOM      5  C   UNL     1       0.110  -0.966   7.799  0.00  0.00    +0.051 A 
ATOM      6  C   UNL     1      -0.044  -0.508   9.185  0.00  0.00    -0.025 A 
ATOM      7  C   UNL     1      -1.303  -0.310   9.621  0.00  0.00    -0.004 A 
ATOM      8  S   UNL     1      -2.343  -0.703   8.238  0.00  0.00    -0.073 S 
ATOM      9  C   UNL     1      -1.082  -1.144   7.072  0.00  0.00    +0.114 A 
ATOM     10  N   UNL     1      -1.071  -1.548   5.816  0.00  0.00    -0.224 NA
ATOM     11  C   UNL     1      -1.745   0.133  10.981  0.00  0.00    +0.043 C 
ATOM     12  C   UNL     1      -0.938   1.369  11.399  0.00  0.00    +0.005 C 
ATOM     13  C   UNL     1       0.319   0.899  12.124  0.00  0.00    +0.001 C 
ATOM     14  C   UNL     1       0.795  -0.429  11.538  0.00  0.00    +0.005 C 
ATOM     15  C   UNL     1       1.174  -0.261  10.071  0.00  0.00    +0.037 C 
ATOM     16  N   UNL     1       2.539  -1.115   7.705  0.00  0.00    -0.343 N 
ATOM     17  H   UNL     1       2.647  -0.486   8.436  0.00  0.00    +0.144 HD
ATOM     18  H   UNL     1       3.294  -1.647   7.407  0.00  0.00    +0.144 HD
ENDBRANCH   1   2
BRANCH   1  19
ATOM     19  S   UNL     1       0.141  -0.833   2.675  0.00  0.00    -0.078 S 
BRANCH  19  25
ATOM     20  C   UNL     1       0.237   0.601  -0.304  0.00  0.00    +0.153 C 
ATOM     21  N   UNL     1       0.161  -0.851  -0.123  0.00  0.00    -0.306 N 
ATOM     22  C   UNL     1       0.125  -1.804  -1.103  0.00  0.00    +0.172 A 
ATOM     23  N   UNL     1       0.059  -2.964  -0.514  0.00  0.00    -0.130 NA
ATOM     24  N   UNL     1       0.051  -2.811   0.762  0.00  0.00    -0.122 NA
ATOM     25  C   UNL     1       0.117  -1.533   1.058  0.00  0.00    +0.192 A 
BRANCH  22  26
ATOM     26  C   UNL     1       0.155  -1.558  -2.590  0.00  0.00    +0.305 C 
BRANCH  26  27
ATOM     27  O   UNL     1       1.510  -1.547  -3.043  0.00  0.00    -0.483 OA
BRANCH  27  28
ATOM     28  C   UNL     1       1.715  -1.336  -4.370  0.00  0.00    +0.139 A 
ATOM     29  C   UNL     1       0.635  -1.137  -5.217  0.00  0.00    +0.047 A 
ATOM     30  C   UNL     1       0.845  -0.922  -6.566  0.00  0.00    +0.004 A 
ATOM     31  C   UNL     1       2.132  -0.906  -7.072  0.00  0.00    +0.002 A 
ATOM     32  C   UNL     1       3.211  -1.104  -6.231  0.00  0.00    +0.023 A 
ATOM     33  C   UNL     1       3.006  -1.313  -4.880  0.00  0.00    +0.083 A 
ATOM     34 CL   UNL     1       4.362  -1.555  -3.822  0.00  0.00    -0.080 Cl
ENDBRANCH  27  28
ENDBRANCH  26  27
ENDBRANCH  22  26
ENDBRANCH  19  25
ENDBRANCH   1  19
TORSDOF 6
