REMARK  Name = ZINC08281498
REMARK  9 active torsions:
REMARK  status: ('A' for Active; 'I' for Inactive)
REMARK    1  A    between atoms: C_1  and  C_2
REMARK    2  A    between atoms: C_2  and  C_3
REMARK    3  A    between atoms: C_3  and  N_4
REMARK    4  A    between atoms: C_8  and  S_25
REMARK    5  A    between atoms: C_12  and  C_13
REMARK    6  A    between atoms: C_13  and  C_14
REMARK    7  A    between atoms: C_14  and  C_15
REMARK    8  A    between atoms: N_17  and  C_18
REMARK    9  A    between atoms: S_25  and  N_28
REMARK                            x       y       z     vdW  Elec       q    Type
REMARK                         _______ _______ _______ _____ _____    ______ ____
ROOT
ATOM      1  N   UNL     1       5.620   0.812   1.068  0.00  0.00    -0.328 N 
ATOM      2  C   UNL     1       6.761   0.168   0.635  0.00  0.00    +0.069 A 
ATOM      3  C   UNL     1       7.835  -0.433   1.278  0.00  0.00    +0.030 A 
ATOM      4  C   UNL     1       8.847  -0.999   0.533  0.00  0.00    +0.030 A 
ATOM      5  C   UNL     1       8.800  -0.972  -0.854  0.00  0.00    +0.107 A 
ATOM      6  C   UNL     1       7.751  -0.385  -1.504  0.00  0.00    +0.058 A 
ATOM      7  C   UNL     1       6.713   0.195  -0.769  0.00  0.00    +0.091 A 
ATOM      8  N   UNL     1       5.567   0.837  -1.113  0.00  0.00    -0.232 NA
ATOM      9  C   UNL     1       4.926   1.194  -0.039  0.00  0.00    +0.111 A 
ENDROOT
BRANCH   5  10
ATOM     10  S   UNL     1      10.105  -1.700  -1.786  0.00  0.00    +0.056 S 
ATOM     11  O   UNL     1      10.100  -1.065  -3.058  0.00  0.00    -0.153 OA
ATOM     12  O   UNL     1      11.249  -1.710  -0.944  0.00  0.00    -0.153 OA
BRANCH  10  13
ATOM     13  N   UNL     1       9.696  -3.284  -2.046  0.00  0.00    -0.204 NA
ATOM     14  H   UNL     1       8.860  -3.632  -1.698  0.00  0.00    +0.144 HD
ATOM     15  H   UNL     1      10.292  -3.863  -2.547  0.00  0.00    +0.144 HD
ENDBRANCH  10  13
ENDBRANCH   5  10
BRANCH   1  16
ATOM     16  C   UNL     1       5.226   1.040   2.461  0.00  0.00    +0.123 C 
BRANCH  16  18
ATOM     17  C   UNL     1       3.974   0.098   4.407  0.00  0.00    +0.005 C 
ATOM     18  C   UNL     1       4.385  -0.140   2.952  0.00  0.00    +0.018 C 
ENDBRANCH  16  18
ENDBRANCH   1  16
BRANCH   9  19
ATOM     19  C   UNL     1       3.611   1.930  -0.022  0.00  0.00    +0.083 C 
BRANCH  19  20
ATOM     20  C   UNL     1       2.462   0.920  -0.017  0.00  0.00    +0.103 C 
BRANCH  20  21
ATOM     21  C   UNL     1       1.147   1.655   0.000  0.00  0.00    +0.214 C 
ATOM     22  O   UNL     1       1.130   2.868   0.007  0.00  0.00    -0.276 OA
ATOM     23  N   UNL     1      -0.011   0.966   0.007  0.00  0.00    -0.312 N 
ATOM     24  H   UNL     1       0.002  -0.004   0.002  0.00  0.00    +0.149 HD
BRANCH  23  25
ATOM     25  C   UNL     1      -1.290   1.681   0.017  0.00  0.00    +0.073 C 
ATOM     26  C   UNL     1      -1.621   2.092   1.467  0.00  0.00    +0.022 C 
ATOM     27  C   UNL     1      -2.612   3.223   1.428  0.00  0.00    +0.002 C 
ATOM     28  C   UNL     1      -4.069   2.734   1.537  0.00  0.00    +0.000 C 
ATOM     29  C   UNL     1      -4.340   1.470   0.698  0.00  0.00    +0.000 C 
ATOM     30  C   UNL     1      -3.684   1.526  -0.655  0.00  0.00    +0.002 C 
ATOM     31  C   UNL     1      -2.313   0.825  -0.564  0.00  0.00    +0.022 C 
ENDBRANCH  23  25
ENDBRANCH  20  21
ENDBRANCH  19  20
ENDBRANCH   9  19
TORSDOF 8
