REMARK  Name = ZINC39711477
REMARK  11 active torsions:
REMARK  status: ('A' for Active; 'I' for Inactive)
REMARK    1  A    between atoms: C_1  and  C_2
REMARK    2  A    between atoms: C_2  and  O_3
REMARK    3  A    between atoms: O_3  and  C_4
REMARK    4  A    between atoms: C_11  and  C_16
REMARK    5  A    between atoms: C_16  and  C_18
REMARK    6  A    between atoms: C_16  and  N_28
REMARK    7  A    between atoms: N_23  and  C_24
REMARK    8  A    between atoms: C_24  and  C_25
REMARK    9  A    between atoms: C_24  and  C_26
REMARK   10  A    between atoms: C_24  and  C_27
REMARK   11  A    between atoms: N_31  and  C_34
REMARK                            x       y       z     vdW  Elec       q    Type
REMARK                         _______ _______ _______ _____ _____    ______ ____
ROOT
ATOM      1  C   UNL     1      -5.040  -6.334   1.257  0.00  0.00    -0.009 C 
ENDROOT
BRANCH   1   9
ATOM      2  C   UNL     1      -6.623  -4.944  -4.188  0.00  0.00    +0.121 A 
ATOM      3  C   UNL     1      -6.224  -3.613  -4.014  0.00  0.00    +0.047 A 
ATOM      4  C   UNL     1      -5.480  -3.206  -2.954  0.00  0.00    +0.027 A 
ATOM      5  C   UNL     1      -5.073  -4.125  -1.969  0.00  0.00    +0.041 A 
ATOM      6  N   UNL     1      -4.342  -3.711  -0.934  0.00  0.00    -0.285 N 
ATOM      7  C   UNL     1      -3.926  -4.519   0.026  0.00  0.00    +0.223 C 
ATOM      8  O   UNL     1      -3.262  -4.083   0.947  0.00  0.00    -0.275 OA
ATOM      9  C   UNL     1      -4.279  -5.989  -0.025  0.00  0.00    +0.088 C 
ATOM     10  C   UNL     1      -5.109  -6.465  -1.200  0.00  0.00    -0.006 C 
ATOM     11  C   UNL     1      -5.477  -5.533  -2.125  0.00  0.00    -0.004 A 
ATOM     12  C   UNL     1      -6.284  -5.907  -3.286  0.00  0.00    +0.055 A 
ATOM     13  H   UNL     1      -4.105  -2.772  -0.882  0.00  0.00    +0.155 HD
BRANCH   2  14
ATOM     14  O   UNL     1      -7.368  -5.280  -5.274  0.00  0.00    -0.492 OA
BRANCH  14  16
ATOM     15  C   UNL     1      -8.530  -4.795  -7.337  0.00  0.00    +0.048 C 
ATOM     16  C   UNL     1      -7.695  -4.230  -6.186  0.00  0.00    +0.225 C 
ENDBRANCH  14  16
ENDBRANCH   2  14
ENDBRANCH   1   9
BRANCH   1  17
ATOM     17  N   UNL     1      -5.360  -7.767   1.265  0.00  0.00    +0.387 N 
ATOM     18  C   UNL     1      -6.164  -8.080   2.453  0.00  0.00    -0.059 C 
ATOM     19  C   UNL     1      -6.596  -9.550   2.404  0.00  0.00    +0.086 C 
ATOM     20  N   UNL     1      -5.394 -10.384   2.247  0.00  0.00    -0.333 N 
ATOM     21  C   UNL     1      -4.445 -10.038   1.178  0.00  0.00    +0.086 C 
ATOM     22  C   UNL     1      -4.115  -8.546   1.285  0.00  0.00    -0.059 C 
ATOM     23  H   UNL     1      -5.886  -7.998   0.436  0.00  0.00    -0.081 HD
BRANCH  20  24
ATOM     24  C   UNL     1      -5.160 -11.473   3.090  0.00  0.00    +0.030 A 
ATOM     25  C   UNL     1      -6.002 -11.711   4.169  0.00  0.00    +0.023 A 
ATOM     26  C   UNL     1      -5.769 -12.790   5.000  0.00  0.00    +0.002 A 
ATOM     27  C   UNL     1      -4.699 -13.631   4.759  0.00  0.00    +0.000 A 
ATOM     28  C   UNL     1      -3.858 -13.397   3.686  0.00  0.00    +0.002 A 
ATOM     29  C   UNL     1      -4.089 -12.324   2.848  0.00  0.00    +0.023 A 
ENDBRANCH  20  24
ENDBRANCH   1  17
BRANCH   1  30
ATOM     30  C   UNL     1      -6.335  -5.521   1.316  0.00  0.00    +0.205 C 
ATOM     31  N   UNL     1      -7.142  -5.755   0.111  0.00  0.00    -0.152 NA
ATOM     32  N   UNL     1      -7.285  -4.687  -0.487  0.00  0.00    -0.070 NA
ATOM     33  N   UNL     1      -6.652  -3.620   0.149  0.00  0.00    -0.179 N 
ATOM     34  N   UNL     1      -6.037  -4.074   1.290  0.00  0.00    -0.183 NA
ATOM     35  H   UNL     1      -6.648  -2.702  -0.164  0.00  0.00    +0.191 HD
BRANCH  34  36
ATOM     36  C   UNL     1      -6.573  -3.404   2.482  0.00  0.00    +0.035 C 
ATOM     37  C   UNL     1      -5.942  -4.013   3.736  0.00  0.00    +0.029 C 
ATOM     38  C   UNL     1      -6.246  -1.911   2.420  0.00  0.00    +0.029 C 
ATOM     39  C   UNL     1      -8.091  -3.592   2.533  0.00  0.00    +0.029 C 
ENDBRANCH  34  36
ENDBRANCH   1  30
TORSDOF 7
