REMARK  Name = ZINC66324086
REMARK  6 active torsions:
REMARK  status: ('A' for Active; 'I' for Inactive)
REMARK    1  A    between atoms: C_1  and  C_2
REMARK    2  A    between atoms: C_7  and  O_8
REMARK    3  A    between atoms: O_8  and  C_9
REMARK    4  A    between atoms: C_9  and  C_11
REMARK    5  A    between atoms: C_11  and  C_13
REMARK    6  A    between atoms: C_11  and  N_14
REMARK                            x       y       z     vdW  Elec       q    Type
REMARK                         _______ _______ _______ _____ _____    ______ ____
ROOT
ATOM      1  C   UNL     1      -0.173  -0.048   4.842  0.00  0.00    +0.190 C 
ATOM      2  C   UNL     1      -1.437   0.813   4.856  0.00  0.00    +0.040 C 
ENDROOT
BRANCH   1   3
ATOM      3  N   UNL     1      -0.248  -1.044   5.915  0.00  0.00    -0.220 N 
ATOM      4  C   UNL     1      -1.206  -1.982   6.016  0.00  0.00    +0.255 C 
ATOM      5  O   UNL     1      -2.132  -2.136   5.246  0.00  0.00    -0.270 OA
ATOM      6  C   UNL     1      -0.943  -2.795   7.223  0.00  0.00    +0.049 A 
ATOM      7  C   UNL     1      -1.575  -3.874   7.820  0.00  0.00    +0.014 A 
ATOM      8  C   UNL     1      -1.053  -4.419   8.982  0.00  0.00    +0.001 A 
ATOM      9  C   UNL     1       0.093  -3.894   9.550  0.00  0.00    +0.001 A 
ATOM     10  C   UNL     1       0.736  -2.815   8.964  0.00  0.00    +0.014 A 
ATOM     11  C   UNL     1       0.226  -2.259   7.801  0.00  0.00    +0.049 A 
ATOM     12  C   UNL     1       0.636  -1.143   6.924  0.00  0.00    +0.255 C 
ATOM     13  O   UNL     1       1.607  -0.432   7.088  0.00  0.00    -0.270 OA
ENDBRANCH   1   3
BRANCH   1  14
ATOM     14  C   UNL     1      -0.058  -0.750   3.513  0.00  0.00    +0.333 C 
ATOM     15  O   UNL     1      -0.040  -1.957   3.467  0.00  0.00    -0.248 OA
BRANCH  14  16
ATOM     16  O   UNL     1       0.025  -0.033   2.381  0.00  0.00    -0.424 OA
BRANCH  16  23
ATOM     17  C   UNL     1       2.507  -0.974   1.413  0.00  0.00    +0.047 C 
ATOM     18  C   UNL     1       1.211  -1.190   0.674  0.00  0.00    -0.008 A 
ATOM     19  C   UNL     1       1.206  -1.877  -0.525  0.00  0.00    +0.007 A 
ATOM     20  C   UNL     1       0.018  -2.076  -1.204  0.00  0.00    +0.000 A 
ATOM     21  C   UNL     1      -1.168  -1.587  -0.685  0.00  0.00    +0.004 A 
ATOM     22  C   UNL     1      -1.167  -0.900   0.513  0.00  0.00    +0.046 A 
ATOM     23  C   UNL     1       0.023  -0.705   1.199  0.00  0.00    +0.135 A 
ENDBRANCH  16  23
ENDBRANCH  14  16
ENDBRANCH   1  14
TORSDOF 4
