REMARK  Name = ZINC38597870
REMARK  11 active torsions:
REMARK  status: ('A' for Active; 'I' for Inactive)
REMARK    1  A    between atoms: C_1  and  C_2
REMARK    2  A    between atoms: C_2  and  C_3
REMARK    3  A    between atoms: C_3  and  C_4
REMARK    4  A    between atoms: N_6  and  C_7
REMARK    5  A    between atoms: C_10  and  S_13
REMARK    6  A    between atoms: S_13  and  N_16
REMARK    7  A    between atoms: N_16  and  C_17
REMARK    8  A    between atoms: C_17  and  C_18
REMARK    9  A    between atoms: C_18  and  C_20
REMARK   10  A    between atoms: C_18  and  N_25
REMARK   11  A    between atoms: N_28  and  C_31
REMARK                            x       y       z     vdW  Elec       q    Type
REMARK                         _______ _______ _______ _____ _____    ______ ____
ROOT
ATOM      1  C   UNL     1      -0.830  -8.457  -4.439  0.00  0.00    +0.132 C 
ENDROOT
BRANCH   1   2
ATOM      2  N   UNL     1      -0.989  -8.601  -2.990  0.00  0.00    -0.188 NA
ATOM      3  H   UNL     1      -1.786  -9.019  -2.628  0.00  0.00    +0.148 HD
BRANCH   2   4
ATOM      4  S   UNL     1       0.194  -8.051  -1.969  0.00  0.00    +0.058 S 
ATOM      5  O   UNL     1       1.425  -8.558  -2.464  0.00  0.00    -0.153 OA
ATOM      6  O   UNL     1      -0.260  -8.308  -0.647  0.00  0.00    -0.153 OA
BRANCH   4  10
ATOM      7  C   UNL     1       0.369  -3.549  -2.427  0.00  0.00    +0.033 A 
ATOM      8  C   UNL     1      -0.471  -4.120  -1.480  0.00  0.00    +0.025 A 
ATOM      9  C   UNL     1      -0.522  -5.494  -1.343  0.00  0.00    +0.030 A 
ATOM     10  C   UNL     1       0.262  -6.300  -2.147  0.00  0.00    +0.105 A 
ATOM     11  C   UNL     1       1.100  -5.734  -3.091  0.00  0.00    +0.030 A 
ATOM     12  C   UNL     1       1.151  -4.362  -3.237  0.00  0.00    +0.025 A 
BRANCH   7  15
ATOM     13  C   UNL     1       0.591  -1.611  -3.788  0.00  0.00    +0.217 C 
ATOM     14  O   UNL     1       0.778  -2.323  -4.752  0.00  0.00    -0.275 OA
ATOM     15  N   UNL     1       0.423  -2.158  -2.568  0.00  0.00    -0.285 N 
ATOM     16  H   UNL     1       0.341  -1.588  -1.788  0.00  0.00    +0.155 HD
BRANCH  13  17
ATOM     17  C   UNL     1       0.544  -0.114  -3.955  0.00  0.00    +0.096 C 
BRANCH  17  19
ATOM     18  C   UNL     1       0.714   1.762  -5.597  0.00  0.00    +0.004 C 
ATOM     19  C   UNL     1       0.761   0.242  -5.427  0.00  0.00    +0.006 C 
ENDBRANCH  17  19
ENDBRANCH  13  17
ENDBRANCH   7  15
ENDBRANCH   4  10
ENDBRANCH   2   4
ENDBRANCH   1   2
BRANCH   1  20
ATOM     20  C   UNL     1      -1.843  -9.354  -5.155  0.00  0.00    +0.139 C 
BRANCH  20  21
ATOM     21  N   UNL     1      -3.197  -9.040  -4.679  0.00  0.00    -0.289 NA
ATOM     22  C   UNL     1      -3.516  -7.622  -4.898  0.00  0.00    +0.104 C 
ATOM     23  C   UNL     1      -4.855  -7.295  -4.230  0.00  0.00    +0.120 C 
ATOM     24  N   UNL     1      -5.867  -8.243  -4.720  0.00  0.00    -0.327 N 
ATOM     25  C   UNL     1      -5.561  -9.680  -4.660  0.00  0.00    +0.120 C 
ATOM     26  C   UNL     1      -4.193  -9.914  -5.312  0.00  0.00    +0.104 C 
BRANCH  24  27
ATOM     27  C   UNL     1      -7.088  -7.790  -5.230  0.00  0.00    +0.030 A 
ATOM     28  C   UNL     1      -8.081  -8.700  -5.566  0.00  0.00    +0.026 A 
ATOM     29  C   UNL     1      -9.287  -8.250  -6.069  0.00  0.00    +0.040 A 
ATOM     30  C   UNL     1      -9.505  -6.894  -6.238  0.00  0.00    +0.124 A 
ATOM     31  C   UNL     1      -8.515  -5.984  -5.903  0.00  0.00    +0.040 A 
ATOM     32  C   UNL     1      -7.310  -6.429  -5.395  0.00  0.00    +0.026 A 
ATOM     33  F   UNL     1     -10.684  -6.456  -6.730  0.00  0.00    -0.205 F 
ENDBRANCH  24  27
ENDBRANCH  20  21
BRANCH  20  34
ATOM     34  C   UNL     1      -1.764  -9.115  -6.641  0.00  0.00    +0.123 A 
ATOM     35  C   UNL     1      -1.249  -9.964  -7.548  0.00  0.00    +0.046 A 
ATOM     36  C   UNL     1      -1.378  -9.342  -8.811  0.00  0.00    +0.041 A 
ATOM     37  C   UNL     1      -1.966  -8.150  -8.600  0.00  0.00    +0.195 A 
ATOM     38  O   UNL     1      -2.202  -8.021  -7.284  0.00  0.00    -0.466 OA
ENDBRANCH  20  34
ENDBRANCH   1  20
TORSDOF 10
