REMARK  Name = ZINC09365448
REMARK  8 active torsions:
REMARK  status: ('A' for Active; 'I' for Inactive)
REMARK    1  A    between atoms: C_1  and  N_2
REMARK    2  A    between atoms: N_2  and  C_3
REMARK    3  A    between atoms: C_8  and  C_9
REMARK    4  A    between atoms: N_11  and  C_12
REMARK    5  A    between atoms: C_12  and  C_13
REMARK    6  A    between atoms: C_18  and  C_20
REMARK    7  A    between atoms: C_20  and  N_60
REMARK    8  A    between atoms: N_23  and  C_26
REMARK                            x       y       z     vdW  Elec       q    Type
REMARK                         _______ _______ _______ _____ _____    ______ ____
ROOT
ATOM      1  C   UNL     1      -1.210   3.331   0.026  0.00  0.00    +0.138 C 
ATOM      2  N   UNL     1      -1.191   1.867   0.018  0.00  0.00    -0.275 N 
ATOM      3  C   UNL     1      -0.014   1.209   0.009  0.00  0.00    +0.203 C 
ATOM      4  O   UNL     1       0.002  -0.004   0.002  0.00  0.00    -0.277 OA
ENDROOT
BRANCH   2   5
ATOM      5  C   UNL     1      -2.387   1.154   0.020  0.00  0.00    +0.048 A 
ATOM      6  C   UNL     1      -2.978   0.785   1.221  0.00  0.00    +0.024 A 
ATOM      7  C   UNL     1      -4.167   0.084   1.220  0.00  0.00    +0.002 A 
ATOM      8  C   UNL     1      -4.773  -0.267   0.025  0.00  0.00    +0.001 A 
ATOM      9  C   UNL     1      -4.199   0.085  -1.177  0.00  0.00    +0.015 A 
ATOM     10  C   UNL     1      -2.999   0.800  -1.192  0.00  0.00    +0.058 A 
BRANCH  10  11
ATOM     11  C   UNL     1      -2.378   1.179  -2.475  0.00  0.00    +0.246 C 
ATOM     12  O   UNL     1      -1.333   1.801  -2.485  0.00  0.00    -0.270 OA
ATOM     13  N   UNL     1      -2.969   0.837  -3.637  0.00  0.00    -0.304 N 
ATOM     14  H   UNL     1      -3.802   0.341  -3.630  0.00  0.00    +0.149 HD
BRANCH  13  15
ATOM     15  C   UNL     1      -2.352   1.214  -4.912  0.00  0.00    +0.179 C 
BRANCH  15  16
ATOM     16  C   UNL     1      -3.205   0.716  -6.049  0.00  0.00    +0.122 A 
ATOM     17  C   UNL     1      -4.208   1.393  -6.636  0.00  0.00    +0.046 A 
ATOM     18  C   UNL     1      -4.730   0.556  -7.649  0.00  0.00    +0.041 A 
ATOM     19  C   UNL     1      -4.015  -0.582  -7.621  0.00  0.00    +0.195 A 
ATOM     20  O   UNL     1      -3.089  -0.478  -6.654  0.00  0.00    -0.466 OA
ENDBRANCH  15  16
ENDBRANCH  13  15
ENDBRANCH  10  11
ENDBRANCH   2   5
BRANCH   3  21
ATOM     21  C   UNL     1       1.280   1.980   0.001  0.00  0.00    +0.019 C 
BRANCH  21  27
ATOM     22  C   UNL     1       2.473   0.271   1.235  0.00  0.00    -0.059 C 
ATOM     23  C   UNL     1       3.611  -0.748   1.147  0.00  0.00    +0.086 C 
ATOM     24  N   UNL     1       4.877  -0.045   0.901  0.00  0.00    -0.333 N 
ATOM     25  C   UNL     1       4.814   0.724  -0.350  0.00  0.00    +0.086 C 
ATOM     26  C   UNL     1       3.676   1.744  -0.262  0.00  0.00    -0.059 C 
ATOM     27  N   UNL     1       2.406   1.022  -0.036  0.00  0.00    +0.387 N 
ATOM     28  H   UNL     1       2.256   0.361  -0.807  0.00  0.00    -0.081 HD
BRANCH  24  29
ATOM     29  C   UNL     1       5.951  -0.938   0.886  0.00  0.00    +0.030 A 
ATOM     30  C   UNL     1       6.782  -1.008  -0.225  0.00  0.00    +0.023 A 
ATOM     31  C   UNL     1       7.846  -1.889  -0.235  0.00  0.00    +0.002 A 
ATOM     32  C   UNL     1       8.078  -2.708   0.856  0.00  0.00    +0.000 A 
ATOM     33  C   UNL     1       7.249  -2.644   1.961  0.00  0.00    +0.002 A 
ATOM     34  C   UNL     1       6.186  -1.762   1.979  0.00  0.00    +0.023 A 
ENDBRANCH  24  29
ENDBRANCH  21  27
ENDBRANCH   3  21
TORSDOF 7
