REMARK  Name = ZINC42544271
REMARK  7 active torsions:
REMARK  status: ('A' for Active; 'I' for Inactive)
REMARK    1  A    between atoms: C_1  and  C_2
REMARK    2  A    between atoms: C_2  and  C_4
REMARK    3  A    between atoms: C_2  and  N_12
REMARK    4  A    between atoms: C_7  and  O_11
REMARK    5  A    between atoms: C_9  and  O_10
REMARK    6  A    between atoms: N_12  and  C_13
REMARK    7  A    between atoms: N_17  and  C_19
REMARK                            x       y       z     vdW  Elec       q    Type
REMARK                         _______ _______ _______ _____ _____    ______ ____
ROOT
ATOM      1  C   UNL     1       0.889  -0.186  -1.226  0.00  0.00    -0.009 C 
ATOM      2  C   UNL     1      -0.021  -0.045  -0.005  0.00  0.00    -0.040 C 
ENDROOT
BRANCH   2   3
ATOM      3  C   UNL     1      -1.305  -0.798  -0.245  0.00  0.00    -0.020 A 
ATOM      4  C   UNL     1      -1.483  -2.052   0.307  0.00  0.00    +0.009 A 
ATOM      5  C   UNL     1      -2.658  -2.745   0.089  0.00  0.00    +0.046 A 
ATOM      6  C   UNL     1      -3.663  -2.182  -0.686  0.00  0.00    +0.120 A 
ATOM      7  C   UNL     1      -3.486  -0.924  -1.242  0.00  0.00    +0.091 A 
ATOM      8  C   UNL     1      -2.308  -0.229  -1.016  0.00  0.00    +0.122 A 
BRANCH   8   9
ATOM      9  O   UNL     1      -2.134   1.007  -1.554  0.00  0.00    -0.506 OA
ATOM     10  H   UNL     1      -1.734   1.000  -2.434  0.00  0.00    +0.292 HD
ENDBRANCH   8   9
BRANCH   6  11
ATOM     11  O   UNL     1      -4.819  -2.864  -0.901  0.00  0.00    -0.507 OA
ATOM     12  H   UNL     1      -5.504  -2.694  -0.241  0.00  0.00    +0.292 HD
ENDBRANCH   6  11
ENDBRANCH   2   3
BRANCH   2  13
ATOM     13  N   UNL     1       0.655  -0.596   1.177  0.00  0.00    +0.386 N 
ATOM     14  H   UNL     1       0.772  -1.592   1.064  0.00  0.00    -0.085 HD
ATOM     15  H   UNL     1       1.560  -0.161   1.280  0.00  0.00    -0.085 HD
BRANCH  13  16
ATOM     16  C   UNL     1      -0.154  -0.330   2.373  0.00  0.00    -0.056 C 
ATOM     17  C   UNL     1       0.541  -0.892   3.642  0.00  0.00    +0.001 C 
ATOM     18  C   UNL     1      -0.040   0.025   4.748  0.00  0.00    +0.082 C 
ATOM     19  N   UNL     1      -0.138   1.359   4.120  0.00  0.00    -0.307 NA
ATOM     20  C   UNL     1      -0.230   1.185   2.655  0.00  0.00    +0.068 C 
ATOM     21  C   UNL     1      -1.299   2.098   4.633  0.00  0.00    +0.104 C 
ENDBRANCH  13  16
ENDBRANCH   2  13
TORSDOF 5
