REMARK  Name = ZINC12747106
REMARK  3 active torsions:
REMARK  status: ('A' for Active; 'I' for Inactive)
REMARK    1  A    between atoms: C_9  and  S_12
REMARK    2  A    between atoms: S_12  and  N_15
REMARK    3  A    between atoms: N_15  and  C_16
REMARK                            x       y       z     vdW  Elec       q    Type
REMARK                         _______ _______ _______ _____ _____    ______ ____
ROOT
ATOM      1  S   UNL     1      -2.139   5.907  -1.246  0.00  0.00    +0.059 S 
ATOM      2  O   UNL     1      -1.539   7.134  -1.639  0.00  0.00    -0.153 OA
ATOM      3  O   UNL     1      -2.153   4.761  -2.086  0.00  0.00    -0.153 OA
ENDROOT
BRANCH   1  12
ATOM      4  C   UNL     1      -7.186   4.653  -1.069  0.00  0.00    +0.018 A 
ATOM      5  C   UNL     1      -8.460   4.994  -0.750  0.00  0.00    +0.092 A 
ATOM      6  C   UNL     1      -8.728   6.260  -0.185  0.00  0.00    +0.337 A 
ATOM      7  O   UNL     1      -9.875   6.553   0.097  0.00  0.00    -0.245 OA
ATOM      8  O   UNL     1      -7.749   7.148   0.049  0.00  0.00    -0.422 OA
ATOM      9  C   UNL     1      -6.461   6.872  -0.245  0.00  0.00    +0.139 A 
ATOM     10  C   UNL     1      -6.123   5.629  -0.810  0.00  0.00    +0.019 A 
ATOM     11  C   UNL     1      -4.790   5.343  -1.120  0.00  0.00    +0.040 A 
ATOM     12  C   UNL     1      -3.820   6.270  -0.861  0.00  0.00    +0.106 A 
ATOM     13  C   UNL     1      -4.149   7.497  -0.304  0.00  0.00    +0.032 A 
ATOM     14  C   UNL     1      -5.459   7.801   0.004  0.00  0.00    +0.049 A 
ENDBRANCH   1  12
BRANCH   1  15
ATOM     15  N   UNL     1      -1.402   5.451   0.165  0.00  0.00    -0.184 NA
ATOM     16  H   UNL     1      -0.799   6.062   0.617  0.00  0.00    +0.149 HD
BRANCH  15  17
ATOM     17  C   UNL     1      -1.659   4.124   0.730  0.00  0.00    +0.041 C 
ATOM     18  C   UNL     1      -0.987   3.060  -0.139  0.00  0.00    +0.027 C 
ATOM     19  C   UNL     1      -1.256   1.674   0.451  0.00  0.00    -0.009 C 
ATOM     20  C   UNL     1      -0.689   1.606   1.871  0.00  0.00    +0.007 C 
ATOM     21  C   UNL     1      -1.361   2.670   2.740  0.00  0.00    -0.009 C 
ATOM     22  C   UNL     1      -1.092   4.056   2.150  0.00  0.00    +0.027 C 
ATOM     23  C   UNL     1      -2.870   2.417   2.781  0.00  0.00    +0.007 C 
ATOM     24  C   UNL     1      -3.437   2.486   1.361  0.00  0.00    -0.009 C 
ATOM     25  C   UNL     1      -2.764   1.421   0.492  0.00  0.00    +0.007 C 
ATOM     26  C   UNL     1      -3.168   3.871   0.771  0.00  0.00    +0.027 C 
ENDBRANCH  15  17
ENDBRANCH   1  15
TORSDOF 3
