REMARK  Name = ZINC11880495
REMARK  11 active torsions:
REMARK  status: ('A' for Active; 'I' for Inactive)
REMARK    1  A    between atoms: C_1  and  C_2
REMARK    2  A    between atoms: C_3  and  C_11
REMARK    3  A    between atoms: C_4  and  C_10
REMARK    4  A    between atoms: N_5  and  C_7
REMARK    5  A    between atoms: C_7  and  C_8
REMARK    6  A    between atoms: C_7  and  C_9
REMARK    7  A    between atoms: C_11  and  N_71
REMARK    8  A    between atoms: C_23  and  N_29
REMARK    9  A    between atoms: C_25  and  O_27
REMARK   10  A    between atoms: O_27  and  C_28
REMARK   11  A    between atoms: C_30  and  C_32
REMARK                            x       y       z     vdW  Elec       q    Type
REMARK                         _______ _______ _______ _____ _____    ______ ____
ROOT
ATOM      1  C   UNL     1      -0.423   7.405   1.405  0.00  0.00    -0.077 C 
ATOM      2  C   UNL     1      -0.149   5.899   1.431  0.00  0.00    -0.005 C 
ATOM      3  C   UNL     1      -0.348   5.325   0.031  0.00  0.00    +0.021 C 
ATOM      4  C   UNL     1       0.545   6.051  -0.972  0.00  0.00    -0.005 C 
ATOM      5  C   UNL     1       0.249   7.553  -0.920  0.00  0.00    -0.077 C 
ATOM      6  C   UNL     1      -0.053   3.845   0.022  0.00  0.00    -0.034 A 
ATOM      7  C   UNL     1       1.153   3.165   0.007  0.00  0.00    +0.004 A 
ATOM      8  C   UNL     1       1.175   1.784   0.000  0.00  0.00    +0.000 A 
ATOM      9  C   UNL     1      -0.013   1.076   0.008  0.00  0.00    +0.000 A 
ATOM     10  C   UNL     1      -1.217   1.751   0.017  0.00  0.00    +0.006 A 
ATOM     11  C   UNL     1      -1.241   3.135   0.030  0.00  0.00    -0.021 A 
ATOM     12  C   UNL     1      -2.411   4.096   0.047  0.00  0.00    +0.133 C 
ATOM     13  C   UNL     1      -1.824   5.457  -0.388  0.00  0.00    +0.153 C 
ATOM     14  N   UNL     1       0.508   8.045   0.450  0.00  0.00    +0.383 N 
ATOM     15  H   UNL     1       1.471   7.805   0.714  0.00  0.00    -0.081 HD
ENDROOT
BRANCH  12  16
ATOM     16  N   UNL     1      -2.970   4.192   1.397  0.00  0.00    -0.302 N 
ATOM     17  C   UNL     1      -3.944   3.345   1.785  0.00  0.00    +0.245 C 
ATOM     18  O   UNL     1      -4.359   2.500   1.014  0.00  0.00    -0.270 OA
ATOM     19  H   UNL     1      -2.640   4.865   2.013  0.00  0.00    +0.150 HD
BRANCH  17  20
ATOM     20  C   UNL     1      -4.506   3.441   3.142  0.00  0.00    +0.044 A 
ATOM     21  C   UNL     1      -5.548   2.551   3.590  0.00  0.00    +0.020 A 
ATOM     22  C   UNL     1      -5.997   2.718   4.850  0.00  0.00    +0.046 A 
ATOM     23  S   UNL     1      -5.019   4.080   5.450  0.00  0.00    -0.104 S 
ATOM     24  C   UNL     1      -4.055   4.383   4.043  0.00  0.00    +0.058 A 
ENDBRANCH  17  20
ENDBRANCH  12  16
BRANCH  13  25
ATOM     25  O   UNL     1      -1.938   5.632  -1.801  0.00  0.00    -0.377 OA
ATOM     26  C   UNL     1      -3.074   6.401  -2.202  0.00  0.00    +0.194 C 
ENDBRANCH  13  25
BRANCH  14  27
ATOM     27  C   UNL     1       0.349   9.513   0.497  0.00  0.00    -0.039 C 
BRANCH  27  30
ATOM     28  C   UNL     1       3.205  10.363   1.576  0.00  0.00    +0.068 C 
ATOM     29  C   UNL     1       2.711  10.521   0.161  0.00  0.00    +0.062 A 
ATOM     30  C   UNL     1       1.450  10.146  -0.314  0.00  0.00    -0.021 A 
ATOM     31  C   UNL     1       1.391  10.457  -1.630  0.00  0.00    +0.038 A 
ATOM     32  N   UNL     1       2.575  11.004  -1.976  0.00  0.00    -0.266 N 
ATOM     33  N   UNL     1       3.388  11.030  -0.836  0.00  0.00    -0.176 NA
ATOM     34  C   UNL     1       0.214  10.232  -2.544  0.00  0.00    +0.065 C 
BRANCH  32  35
ATOM     35  C   UNL     1       2.945  11.485  -3.310  0.00  0.00    +0.101 C 
ATOM     36  C   UNL     1       3.284  12.975  -3.239  0.00  0.00    +0.032 C 
ATOM     37  C   UNL     1       4.163  10.708  -3.813  0.00  0.00    +0.032 C 
ENDBRANCH  32  35
ENDBRANCH  27  30
ENDBRANCH  14  27
TORSDOF 6
