REMARK  Name = ZINC13065484
REMARK  10 active torsions:
REMARK  status: ('A' for Active; 'I' for Inactive)
REMARK    1  A    between atoms: C_1  and  C_2
REMARK    2  A    between atoms: C_5  and  C_8
REMARK    3  A    between atoms: C_8  and  N_63
REMARK    4  A    between atoms: C_9  and  C_10
REMARK    5  A    between atoms: C_9  and  N_63
REMARK    6  A    between atoms: C_16  and  C_22
REMARK    7  A    between atoms: C_23  and  C_24
REMARK    8  A    between atoms: C_23  and  N_63
REMARK    9  A    between atoms: N_28  and  C_29
REMARK   10  A    between atoms: C_29  and  C_30
REMARK                            x       y       z     vdW  Elec       q    Type
REMARK                         _______ _______ _______ _____ _____    ______ ____
ROOT
ATOM      1  N   UNL     1       1.564  -2.059  -1.359  0.00  0.00    +0.390 N 
ATOM      2  H   UNL     1       0.843  -1.830  -2.054  0.00  0.00    -0.080 HD
ENDROOT
BRANCH   1   3
ATOM      3  C   UNL     1       2.896  -1.875  -1.972  0.00  0.00    -0.042 C 
BRANCH   3   8
ATOM      4  C   UNL     1       2.900  -4.358  -7.190  0.00  0.00    +0.044 C 
ATOM      5  C   UNL     1       2.899  -3.710  -5.829  0.00  0.00    -0.050 A 
ATOM      6  C   UNL     1       2.405  -2.429  -5.674  0.00  0.00    +0.003 A 
ATOM      7  C   UNL     1       2.404  -1.834  -4.426  0.00  0.00    +0.002 A 
ATOM      8  C   UNL     1       2.897  -2.522  -3.333  0.00  0.00    -0.064 A 
ATOM      9  C   UNL     1       3.395  -3.802  -3.489  0.00  0.00    +0.002 A 
ATOM     10  C   UNL     1       3.392  -4.398  -4.736  0.00  0.00    +0.003 A 
ENDBRANCH   3   8
ENDBRANCH   1   3
BRANCH   1  11
ATOM     11  C   UNL     1       1.393  -3.464  -0.934  0.00  0.00    -0.036 C 
BRANCH  11  12
ATOM     12  C   UNL     1      -0.079  -3.741  -0.764  0.00  0.00    +0.001 A 
ATOM     13  C   UNL     1      -0.792  -4.259  -1.795  0.00  0.00    +0.017 A 
ATOM     14  C   UNL     1      -2.219  -4.521  -1.596  0.00  0.00    -0.001 A 
ATOM     15  C   UNL     1      -3.005  -5.059  -2.620  0.00  0.00    +0.010 A 
ATOM     16  C   UNL     1      -4.335  -5.287  -2.404  0.00  0.00    +0.001 A 
ATOM     17  C   UNL     1      -4.912  -4.990  -1.177  0.00  0.00    +0.005 A 
ATOM     18  C   UNL     1      -4.157  -4.459  -0.154  0.00  0.00    -0.026 A 
ATOM     19  C   UNL     1      -2.801  -4.218  -0.351  0.00  0.00    +0.052 A 
ATOM     20  N   UNL     1      -2.021  -3.688   0.655  0.00  0.00    -0.322 N 
ATOM     21  H   UNL     1      -2.424  -3.480   1.513  0.00  0.00    +0.169 HD
ATOM     22  C   UNL     1      -0.710  -3.456   0.465  0.00  0.00    +0.251 A 
ATOM     23  O   UNL     1      -0.051  -2.987   1.377  0.00  0.00    -0.268 OA
ATOM     24  C   UNL     1      -4.797  -4.141   1.173  0.00  0.00    +0.046 C 
ENDBRANCH  11  12
ENDBRANCH   1  11
BRANCH   1  25
ATOM     25  C   UNL     1       1.413  -1.158  -0.197  0.00  0.00    +0.001 C 
BRANCH  25  26
ATOM     26  C   UNL     1       1.438   0.269  -0.680  0.00  0.00    +0.135 A 
ATOM     27  N   UNL     1       2.501   1.007  -0.888  0.00  0.00    -0.115 NA
ATOM     28  N   UNL     1       2.108   2.164  -1.297  0.00  0.00    -0.023 NA
ATOM     29  N   UNL     1       0.823   2.183  -1.356  0.00  0.00    -0.044 NA
ATOM     30  N   UNL     1       0.372   1.033  -0.983  0.00  0.00    -0.227 N 
BRANCH  30  31
ATOM     31  C   UNL     1      -1.036   0.634  -0.905  0.00  0.00    +0.182 C 
BRANCH  31  32
ATOM     32  C   UNL     1      -1.511   0.198  -2.267  0.00  0.00    -0.026 A 
ATOM     33  C   UNL     1      -1.962   1.137  -3.175  0.00  0.00    +0.008 A 
ATOM     34  C   UNL     1      -2.393   0.739  -4.426  0.00  0.00    +0.038 A 
ATOM     35  C   UNL     1      -2.383  -0.603  -4.766  0.00  0.00    +0.123 A 
ATOM     36  C   UNL     1      -1.936  -1.544  -3.854  0.00  0.00    +0.038 A 
ATOM     37  C   UNL     1      -1.500  -1.143  -2.605  0.00  0.00    +0.008 A 
ATOM     38  F   UNL     1      -2.809  -0.994  -5.987  0.00  0.00    -0.205 F 
ENDBRANCH  31  32
ENDBRANCH  30  31
ENDBRANCH  25  26
ENDBRANCH   1  25
TORSDOF 8
