REMARK  Name = ZINC13006214
REMARK  13 active torsions:
REMARK  status: ('A' for Active; 'I' for Inactive)
REMARK    1  A    between atoms: C_1  and  C_2
REMARK    2  A    between atoms: C_2  and  C_3
REMARK    3  A    between atoms: C_2  and  C_4
REMARK    4  A    between atoms: C_4  and  C_6
REMARK    5  A    between atoms: C_4  and  N_18
REMARK    6  A    between atoms: N_8  and  C_9
REMARK    7  A    between atoms: C_11  and  C_16
REMARK    8  A    between atoms: C_11  and  C_17
REMARK    9  A    between atoms: C_12  and  C_14
REMARK   10  A    between atoms: C_12  and  C_15
REMARK   11  A    between atoms: N_18  and  S_19
REMARK   12  A    between atoms: S_19  and  C_22
REMARK   13  A    between atoms: C_23  and  C_24
REMARK                            x       y       z     vdW  Elec       q    Type
REMARK                         _______ _______ _______ _____ _____    ______ ____
ROOT
ATOM      1  C   UNL     1      -0.026   0.496  -4.718  0.00  0.00    +0.165 C 
ENDROOT
BRANCH   1   2
ATOM      2  C   UNL     1      -0.653  -0.025  -3.451  0.00  0.00    +0.232 C 
ATOM      3  O   UNL     1      -1.838   0.138  -3.249  0.00  0.00    -0.274 OA
ATOM      4  N   UNL     1       0.102  -0.673  -2.542  0.00  0.00    -0.311 N 
ATOM      5  H   UNL     1       1.034  -0.864  -2.733  0.00  0.00    +0.149 HD
BRANCH   4   6
ATOM      6  C   UNL     1      -0.485  -1.090  -1.262  0.00  0.00    +0.070 C 
ATOM      7  C   UNL     1       0.302  -2.278  -0.711  0.00  0.00    +0.009 C 
ATOM      8  C   UNL     1      -0.272  -2.719   0.633  0.00  0.00    -0.072 C 
ATOM      9  C   UNL     1      -0.972  -0.349   1.084  0.00  0.00    -0.072 C 
ATOM     10  C   UNL     1      -0.387   0.064  -0.264  0.00  0.00    +0.009 C 
ATOM     11  C   UNL     1      -0.587   0.738   2.111  0.00  0.00    -0.010 C 
ATOM     12  C   UNL     1      -2.503  -0.367   0.994  0.00  0.00    -0.010 C 
ATOM     13  C   UNL     1      -1.583  -3.481   0.405  0.00  0.00    -0.010 C 
ATOM     14  C   UNL     1       0.730  -3.711   1.264  0.00  0.00    -0.010 C 
ATOM     15  N   UNL     1      -0.444  -1.628   1.630  0.00  0.00    +0.386 N 
ATOM     16  H   UNL     1       0.471  -1.439   2.055  0.00  0.00    -0.084 HD
ATOM     17  H   UNL     1      -1.095  -1.958   2.353  0.00  0.00    -0.084 HD
ENDBRANCH   4   6
ENDBRANCH   1   2
BRANCH   1  19
ATOM     18  C   UNL     1       1.424   2.288  -5.682  0.00  0.00    +0.009 C 
ATOM     19  C   UNL     1       0.673   1.827  -4.431  0.00  0.00    +0.010 C 
ATOM     20  C   UNL     1      -0.370   2.877  -4.046  0.00  0.00    +0.009 C 
ENDBRANCH   1  19
BRANCH   1  21
ATOM     21  N   UNL     1      -1.066   0.699  -5.730  0.00  0.00    -0.178 NA
ATOM     22  H   UNL     1      -1.753   1.369  -5.592  0.00  0.00    +0.149 HD
BRANCH  21  23
ATOM     23  S   UNL     1      -1.068  -0.218  -7.110  0.00  0.00    +0.052 S 
ATOM     24  O   UNL     1      -2.216   0.169  -7.852  0.00  0.00    -0.154 OA
ATOM     25  O   UNL     1       0.246  -0.147  -7.647  0.00  0.00    -0.154 OA
BRANCH  23  26
ATOM     26  C   UNL     1      -1.323  -1.892  -6.623  0.00  0.00    +0.153 C 
ATOM     27  C   UNL     1      -2.427  -2.528  -6.990  0.00  0.00    +0.028 C 
BRANCH  27  28
ATOM     28  C   UNL     1      -2.641  -3.932  -6.582  0.00  0.00    -0.024 A 
ATOM     29  C   UNL     1      -1.681  -4.593  -5.814  0.00  0.00    +0.008 A 
ATOM     30  C   UNL     1      -1.890  -5.902  -5.431  0.00  0.00    +0.001 A 
ATOM     31  C   UNL     1      -3.042  -6.563  -5.817  0.00  0.00    +0.000 A 
ATOM     32  C   UNL     1      -3.996  -5.915  -6.582  0.00  0.00    +0.001 A 
ATOM     33  C   UNL     1      -3.802  -4.604  -6.966  0.00  0.00    +0.008 A 
ENDBRANCH  27  28
ENDBRANCH  23  26
ENDBRANCH  21  23
ENDBRANCH   1  21
TORSDOF 7
