REMARK  Name = ZINC27697403
REMARK  10 active torsions:
REMARK  status: ('A' for Active; 'I' for Inactive)
REMARK    1  A    between atoms: C_1  and  C_2
REMARK    2  A    between atoms: N_5  and  C_8
REMARK    3  A    between atoms: C_8  and  C_9
REMARK    4  A    between atoms: C_9  and  C_11
REMARK    5  A    between atoms: C_9  and  O_36
REMARK    6  A    between atoms: C_11  and  N_12
REMARK    7  A    between atoms: C_20  and  C_21
REMARK    8  A    between atoms: C_21  and  C_23
REMARK    9  A    between atoms: C_21  and  S_29
REMARK   10  A    between atoms: S_29  and  C_30
REMARK                            x       y       z     vdW  Elec       q    Type
REMARK                         _______ _______ _______ _____ _____    ______ ____
ROOT
ATOM      1  N   UNL     1      -0.558   7.761  -4.145  0.00  0.00    -0.324 N 
ATOM      2  C   UNL     1      -1.841   8.266  -4.208  0.00  0.00    +0.069 A 
ATOM      3  C   UNL     1      -2.809   8.568  -3.260  0.00  0.00    +0.028 A 
ATOM      4  C   UNL     1      -4.026   9.075  -3.664  0.00  0.00    +0.002 A 
ATOM      5  C   UNL     1      -4.289   9.285  -5.010  0.00  0.00    +0.002 A 
ATOM      6  C   UNL     1      -3.348   8.993  -5.957  0.00  0.00    +0.030 A 
ATOM      7  C   UNL     1      -2.108   8.478  -5.572  0.00  0.00    +0.089 A 
ATOM      8  N   UNL     1      -0.998   8.100  -6.255  0.00  0.00    -0.231 NA
ATOM      9  C   UNL     1      -0.090   7.685  -5.420  0.00  0.00    +0.129 A 
ENDROOT
BRANCH   1  10
ATOM     10  C   UNL     1       0.168   7.383  -2.930  0.00  0.00    +0.153 C 
BRANCH  10  11
ATOM     11  C   UNL     1      -0.102   5.910  -2.613  0.00  0.00    +0.118 C 
BRANCH  11  12
ATOM     12  O   UNL     1      -1.485   5.736  -2.297  0.00  0.00    -0.392 OA
ATOM     13  H   UNL     1      -2.255   5.993  -3.040  0.00  0.00    +0.210 HD
ENDBRANCH  11  12
BRANCH  11  14
ATOM     14  C   UNL     1       0.752   5.481  -1.418  0.00  0.00    -0.045 C 
BRANCH  14  19
ATOM     15  C   UNL     1      -0.575  -0.073  -1.172  0.00  0.00    +0.007 C 
ATOM     16  C   UNL     1      -0.577   1.419  -1.514  0.00  0.00    -0.018 C 
ATOM     17  C   UNL     1       0.752   1.793  -2.177  0.00  0.00    -0.016 C 
ATOM     18  C   UNL     1       0.768   3.297  -2.461  0.00  0.00    -0.078 C 
ATOM     19  N   UNL     1       0.603   4.036  -1.203  0.00  0.00    +0.381 N 
ATOM     20  C   UNL     1      -0.687   3.728  -0.572  0.00  0.00    -0.078 C 
ATOM     21  C   UNL     1      -0.747   2.237  -0.231  0.00  0.00    -0.016 C 
ATOM     22  H   UNL     1       1.398   3.711  -0.516  0.00  0.00    -0.082 HD
ENDBRANCH  14  19
ENDBRANCH  11  14
ENDBRANCH  10  11
ENDBRANCH   1  10
BRANCH   9  23
ATOM     23  C   UNL     1       1.280   7.191  -5.809  0.00  0.00    +0.147 C 
BRANCH  23  24
ATOM     24  C   UNL     1       1.166   5.808  -6.398  0.00  0.00    -0.027 A 
ATOM     25  C   UNL     1       0.397   5.598  -7.527  0.00  0.00    +0.005 A 
ATOM     26  C   UNL     1       0.296   4.331  -8.069  0.00  0.00    +0.000 A 
ATOM     27  C   UNL     1       0.956   3.271  -7.477  0.00  0.00    +0.000 A 
ATOM     28  C   UNL     1       1.722   3.479  -6.344  0.00  0.00    +0.000 A 
ATOM     29  C   UNL     1       1.826   4.748  -5.805  0.00  0.00    +0.005 A 
ENDBRANCH  23  24
BRANCH  23  30
ATOM     30  S   UNL     1       2.002   8.313  -7.038  0.00  0.00    -0.109 S 
BRANCH  30  31
ATOM     31  C   UNL     1       3.633   7.692  -7.276  0.00  0.00    +0.009 A 
ATOM     32  C   UNL     1       4.065   6.578  -6.566  0.00  0.00    +0.015 A 
ATOM     33  C   UNL     1       5.343   6.091  -6.759  0.00  0.00    +0.001 A 
ATOM     34  C   UNL     1       6.196   6.717  -7.648  0.00  0.00    +0.000 A 
ATOM     35  C   UNL     1       5.772   7.830  -8.352  0.00  0.00    +0.001 A 
ATOM     36  C   UNL     1       4.494   8.319  -8.168  0.00  0.00    +0.015 A 
ENDBRANCH  30  31
ENDBRANCH  23  30
ENDBRANCH   9  23
TORSDOF 9
