REMARK  Name = ZINC06443889
REMARK  12 active torsions:
REMARK  status: ('A' for Active; 'I' for Inactive)
REMARK    1  A    between atoms: C_1  and  C_2
REMARK    2  A    between atoms: C_12  and  C_14
REMARK    3  A    between atoms: C_14  and  C_16
REMARK    4  A    between atoms: C_14  and  N_66
REMARK    5  A    between atoms: N_20  and  C_21
REMARK    6  A    between atoms: C_21  and  C_22
REMARK    7  A    between atoms: C_21  and  C_23
REMARK    8  A    between atoms: C_21  and  C_24
REMARK    9  A    between atoms: C_25  and  C_26
REMARK   10  A    between atoms: C_25  and  N_66
REMARK   11  A    between atoms: C_33  and  C_34
REMARK   12  A    between atoms: C_33  and  N_66
REMARK                            x       y       z     vdW  Elec       q    Type
REMARK                         _______ _______ _______ _____ _____    ______ ____
ROOT
ATOM      1  C   UNL     1       0.662  -2.665   4.760  0.00  0.00    +0.040 C 
ENDROOT
BRANCH   1  13
ATOM      2  C   UNL     1       1.822   1.739   0.020  0.00  0.00    +0.046 C 
ATOM      3  C   UNL     1       1.949   0.238   0.036  0.00  0.00    -0.026 A 
ATOM      4  C   UNL     1       2.370  -0.433  -1.092  0.00  0.00    +0.005 A 
ATOM      5  C   UNL     1       2.497  -1.815  -1.088  0.00  0.00    +0.001 A 
ATOM      6  C   UNL     1       2.195  -2.538   0.031  0.00  0.00    +0.010 A 
ATOM      7  C   UNL     1       1.760  -1.879   1.186  0.00  0.00    -0.001 A 
ATOM      8  C   UNL     1       1.636  -0.477   1.188  0.00  0.00    +0.052 A 
ATOM      9  N   UNL     1       1.207   0.168   2.329  0.00  0.00    -0.322 N 
ATOM     10  H   UNL     1       1.122   1.134   2.328  0.00  0.00    +0.169 HD
ATOM     11  C   UNL     1       0.904  -0.524   3.441  0.00  0.00    +0.251 A 
ATOM     12  O   UNL     1       0.527   0.079   4.431  0.00  0.00    -0.268 OA
ATOM     13  C   UNL     1       1.011  -1.930   3.491  0.00  0.00    +0.011 A 
ATOM     14  C   UNL     1       1.428  -2.623   2.403  0.00  0.00    +0.017 A 
ENDBRANCH   1  13
BRANCH   1  15
ATOM     15  C   UNL     1      -0.807  -2.495   5.050  0.00  0.00    +0.143 A 
ATOM     16  N   UNL     1      -1.390  -1.429   5.542  0.00  0.00    -0.115 NA
ATOM     17  N   UNL     1      -2.651  -1.675   5.643  0.00  0.00    -0.023 NA
ATOM     18  N   UNL     1      -2.887  -2.870   5.228  0.00  0.00    -0.043 NA
ATOM     19  N   UNL     1      -1.777  -3.407   4.849  0.00  0.00    -0.225 N 
BRANCH  19  20
ATOM     20  C   UNL     1      -1.603  -4.756   4.305  0.00  0.00    +0.059 C 
ATOM     21  C   UNL     1      -0.734  -5.581   5.256  0.00  0.00    +0.036 C 
ATOM     22  C   UNL     1      -2.971  -5.425   4.154  0.00  0.00    +0.036 C 
ATOM     23  C   UNL     1      -0.923  -4.671   2.937  0.00  0.00    +0.036 C 
ENDBRANCH  19  20
ENDBRANCH   1  15
BRANCH   1  24
ATOM     24  N   UNL     1       1.438  -2.092   5.880  0.00  0.00    +0.397 N 
ATOM     25  H   UNL     1       1.101  -1.141   6.067  0.00  0.00    -0.079 HD
BRANCH  24  26
ATOM     26  C   UNL     1       1.254  -2.914   7.094  0.00  0.00    -0.041 C 
BRANCH  26  27
ATOM     27  C   UNL     1      -0.049  -2.527   7.745  0.00  0.00    -0.064 A 
ATOM     28  C   UNL     1      -0.159  -1.316   8.403  0.00  0.00    +0.003 A 
ATOM     29  C   UNL     1      -1.355  -0.957   8.996  0.00  0.00    +0.020 A 
ATOM     30  C   UNL     1      -2.439  -1.815   8.940  0.00  0.00    +0.041 A 
ATOM     31  C   UNL     1      -2.326  -3.030   8.287  0.00  0.00    +0.020 A 
ATOM     32  C   UNL     1      -1.131  -3.385   7.690  0.00  0.00    +0.003 A 
ATOM     33 CL   UNL     1      -3.939  -1.369   9.690  0.00  0.00    -0.084 Cl
ENDBRANCH  26  27
ENDBRANCH  24  26
BRANCH  24  34
ATOM     34  C   UNL     1       2.871  -2.033   5.523  0.00  0.00    -0.001 C 
BRANCH  34  35
ATOM     35  C   UNL     1       3.577  -1.131   6.502  0.00  0.00    +0.089 A 
ATOM     36  C   UNL     1       4.248  -1.531   7.597  0.00  0.00    +0.042 A 
ATOM     37  C   UNL     1       4.747  -0.364   8.221  0.00  0.00    +0.041 A 
ATOM     38  C   UNL     1       4.350   0.679   7.470  0.00  0.00    +0.195 A 
ATOM     39  O   UNL     1       3.647   0.208   6.427  0.00  0.00    -0.470 OA
ENDBRANCH  34  35
ENDBRANCH  24  34
ENDBRANCH   1  24
TORSDOF 8
