REMARK  Name = ZINC36066216
REMARK  11 active torsions:
REMARK  status: ('A' for Active; 'I' for Inactive)
REMARK    1  A    between atoms: C_1  and  C_2
REMARK    2  A    between atoms: C_5  and  N_9
REMARK    3  A    between atoms: C_10  and  C_12
REMARK    4  A    between atoms: N_23  and  C_40
REMARK    5  A    between atoms: C_24  and  C_26
REMARK    6  A    between atoms: N_28  and  C_29
REMARK    7  A    between atoms: C_34  and  C_39
REMARK    8  A    between atoms: C_36  and  C_38
REMARK    9  A    between atoms: C_40  and  C_41
REMARK   10  A    between atoms: C_41  and  O_42
REMARK   11  A    between atoms: O_42  and  C_43
REMARK                            x       y       z     vdW  Elec       q    Type
REMARK                         _______ _______ _______ _____ _____    ______ ____
ROOT
ATOM      1  C   UNL     1       0.310  -6.351   1.119  0.00  0.00    +0.123 C 
ATOM      2  C   UNL     1       1.639  -6.786   0.421  0.00  0.00    +0.155 C 
ATOM      3  C   UNL     1       2.774  -6.015   1.105  0.00  0.00    +0.004 C 
ATOM      4  C   UNL     1       2.946  -6.554   2.319  0.00  0.00    +0.009 C 
ATOM      5  C   UNL     1       1.902  -7.610   2.386  0.00  0.00    +0.127 C 
ATOM      6  C   UNL     1       0.505  -6.903   2.542  0.00  0.00    +0.128 C 
ATOM      7  C   UNL     1      -0.387  -8.057   2.901  0.00  0.00    +0.223 C 
ATOM      8  O   UNL     1      -1.583  -8.106   2.709  0.00  0.00    -0.275 OA
ATOM      9  N   UNL     1       0.358  -9.038   3.473  0.00  0.00    -0.284 N 
ATOM     10  C   UNL     1       1.825  -8.664   3.446  0.00  0.00    +0.198 C 
ATOM     11  O   UNL     1       1.810  -8.125   1.012  0.00  0.00    -0.358 OA
ENDROOT
BRANCH   1  13
ATOM     12  N   UNL     1       0.059  -4.170  -0.022  0.00  0.00    -0.285 N 
ATOM     13  C   UNL     1       0.176  -4.850   1.136  0.00  0.00    +0.224 C 
ATOM     14  O   UNL     1       0.174  -4.254   2.192  0.00  0.00    -0.275 OA
ATOM     15  H   UNL     1      -0.006  -4.651  -0.862  0.00  0.00    +0.155 HD
BRANCH  12  20
ATOM     16  C   UNL     1      -0.049   1.502   0.013  0.00  0.00    +0.045 C 
ATOM     17  C   UNL     1      -0.020  -0.004   0.004  0.00  0.00    -0.032 A 
ATOM     18  C   UNL     1       0.592  -0.677  -1.038  0.00  0.00    +0.006 A 
ATOM     19  C   UNL     1       0.620  -2.057  -1.049  0.00  0.00    +0.023 A 
ATOM     20  C   UNL     1       0.033  -2.772  -0.013  0.00  0.00    +0.035 A 
ATOM     21  C   UNL     1      -0.581  -2.095   1.032  0.00  0.00    +0.043 A 
ATOM     22  C   UNL     1      -0.602  -0.712   1.041  0.00  0.00    +0.046 A 
ATOM     23 CL   UNL     1      -1.363   0.136   2.350  0.00  0.00    -0.083 Cl
ENDBRANCH  12  20
ENDBRANCH   1  13
BRANCH  10  24
ATOM     24  C   UNL     1       2.289  -8.116   4.771  0.00  0.00    +0.237 C 
ATOM     25  O   UNL     1       1.477  -7.766   5.601  0.00  0.00    -0.274 OA
ATOM     26  N   UNL     1       3.607  -8.015   5.033  0.00  0.00    -0.311 N 
ATOM     27  H   UNL     1       4.257  -8.295   4.370  0.00  0.00    +0.149 HD
BRANCH  26  28
ATOM     28  C   UNL     1       4.059  -7.482   6.321  0.00  0.00    +0.076 C 
ATOM     29  C   UNL     1       4.104  -5.955   6.253  0.00  0.00    +0.022 C 
ATOM     30  C   UNL     1       4.576  -5.398   7.598  0.00  0.00    +0.002 C 
ATOM     31  C   UNL     1       5.974  -5.937   7.911  0.00  0.00    +0.003 C 
ATOM     32  C   UNL     1       5.928  -7.465   7.979  0.00  0.00    -0.009 C 
ATOM     33  C   UNL     1       5.457  -8.021   6.634  0.00  0.00    +0.009 C 
ATOM     34  C   UNL     1       6.428  -7.588   5.534  0.00  0.00    +0.009 C 
ATOM     35  C   UNL     1       7.326  -8.003   8.292  0.00  0.00    +0.008 C 
ENDBRANCH  26  28
ENDBRANCH  10  24
BRANCH   9  36
ATOM     36  C   UNL     1      -0.190 -10.264   4.058  0.00  0.00    +0.136 C 
BRANCH  36  37
ATOM     37  C   UNL     1      -0.268 -11.351   2.984  0.00  0.00    +0.178 C 
BRANCH  37  38
ATOM     38  O   UNL     1       1.052 -11.693   2.557  0.00  0.00    -0.381 OA
ATOM     39  C   UNL     1       1.092 -12.706   1.549  0.00  0.00    +0.194 C 
ENDBRANCH  37  38
ENDBRANCH  36  37
ENDBRANCH   9  36
TORSDOF 7
