REMARK  Name = ZINC10067333
REMARK  13 active torsions:
REMARK  status: ('A' for Active; 'I' for Inactive)
REMARK    1  A    between atoms: C_1  and  C_2
REMARK    2  A    between atoms: C_2  and  N_63
REMARK    3  A    between atoms: C_3  and  C_4
REMARK    4  A    between atoms: C_3  and  N_63
REMARK    5  A    between atoms: C_5  and  C_6
REMARK    6  A    between atoms: C_5  and  N_63
REMARK    7  A    between atoms: C_6  and  N_7
REMARK    8  A    between atoms: C_11  and  O_19
REMARK    9  A    between atoms: C_14  and  O_17
REMARK   10  A    between atoms: O_17  and  C_18
REMARK   11  A    between atoms: O_19  and  C_20
REMARK   12  A    between atoms: C_21  and  C_23
REMARK   13  A    between atoms: C_23  and  N_24
REMARK                            x       y       z     vdW  Elec       q    Type
REMARK                         _______ _______ _______ _____ _____    ______ ____
ROOT
ATOM      1  N   UNL     1       4.498  -3.021  -0.055  0.00  0.00    -0.251 N 
ATOM      2  C   UNL     1       3.477  -2.084  -0.058  0.00  0.00    +0.168 A 
ATOM      3  N   UNL     1       3.561  -0.774  -0.072  0.00  0.00    -0.221 NA
ATOM      4  C   UNL     1       2.471   0.023  -0.074  0.00  0.00    +0.125 A 
ATOM      5  C   UNL     1       2.424   1.442  -0.088  0.00  0.00    +0.147 A 
ATOM      6  C   UNL     1       1.220   2.104  -0.088  0.00  0.00    +0.051 A 
ATOM      7  C   UNL     1       0.014   1.417  -0.073  0.00  0.00    +0.050 A 
ATOM      8  C   UNL     1       0.024   0.031  -0.059  0.00  0.00    +0.136 A 
ATOM      9  C   UNL     1       1.226  -0.641  -0.059  0.00  0.00    +0.086 A 
ATOM     10  S   UNL     1       1.710  -2.351  -0.044  0.00  0.00    -0.048 S 
ATOM     11  C   UNL     1       4.205  -4.337  -0.040  0.00  0.00    +0.239 C 
ATOM     12  O   UNL     1       3.049  -4.700  -0.029  0.00  0.00    -0.273 OA
ENDROOT
BRANCH   8  13
ATOM     13  O   UNL     1      -1.147  -0.661  -0.043  0.00  0.00    -0.494 OA
ATOM     14  C   UNL     1      -2.354   0.104  -0.043  0.00  0.00    +0.277 C 
ENDBRANCH   8  13
BRANCH   5  15
ATOM     15  O   UNL     1       3.583   2.153  -0.103  0.00  0.00    -0.493 OA
ATOM     16  C   UNL     1       3.470   3.577  -0.117  0.00  0.00    +0.277 C 
ENDBRANCH   5  15
BRANCH   1  17
ATOM     17  C   UNL     1       5.896  -2.582  -0.069  0.00  0.00    +0.097 C 
BRANCH  17  18
ATOM     18  C   UNL     1       6.391  -2.415   1.369  0.00  0.00    -0.059 C 
BRANCH  18  19
ATOM     19  N   UNL     1       7.838  -2.111   1.339  0.00  0.00    +0.380 N 
ATOM     20  H   UNL     1       8.290  -2.712   0.640  0.00  0.00    -0.082 HD
BRANCH  19  22
ATOM     21  C   UNL     1       9.543  -0.469   0.724  0.00  0.00    -0.017 C 
ATOM     22  C   UNL     1       8.050  -0.697   0.966  0.00  0.00    -0.082 C 
ENDBRANCH  19  22
BRANCH  19  23
ATOM     23  C   UNL     1       8.438  -2.380   2.663  0.00  0.00    -0.082 C 
ATOM     24  C   UNL     1       8.621  -3.891   2.821  0.00  0.00    -0.017 C 
ENDBRANCH  19  23
ENDBRANCH  18  19
ENDBRANCH  17  18
ENDBRANCH   1  17
BRANCH  11  25
ATOM     25  C   UNL     1       5.316  -5.356  -0.037  0.00  0.00    +0.213 C 
BRANCH  25  26
ATOM     26  N   UNL     1       4.741  -6.704  -0.019  0.00  0.00    -0.225 N 
ATOM     27  C   UNL     1       4.455  -7.395   1.099  0.00  0.00    +0.254 C 
ATOM     28  O   UNL     1       4.629  -7.006   2.236  0.00  0.00    -0.270 OA
ATOM     29  C   UNL     1       3.892  -8.705   0.711  0.00  0.00    +0.049 A 
ATOM     30  C   UNL     1       3.426  -9.804   1.414  0.00  0.00    +0.014 A 
ATOM     31  C   UNL     1       2.953 -10.911   0.726  0.00  0.00    +0.001 A 
ATOM     32  C   UNL     1       2.944 -10.925  -0.656  0.00  0.00    +0.001 A 
ATOM     33  C   UNL     1       3.407  -9.832  -1.373  0.00  0.00    +0.014 A 
ATOM     34  C   UNL     1       3.882  -8.719  -0.698  0.00  0.00    +0.049 A 
ATOM     35  C   UNL     1       4.436  -7.415  -1.120  0.00  0.00    +0.254 C 
ATOM     36  O   UNL     1       4.590  -7.047  -2.267  0.00  0.00    -0.270 OA
ENDBRANCH  25  26
ENDBRANCH  11  25
TORSDOF 9
