REMARK  Name = ZINC09245032
REMARK  9 active torsions:
REMARK  status: ('A' for Active; 'I' for Inactive)
REMARK    1  A    between atoms: C_1  and  N_2
REMARK    2  A    between atoms: N_2  and  C_3
REMARK    3  A    between atoms: C_3  and  C_4
REMARK    4  A    between atoms: C_4  and  C_5
REMARK    5  A    between atoms: C_5  and  C_6
REMARK    6  A    between atoms: C_7  and  C_13
REMARK    7  A    between atoms: C_8  and  N_12
REMARK    8  A    between atoms: C_17  and  C_30
REMARK    9  A    between atoms: C_22  and  C_24
REMARK                            x       y       z     vdW  Elec       q    Type
REMARK                         _______ _______ _______ _____ _____    ______ ____
ROOT
ATOM      1  C   UNL     1       0.049  -0.049   0.964  0.00  0.00    +0.130 C 
ATOM      2  N   UNL     1       1.032   0.105  -0.112  0.00  0.00    -0.318 N 
ATOM      3  C   UNL     1       0.942  -0.678  -1.249  0.00  0.00    +0.134 A 
ATOM      4  C   UNL     1       0.498  -0.115  -2.477  0.00  0.00    +0.055 A 
ATOM      5  C   UNL     1       0.087   1.252  -2.776  0.00  0.00    +0.002 A 
ATOM      6  C   UNL     1      -0.301   1.555  -4.038  0.00  0.00    +0.056 A 
ATOM      7  S   UNL     1      -0.136   0.007  -4.907  0.00  0.00    -0.076 S 
ATOM      8  C   UNL     1       0.445  -1.004  -3.571  0.00  0.00    +0.115 A 
ATOM      9  N   UNL     1       0.787  -2.270  -3.446  0.00  0.00    -0.219 NA
ATOM     10  C   UNL     1       1.193  -2.742  -2.275  0.00  0.00    +0.181 A 
ATOM     11  N   UNL     1       1.273  -1.957  -1.206  0.00  0.00    -0.210 NA
ENDROOT
BRANCH  10  12
ATOM     12  C   UNL     1       1.573  -4.171  -2.158  0.00  0.00    +0.108 A 
ATOM     13  C   UNL     1       1.505  -4.998  -3.278  0.00  0.00    +0.031 A 
ATOM     14  C   UNL     1       1.863  -6.330  -3.154  0.00  0.00    +0.004 A 
ATOM     15  C   UNL     1       2.278  -6.790  -1.913  0.00  0.00    +0.020 A 
ATOM     16  C   UNL     1       2.322  -5.914  -0.843  0.00  0.00    +0.111 A 
ATOM     17  N   UNL     1       1.981  -4.650  -0.990  0.00  0.00    -0.252 NA
ENDBRANCH  10  12
BRANCH   5  18
ATOM     18  C   UNL     1       0.094   2.291  -1.719  0.00  0.00    -0.017 A 
ATOM     19  C   UNL     1      -0.779   2.193  -0.636  0.00  0.00    +0.008 A 
ATOM     20  C   UNL     1      -0.767   3.163   0.345  0.00  0.00    +0.001 A 
ATOM     21  C   UNL     1       0.107   4.231   0.256  0.00  0.00    +0.000 A 
ATOM     22  C   UNL     1       0.975   4.334  -0.816  0.00  0.00    +0.001 A 
ATOM     23  C   UNL     1       0.977   3.367  -1.801  0.00  0.00    +0.008 A 
ENDBRANCH   5  18
BRANCH   2  24
ATOM     24  C   UNL     1       2.109   1.090   0.015  0.00  0.00    +0.106 C 
BRANCH  24  25
ATOM     25  C   UNL     1       3.321   0.436   0.681  0.00  0.00    +0.025 C 
BRANCH  25  26
ATOM     26  C   UNL     1       4.446   1.464   0.815  0.00  0.00    +0.060 C 
BRANCH  26  27
ATOM     27  C   UNL     1       5.641   0.820   1.470  0.00  0.00    +0.082 A 
ATOM     28  C   UNL     1       5.894   0.765   2.861  0.00  0.00    +0.113 A 
ATOM     29  C   UNL     1       7.097   0.084   3.029  0.00  0.00    +0.129 A 
ATOM     30  N   UNL     1       7.538  -0.251   1.798  0.00  0.00    -0.263 N 
ATOM     31  H   UNL     1       8.356  -0.735   1.602  0.00  0.00    +0.190 HD
ATOM     32  N   UNL     1       6.615   0.212   0.855  0.00  0.00    -0.176 NA
BRANCH  29  33
ATOM     33  N   UNL     1       7.721  -0.196   4.229  0.00  0.00    -0.342 N 
ATOM     34  H   UNL     1       7.318   0.092   5.064  0.00  0.00    +0.144 HD
ATOM     35  H   UNL     1       8.562  -0.679   4.238  0.00  0.00    +0.144 HD
ENDBRANCH  29  33
BRANCH  28  36
ATOM     36  C   UNL     1       5.071   1.309   3.899  0.00  0.00    +0.104 C 
ATOM     37  N   UNL     1       4.417   1.740   4.722  0.00  0.00    -0.191 NA
ENDBRANCH  28  36
ENDBRANCH  26  27
ENDBRANCH  25  26
ENDBRANCH  24  25
ENDBRANCH   2  24
TORSDOF 8
