REMARK  Name = ZINC33370792
REMARK  9 active torsions:
REMARK  status: ('A' for Active; 'I' for Inactive)
REMARK    1  A    between atoms: C_1  and  C_2
REMARK    2  A    between atoms: C_3  and  C_33
REMARK    3  A    between atoms: C_8  and  C_26
REMARK    4  A    between atoms: C_10  and  C_15
REMARK    5  A    between atoms: C_15  and  C_17
REMARK    6  A    between atoms: C_30  and  O_32
REMARK    7  A    between atoms: C_33  and  O_35
REMARK    8  A    between atoms: O_35  and  C_36
REMARK    9  A    between atoms: C_36  and  C_37
REMARK                            x       y       z     vdW  Elec       q    Type
REMARK                         _______ _______ _______ _____ _____    ______ ____
ROOT
ATOM      1  C   UNL     1      -5.614  -6.606   0.415  0.00  0.00    +0.067 C 
ATOM      2  C   UNL     1      -4.892  -5.288   0.314  0.00  0.00    +0.062 A 
ATOM      3  C   UNL     1      -5.591  -4.089   0.259  0.00  0.00    +0.120 A 
ATOM      4  S   UNL     1      -4.239  -2.925   0.156  0.00  0.00    -0.045 S 
ATOM      5  C   UNL     1      -2.943  -4.080   0.185  0.00  0.00    +0.169 A 
ATOM      6  N   UNL     1      -3.587  -5.233   0.275  0.00  0.00    -0.229 NA
ATOM      7  N   UNL     1      -1.581  -3.852   0.134  0.00  0.00    -0.232 N 
ATOM      8  C   UNL     1      -0.927  -2.542   0.041  0.00  0.00    +0.152 C 
ATOM      9  C   UNL     1       0.559  -2.814   0.012  0.00  0.00    +0.080 C 
ATOM     10  C   UNL     1       0.711  -4.157   0.092  0.00  0.00    +0.250 C 
ATOM     11  C   UNL     1      -0.619  -4.793   0.167  0.00  0.00    +0.293 C 
ATOM     12  O   UNL     1      -0.816  -5.989   0.248  0.00  0.00    -0.266 OA
ATOM     13  O   UNL     1       1.895  -4.813   0.101  0.00  0.00    -0.282 OA
ENDROOT
BRANCH   8  14
ATOM     14  C   UNL     1      -1.276  -1.698   1.241  0.00  0.00    -0.019 A 
ATOM     15  C   UNL     1      -1.311  -2.270   2.500  0.00  0.00    +0.006 A 
ATOM     16  C   UNL     1      -1.631  -1.499   3.602  0.00  0.00    +0.004 A 
ATOM     17  C   UNL     1      -1.915  -0.156   3.448  0.00  0.00    +0.045 A 
ATOM     18  C   UNL     1      -1.880   0.419   2.187  0.00  0.00    +0.117 A 
ATOM     19  C   UNL     1      -1.554  -0.355   1.082  0.00  0.00    +0.051 A 
BRANCH  18  20
ATOM     20  O   UNL     1      -2.160   1.740   2.033  0.00  0.00    -0.507 OA
ATOM     21  H   UNL     1      -2.132   2.196   1.032  0.00  0.00    +0.292 HD
ENDBRANCH  18  20
ENDBRANCH   8  14
BRANCH   9  22
ATOM     22  C   UNL     1       1.630  -1.816  -0.080  0.00  0.00    +0.230 C 
ATOM     23  O   UNL     1       2.397  -1.659   0.854  0.00  0.00    -0.283 OA
BRANCH  22  24
ATOM     24  C   UNL     1       1.778  -1.007  -1.296  0.00  0.00    +0.176 A 
ATOM     25  C   UNL     1       2.665   0.013  -1.456  0.00  0.00    +0.061 A 
ATOM     26  C   UNL     1       2.458   0.521  -2.811  0.00  0.00    +0.021 A 
ATOM     27  C   UNL     1       3.040   1.541  -3.568  0.00  0.00    +0.011 A 
ATOM     28  C   UNL     1       2.607   1.769  -4.843  0.00  0.00    +0.001 A 
ATOM     29  C   UNL     1       1.593   0.994  -5.391  0.00  0.00    +0.004 A 
ATOM     30  C   UNL     1       1.003  -0.014  -4.659  0.00  0.00    +0.047 A 
ATOM     31  C   UNL     1       1.429  -0.268  -3.361  0.00  0.00    +0.136 A 
ATOM     32  O   UNL     1       1.056  -1.163  -2.426  0.00  0.00    -0.452 OA
ENDBRANCH  22  24
ENDBRANCH   9  22
BRANCH   3  33
ATOM     33  C   UNL     1      -7.032  -3.846   0.284  0.00  0.00    +0.348 C 
ATOM     34  O   UNL     1      -7.806  -4.782   0.364  0.00  0.00    -0.244 OA
BRANCH  33  35
ATOM     35  O   UNL     1      -7.505  -2.584   0.218  0.00  0.00    -0.457 OA
BRANCH  35  36
ATOM     36  C   UNL     1      -8.925  -2.421   0.247  0.00  0.00    +0.259 C 
BRANCH  36  37
ATOM     37  C   UNL     1      -9.263  -0.955   0.165  0.00  0.00    +0.006 C 
ATOM     38  C   UNL     1     -10.214  -0.546  -0.638  0.00  0.00    +0.007 C 
ENDBRANCH  36  37
ENDBRANCH  35  36
ENDBRANCH  33  35
ENDBRANCH   3  33
TORSDOF 8
