REMARK  Name = ZINC58489097
REMARK  8 active torsions:
REMARK  status: ('A' for Active; 'I' for Inactive)
REMARK    1  A    between atoms: C_4  and  N_7
REMARK    2  A    between atoms: C_9  and  C_19
REMARK    3  A    between atoms: C_10  and  C_12
REMARK    4  A    between atoms: C_19  and  N_20
REMARK    5  A    between atoms: N_20  and  C_21
REMARK    6  A    between atoms: C_24  and  C_30
REMARK    7  A    between atoms: C_26  and  N_27
REMARK    8  A    between atoms: N_32  and  C_33
REMARK                            x       y       z     vdW  Elec       q    Type
REMARK                         _______ _______ _______ _____ _____    ______ ____
ROOT
ATOM      1  C   UNL     1       5.684  -3.651  -0.064  0.00  0.00    +0.140 C 
ENDROOT
BRANCH   1   4
ATOM      2  N   UNL     1       3.765  -0.542   0.023  0.00  0.00    -0.239 N 
ATOM      3  C   UNL     1       3.843  -1.897   0.096  0.00  0.00    +0.120 A 
ATOM      4  C   UNL     1       5.137  -2.247  -0.071  0.00  0.00    +0.015 A 
ATOM      5  C   UNL     1       5.885  -1.067  -0.253  0.00  0.00    +0.098 A 
ATOM      6  N   UNL     1       5.056  -0.046  -0.202  0.00  0.00    -0.166 NA
BRANCH   5   7
ATOM      7  C   UNL     1       7.351  -0.989  -0.471  0.00  0.00    +0.003 A 
ATOM      8  C   UNL     1       8.200  -1.898   0.158  0.00  0.00    +0.013 A 
ATOM      9  C   UNL     1       9.562  -1.822  -0.048  0.00  0.00    +0.039 A 
ATOM     10  C   UNL     1      10.086  -0.844  -0.878  0.00  0.00    +0.123 A 
ATOM     11  C   UNL     1       9.245   0.062  -1.504  0.00  0.00    +0.039 A 
ATOM     12  C   UNL     1       7.881  -0.010  -1.309  0.00  0.00    +0.013 A 
ATOM     13  F   UNL     1      11.420  -0.773  -1.076  0.00  0.00    -0.205 F 
ENDBRANCH   5   7
BRANCH   2  17
ATOM     14  C   UNL     1       0.293   1.734   0.387  0.00  0.00    +0.000 A 
ATOM     15  C   UNL     1       1.507   2.358   0.167  0.00  0.00    +0.002 A 
ATOM     16  C   UNL     1       2.660   1.607   0.046  0.00  0.00    +0.028 A 
ATOM     17  C   UNL     1       2.598   0.223   0.146  0.00  0.00    +0.065 A 
ATOM     18  C   UNL     1       1.377  -0.401   0.368  0.00  0.00    +0.028 A 
ATOM     19  C   UNL     1       0.229   0.357   0.488  0.00  0.00    +0.002 A 
ENDBRANCH   2  17
ENDBRANCH   1   4
BRANCH   1  20
ATOM     20  N   UNL     1       6.277  -3.937   1.245  0.00  0.00    -0.338 N 
ATOM     21  H   UNL     1       6.271  -3.259   1.939  0.00  0.00    +0.146 HD
BRANCH  20  22
ATOM     22  C   UNL     1       6.850  -5.179   1.492  0.00  0.00    +0.058 A 
ATOM     23  C   UNL     1       6.970  -6.107   0.461  0.00  0.00    +0.026 A 
ATOM     24  C   UNL     1       7.536  -7.337   0.702  0.00  0.00    +0.015 A 
ATOM     25  C   UNL     1       7.992  -7.656   1.985  0.00  0.00    +0.039 A 
ATOM     26  C   UNL     1       7.871  -6.723   3.018  0.00  0.00    +0.047 A 
ATOM     27  C   UNL     1       7.308  -5.492   2.769  0.00  0.00    +0.148 A 
BRANCH  25  28
ATOM     28  C   UNL     1       8.600  -8.974   2.247  0.00  0.00    +0.244 C 
ATOM     29  O   UNL     1       8.996  -9.250   3.364  0.00  0.00    -0.270 OA
ATOM     30  N   UNL     1       8.716  -9.873   1.250  0.00  0.00    -0.308 N 
ATOM     31  H   UNL     1       8.400  -9.653   0.360  0.00  0.00    +0.149 HD
BRANCH  30  32
ATOM     32  C   UNL     1       9.319 -11.182   1.510  0.00  0.00    +0.073 C 
ATOM     33  C   UNL     1      10.318 -11.717   0.482  0.00  0.00    +0.024 C 
ATOM     34  C   UNL     1       8.924 -12.338   0.590  0.00  0.00    +0.024 C 
ENDBRANCH  30  32
ENDBRANCH  25  28
BRANCH  27  35
ATOM     35  N   UNL     1       7.184  -4.500   3.862  0.00  0.00    +0.058 N 
ATOM     36  O   UNL     1       8.060  -4.399   4.688  0.00  0.00    -0.126 OA
ATOM     37  O   UNL     1       6.206  -3.793   3.928  0.00  0.00    -0.126 OA
ENDBRANCH  27  35
ENDBRANCH  20  22
ENDBRANCH   1  20
TORSDOF 8
