REMARK  Name = ZINC25382478
REMARK  11 active torsions:
REMARK  status: ('A' for Active; 'I' for Inactive)
REMARK    1  A    between atoms: C_1  and  N_2
REMARK    2  A    between atoms: N_2  and  C_3
REMARK    3  A    between atoms: N_2  and  C_4
REMARK    4  A    between atoms: C_4  and  C_6
REMARK    5  A    between atoms: C_4  and  C_13
REMARK    6  A    between atoms: C_6  and  C_7
REMARK    7  A    between atoms: C_13  and  N_14
REMARK    8  A    between atoms: C_15  and  C_17
REMARK    9  A    between atoms: C_21  and  N_23
REMARK   10  A    between atoms: N_23  and  S_24
REMARK   11  A    between atoms: S_24  and  C_27
REMARK                            x       y       z     vdW  Elec       q    Type
REMARK                         _______ _______ _______ _____ _____    ______ ____
ROOT
ATOM      1  C   UNL     1       2.437   3.057  -4.674  0.00  0.00    +0.038 A 
ATOM      2  C   UNL     1       2.694   4.398  -4.382  0.00  0.00    +0.013 A 
ATOM      3  C   UNL     1       2.510   4.872  -3.100  0.00  0.00    +0.003 A 
ATOM      4  C   UNL     1       2.071   4.024  -2.100  0.00  0.00    +0.024 A 
ATOM      5  C   UNL     1       1.812   2.688  -2.381  0.00  0.00    +0.049 A 
ATOM      6  C   UNL     1       2.000   2.200  -3.665  0.00  0.00    +0.037 A 
ENDROOT
BRANCH   1   8
ATOM      7  N   UNL     1       3.061   3.375  -7.021  0.00  0.00    -0.313 N 
ATOM      8  C   UNL     1       2.634   2.546  -6.048  0.00  0.00    +0.244 C 
ATOM      9  O   UNL     1       2.409   1.378  -6.300  0.00  0.00    -0.270 OA
ATOM     10  H   UNL     1       3.264   4.432  -6.793  0.00  0.00    +0.149 HD
BRANCH   7  11
ATOM     11  C   UNL     1       3.256   2.869  -8.382  0.00  0.00    +0.089 C 
BRANCH  11  12
ATOM     12  C   UNL     1       3.905   3.955  -9.242  0.00  0.00    -0.048 C 
BRANCH  12  14
ATOM     13  C   UNL     1       5.257   4.973  -7.510  0.00  0.00    -0.096 C 
ATOM     14  N   UNL     1       5.271   4.207  -8.764  0.00  0.00    +0.379 N 
ATOM     15  C   UNL     1       6.013   2.950  -8.605  0.00  0.00    -0.096 C 
ATOM     16  H   UNL     1       5.789   4.812  -9.523  0.00  0.00    -0.082 HD
ENDBRANCH  12  14
BRANCH  12  17
ATOM     17  C   UNL     1       3.952   3.492 -10.699  0.00  0.00    +0.021 C 
BRANCH  17  18
ATOM     18  C   UNL     1       4.612   4.552 -11.542  0.00  0.00    -0.049 A 
ATOM     19  C   UNL     1       3.866   5.608 -12.033  0.00  0.00    +0.003 A 
ATOM     20  C   UNL     1       4.473   6.583 -12.803  0.00  0.00    +0.000 A 
ATOM     21  C   UNL     1       5.822   6.497 -13.090  0.00  0.00    +0.000 A 
ATOM     22  C   UNL     1       6.566   5.438 -12.604  0.00  0.00    +0.000 A 
ATOM     23  C   UNL     1       5.961   4.466 -11.830  0.00  0.00    +0.003 A 
ENDBRANCH  17  18
ENDBRANCH  12  17
ENDBRANCH  11  12
ENDBRANCH   7  11
ENDBRANCH   1   8
BRANCH   5  24
ATOM     24  N   UNL     1       1.370   1.834  -1.367  0.00  0.00    -0.216 N 
ATOM     25  H   UNL     1       1.813   0.833  -1.258  0.00  0.00    +0.174 HD
BRANCH  24  26
ATOM     26  S   UNL     1       0.178   2.329  -0.329  0.00  0.00    +0.072 S 
ATOM     27  O   UNL     1       0.552   3.621   0.132  0.00  0.00    -0.150 OA
ATOM     28  O   UNL     1      -0.065   1.245   0.557  0.00  0.00    -0.150 OA
BRANCH  26  29
ATOM     29  C   UNL     1      -1.288   2.540  -1.282  0.00  0.00    +0.112 A 
ATOM     30  C   UNL     1      -2.160   1.480  -1.451  0.00  0.00    +0.032 A 
ATOM     31  C   UNL     1      -3.311   1.642  -2.198  0.00  0.00    +0.051 A 
ATOM     32  C   UNL     1      -3.595   2.868  -2.781  0.00  0.00    +0.162 A 
ATOM     33  C   UNL     1      -2.720   3.934  -2.609  0.00  0.00    +0.164 A 
ATOM     34  C   UNL     1      -1.566   3.765  -1.859  0.00  0.00    +0.078 A 
ATOM     35  O   UNL     1      -2.984   5.147  -3.166  0.00  0.00    -0.485 OA
ATOM     36  C   UNL     1      -3.955   5.176  -4.217  0.00  0.00    +0.270 C 
ATOM     37  C   UNL     1      -5.169   4.348  -3.773  0.00  0.00    +0.270 C 
ATOM     38  O   UNL     1      -4.728   3.009  -3.521  0.00  0.00    -0.485 OA
ENDBRANCH  26  29
ENDBRANCH  24  26
ENDBRANCH   5  24
TORSDOF 9
