REMARK  Name = ZINC57273792
REMARK  9 active torsions:
REMARK  status: ('A' for Active; 'I' for Inactive)
REMARK    1  A    between atoms: C_1  and  C_2
REMARK    2  A    between atoms: C_2  and  N_3
REMARK    3  A    between atoms: C_7  and  S_27
REMARK    4  A    between atoms: C_11  and  C_12
REMARK    5  A    between atoms: C_12  and  N_13
REMARK    6  A    between atoms: N_13  and  C_14
REMARK    7  A    between atoms: C_14  and  C_15
REMARK    8  A    between atoms: C_14  and  C_21
REMARK    9  A    between atoms: S_27  and  N_30
REMARK                            x       y       z     vdW  Elec       q    Type
REMARK                         _______ _______ _______ _____ _____    ______ ____
ROOT
ATOM      1  N   UNL     1       0.688  -0.476  -1.203  0.00  0.00    -0.327 N 
ATOM      2  C   UNL     1       0.103  -0.745  -2.425  0.00  0.00    +0.069 A 
ATOM      3  C   UNL     1      -1.195  -0.677  -2.912  0.00  0.00    +0.030 A 
ATOM      4  C   UNL     1      -1.453  -1.026  -4.220  0.00  0.00    +0.030 A 
ATOM      5  C   UNL     1      -0.424  -1.444  -5.053  0.00  0.00    +0.108 A 
ATOM      6  C   UNL     1       0.859  -1.517  -4.591  0.00  0.00    +0.058 A 
ATOM      7  C   UNL     1       1.145  -1.168  -3.268  0.00  0.00    +0.091 A 
ATOM      8  N   UNL     1       2.286  -1.136  -2.534  0.00  0.00    -0.231 NA
ATOM      9  C   UNL     1       2.019  -0.726  -1.328  0.00  0.00    +0.125 A 
ENDROOT
BRANCH   5  10
ATOM     10  S   UNL     1      -0.777  -1.885  -6.721  0.00  0.00    +0.061 S 
ATOM     11  O   UNL     1       0.260  -2.762  -7.138  0.00  0.00    -0.153 OA
ATOM     12  O   UNL     1      -2.149  -2.253  -6.763  0.00  0.00    -0.153 OA
BRANCH  10  13
ATOM     13  N   UNL     1      -0.629  -0.510  -7.633  0.00  0.00    -0.177 NA
ATOM     14  C   UNL     1      -1.784   0.373  -7.849  0.00  0.00    +0.109 C 
ATOM     15  C   UNL     1      -1.399   1.798  -7.439  0.00  0.00    +0.017 C 
ATOM     16  C   UNL     1      -0.136   2.218  -8.195  0.00  0.00    +0.003 C 
ATOM     17  C   UNL     1       1.017   1.281  -7.826  0.00  0.00    +0.017 C 
ATOM     18  C   UNL     1       0.660  -0.146  -8.235  0.00  0.00    +0.109 C 
ENDBRANCH  10  13
ENDBRANCH   5  10
BRANCH   1  20
ATOM     19  C   UNL     1      -0.019   1.526   0.010  0.00  0.00    +0.027 C 
ATOM     20  C   UNL     1       0.002  -0.004   0.002  0.00  0.00    +0.120 C 
ENDBRANCH   1  20
BRANCH   9  21
ATOM     21  C   UNL     1       3.036  -0.556  -0.229  0.00  0.00    +0.156 C 
BRANCH  21  22
ATOM     22  N   UNL     1       3.158  -1.811   0.524  0.00  0.00    -0.299 NA
ATOM     23  H   UNL     1       2.262  -2.106   0.884  0.00  0.00    +0.123 HD
BRANCH  22  24
ATOM     24  C   UNL     1       4.143  -1.683   1.606  0.00  0.00    +0.115 C 
BRANCH  24  25
ATOM     25  C   UNL     1       3.478  -1.093   2.823  0.00  0.00    -0.026 A 
ATOM     26  C   UNL     1       2.202  -1.492   3.176  0.00  0.00    +0.005 A 
ATOM     27  C   UNL     1       1.592  -0.950   4.292  0.00  0.00    +0.000 A 
ATOM     28  C   UNL     1       2.258  -0.010   5.056  0.00  0.00    +0.000 A 
ATOM     29  C   UNL     1       3.534   0.388   4.704  0.00  0.00    +0.000 A 
ATOM     30  C   UNL     1       4.146  -0.156   3.590  0.00  0.00    +0.005 A 
ENDBRANCH  24  25
BRANCH  24  31
ATOM     31  C   UNL     1       4.697  -3.042   1.946  0.00  0.00    -0.026 A 
ATOM     32  C   UNL     1       3.860  -4.142   1.973  0.00  0.00    +0.005 A 
ATOM     33  C   UNL     1       4.367  -5.390   2.285  0.00  0.00    +0.000 A 
ATOM     34  C   UNL     1       5.712  -5.537   2.569  0.00  0.00    +0.000 A 
ATOM     35  C   UNL     1       6.549  -4.438   2.541  0.00  0.00    +0.000 A 
ATOM     36  C   UNL     1       6.042  -3.191   2.225  0.00  0.00    +0.005 A 
ENDBRANCH  24  31
ENDBRANCH  22  24
ENDBRANCH  21  22
ENDBRANCH   9  21
TORSDOF 8
