REMARK  Name = ZINC37928838
REMARK  6 active torsions:
REMARK  status: ('A' for Active; 'I' for Inactive)
REMARK    1  A    between atoms: C_1  and  C_2
REMARK    2  A    between atoms: C_2  and  N_3
REMARK    3  A    between atoms: N_3  and  C_4
REMARK    4  A    between atoms: N_3  and  S_10
REMARK    5  A    between atoms: S_10  and  C_13
REMARK    6  A    between atoms: C_18  and  N_19
REMARK                            x       y       z     vdW  Elec       q    Type
REMARK                         _______ _______ _______ _____ _____    ______ ____
ROOT
ATOM      1  S   UNL     1      -0.395  -0.817  -2.520  0.00  0.00    +0.063 S 
ATOM      2  O   UNL     1      -1.639  -0.138  -2.427  0.00  0.00    -0.153 OA
ATOM      3  O   UNL     1       0.530  -0.573  -3.571  0.00  0.00    -0.153 OA
ENDROOT
BRANCH   1   4
ATOM      4  C   UNL     1      -0.762  -2.540  -2.563  0.00  0.00    +0.127 A 
ATOM      5  C   UNL     1      -2.072  -2.969  -2.468  0.00  0.00    +0.050 A 
ATOM      6  C   UNL     1      -2.361  -4.322  -2.502  0.00  0.00    +0.043 A 
ATOM      7  C   UNL     1      -1.341  -5.248  -2.631  0.00  0.00    +0.022 A 
ATOM      8  C   UNL     1      -0.030  -4.824  -2.725  0.00  0.00    +0.026 A 
ATOM      9  C   UNL     1       0.263  -3.466  -2.698  0.00  0.00    +0.051 A 
ATOM     10 CL   UNL     1      -4.008  -4.859  -2.383  0.00  0.00    -0.083 Cl
BRANCH   9  11
ATOM     11  N   UNL     1       1.588  -3.034  -2.800  0.00  0.00    -0.356 N 
ATOM     12  H   UNL     1       1.797  -2.089  -2.730  0.00  0.00    +0.142 HD
ATOM     13  H   UNL     1       2.299  -3.679  -2.940  0.00  0.00    +0.142 HD
ENDBRANCH   9  11
ENDBRANCH   1   4
BRANCH   1  14
ATOM     14  N   UNL     1       0.412  -0.524  -1.103  0.00  0.00    -0.174 NA
BRANCH  14  15
ATOM     15  C   UNL     1       1.876  -0.466  -1.092  0.00  0.00    +0.080 C 
ATOM     16  C   UNL     1       2.425  -1.617  -0.246  0.00  0.00    +0.020 C 
ATOM     17  C   UNL     1       3.954  -1.557  -0.235  0.00  0.00    +0.002 C 
ATOM     18  C   UNL     1       4.407  -0.223   0.362  0.00  0.00    +0.000 C 
ATOM     19  C   UNL     1       3.858   0.927  -0.484  0.00  0.00    +0.002 C 
ATOM     20  C   UNL     1       2.329   0.867  -0.495  0.00  0.00    +0.020 C 
ENDBRANCH  14  15
BRANCH  14  22
ATOM     21  C   UNL     1      -0.580   1.174   0.351  0.00  0.00    +0.022 C 
ATOM     22  C   UNL     1      -0.339  -0.322   0.138  0.00  0.00    +0.106 C 
ENDBRANCH  14  22
ENDBRANCH   1  14
TORSDOF 5
