REMARK  Name = ZINC41583956
REMARK  10 active torsions:
REMARK  status: ('A' for Active; 'I' for Inactive)
REMARK    1  A    between atoms: C_1  and  C_2
REMARK    2  A    between atoms: C_3  and  O_25
REMARK    3  A    between atoms: C_9  and  O_24
REMARK    4  A    between atoms: C_10  and  C_13
REMARK    5  A    between atoms: C_13  and  N_14
REMARK    6  A    between atoms: C_16  and  C_23
REMARK    7  A    between atoms: C_19  and  C_22
REMARK    8  A    between atoms: O_25  and  C_26
REMARK    9  A    between atoms: C_31  and  O_32
REMARK   10  A    between atoms: O_32  and  C_33
REMARK                            x       y       z     vdW  Elec       q    Type
REMARK                         _______ _______ _______ _____ _____    ______ ____
ROOT
ATOM      1  C   UNL     1      -0.024   1.489  -0.116  0.00  0.00    +0.090 C 
ATOM      2  C   UNL     1      -0.005  -0.017  -0.060  0.00  0.00    +0.148 A 
ATOM      3  C   UNL     1      -1.171  -0.672   0.105  0.00  0.00    +0.213 A 
ATOM      4  C   UNL     1      -1.175  -2.095   0.160  0.00  0.00    +0.235 A 
ATOM      5  O   UNL     1      -2.211  -2.722   0.308  0.00  0.00    -0.283 OA
ATOM      6  C   UNL     1       0.123  -2.778   0.030  0.00  0.00    +0.068 A 
ATOM      7  C   UNL     1       0.221  -4.170   0.071  0.00  0.00    +0.019 A 
ATOM      8  C   UNL     1       1.442  -4.768  -0.054  0.00  0.00    +0.046 A 
ATOM      9  C   UNL     1       2.591  -3.996  -0.221  0.00  0.00    +0.122 A 
ATOM     10  C   UNL     1       2.511  -2.614  -0.263  0.00  0.00    +0.020 A 
ATOM     11  C   UNL     1       1.277  -1.992  -0.139  0.00  0.00    +0.144 A 
ATOM     12  O   UNL     1       1.170  -0.648  -0.182  0.00  0.00    -0.456 OA
ENDROOT
BRANCH   9  13
ATOM     13  O   UNL     1       3.798  -4.604  -0.342  0.00  0.00    -0.506 OA
ATOM     14  H   UNL     1       4.043  -4.814  -1.254  0.00  0.00    +0.292 HD
ENDBRANCH   9  13
BRANCH  10  15
ATOM     15  C   UNL     1       3.759  -1.790  -0.444  0.00  0.00    -0.036 C 
BRANCH  15  16
ATOM     16  N   UNL     1       4.001  -1.574  -1.877  0.00  0.00    +0.383 N 
ATOM     17  C   UNL     1       4.279  -2.862  -2.524  0.00  0.00    -0.075 C 
ATOM     18  C   UNL     1       4.451  -2.653  -4.030  0.00  0.00    -0.031 C 
ATOM     19  C   UNL     1       5.618  -1.693  -4.277  0.00  0.00    +0.003 C 
ATOM     20  C   UNL     1       5.352  -0.380  -3.536  0.00  0.00    -0.031 C 
ATOM     21  C   UNL     1       5.147  -0.673  -2.048  0.00  0.00    -0.075 C 
ATOM     22  C   UNL     1       4.096   0.283  -4.105  0.00  0.00    +0.005 C 
ATOM     23  C   UNL     1       4.742  -3.996  -4.702  0.00  0.00    +0.005 C 
ATOM     24  H   UNL     1       3.182  -1.159  -2.296  0.00  0.00    -0.081 HD
ENDBRANCH  15  16
ENDBRANCH  10  15
BRANCH   3  25
ATOM     25  O   UNL     1      -2.337   0.021   0.219  0.00  0.00    -0.445 OA
BRANCH  25  26
ATOM     26  C   UNL     1      -2.987  -0.016   1.412  0.00  0.00    +0.170 A 
ATOM     27  C   UNL     1      -2.406  -0.647   2.501  0.00  0.00    +0.050 A 
ATOM     28  C   UNL     1      -3.069  -0.684   3.713  0.00  0.00    +0.004 A 
ATOM     29  C   UNL     1      -4.312  -0.092   3.843  0.00  0.00    +0.004 A 
ATOM     30  C   UNL     1      -4.898   0.538   2.761  0.00  0.00    +0.049 A 
ATOM     31  C   UNL     1      -4.236   0.584   1.545  0.00  0.00    +0.162 A 
BRANCH  31  32
ATOM     32  O   UNL     1      -4.809   1.208   0.481  0.00  0.00    -0.491 OA
ATOM     33  C   UNL     1      -6.092   1.802   0.690  0.00  0.00    +0.277 C 
ENDBRANCH  31  32
ENDBRANCH  25  26
ENDBRANCH   3  25
TORSDOF 6
