REMARK  Name = ZINC14479893
REMARK  5 active torsions:
REMARK  status: ('A' for Active; 'I' for Inactive)
REMARK    1  A    between atoms: C_1  and  C_2
REMARK    2  A    between atoms: C_6  and  C_8
REMARK    3  A    between atoms: C_18  and  N_26
REMARK    4  A    between atoms: C_21  and  O_24
REMARK    5  A    between atoms: O_24  and  C_25
REMARK                            x       y       z     vdW  Elec       q    Type
REMARK                         _______ _______ _______ _____ _____    ______ ____
ROOT
ATOM      1  C   UNL     1       2.432  -0.035  -0.297  0.00  0.00    +0.105 C 
ATOM      2  C   UNL     1       2.330   1.211   0.558  0.00  0.00    +0.029 C 
ATOM      3  C   UNL     1       3.504   2.197   0.534  0.00  0.00    +0.033 C 
ATOM      4  C   UNL     1       2.771   3.530   0.800  0.00  0.00    -0.030 C 
ATOM      5  C   UNL     1       1.500   3.442   0.423  0.00  0.00    -0.023 C 
ATOM      6  C   UNL     1       1.275   2.101  -0.170  0.00  0.00    +0.051 C 
ATOM      7  C   UNL     1      -0.020   1.392  -0.073  0.00  0.00    +0.014 A 
ATOM      8  C   UNL     1      -1.216   2.076   0.018  0.00  0.00    +0.132 A 
ATOM      9  C   UNL     1      -2.413   1.390   0.090  0.00  0.00    +0.037 A 
ATOM     10  C   UNL     1      -2.413   0.007   0.069  0.00  0.00    +0.050 A 
ATOM     11  C   UNL     1      -1.221  -0.685  -0.016  0.00  0.00    +0.141 A 
ATOM     12  C   UNL     1       0.000  -0.003  -0.082  0.00  0.00    +0.076 A 
ATOM     13  N   UNL     1       1.165  -0.769  -0.144  0.00  0.00    -0.334 N 
ATOM     14  H   UNL     1       1.083  -1.496  -0.839  0.00  0.00    +0.147 HD
ENDROOT
BRANCH   1  20
ATOM     15  C   UNL     1       7.126  -1.680  -0.855  0.00  0.00    +0.044 C 
ATOM     16  C   UNL     1       5.826  -1.676  -0.092  0.00  0.00    -0.050 A 
ATOM     17  C   UNL     1       5.687  -2.457   1.041  0.00  0.00    +0.003 A 
ATOM     18  C   UNL     1       4.495  -2.454   1.740  0.00  0.00    +0.001 A 
ATOM     19  C   UNL     1       3.441  -1.670   1.307  0.00  0.00    +0.005 A 
ATOM     20  C   UNL     1       3.580  -0.889   0.175  0.00  0.00    -0.027 A 
ATOM     21  C   UNL     1       4.771  -0.896  -0.527  0.00  0.00    +0.008 A 
ENDBRANCH   1  20
BRANCH   8  22
ATOM     22  N   UNL     1      -1.215   3.555   0.039  0.00  0.00    +0.057 N 
ATOM     23  O   UNL     1      -1.821   4.152   0.912  0.00  0.00    -0.126 OA
ATOM     24  O   UNL     1      -0.609   4.177  -0.815  0.00  0.00    -0.126 OA
ENDBRANCH   8  22
BRANCH  11  25
ATOM     25  O   UNL     1      -1.234  -2.045  -0.035  0.00  0.00    -0.493 OA
ATOM     26  C   UNL     1      -2.510  -2.683   0.035  0.00  0.00    +0.277 C 
ENDBRANCH  11  25
TORSDOF 3
