REMARK  Name = ZINC66307389
REMARK  9 active torsions:
REMARK  status: ('A' for Active; 'I' for Inactive)
REMARK    1  A    between atoms: C_1  and  C_2
REMARK    2  A    between atoms: C_4  and  C_24
REMARK    3  A    between atoms: C_7  and  N_8
REMARK    4  A    between atoms: C_9  and  C_11
REMARK    5  A    between atoms: C_11  and  C_12
REMARK    6  A    between atoms: C_12  and  C_14
REMARK    7  A    between atoms: C_12  and  N_15
REMARK    8  A    between atoms: C_16  and  C_18
REMARK    9  A    between atoms: N_26  and  C_27
REMARK                            x       y       z     vdW  Elec       q    Type
REMARK                         _______ _______ _______ _____ _____    ______ ____
ROOT
ATOM      1  N   UNL     1       0.025  -0.012   2.413  0.00  0.00    -0.285 N 
ATOM      2  C   UNL     1      -0.057  -0.688   3.577  0.00  0.00    +0.219 C 
ATOM      3  O   UNL     1      -0.040  -1.900   3.576  0.00  0.00    -0.275 OA
ATOM      4  H   UNL     1       0.078   0.956   2.417  0.00  0.00    +0.155 HD
ENDROOT
BRANCH   1  11
ATOM      5  C   UNL     1      -1.270   1.182   0.184  0.00  0.00    +0.045 C 
ATOM      6  C   UNL     1      -0.589  -0.159   0.086  0.00  0.00    -0.029 A 
ATOM      7  C   UNL     1      -0.579  -0.838  -1.111  0.00  0.00    +0.018 A 
ATOM      8  C   UNL     1       0.053  -2.082  -1.202  0.00  0.00    +0.037 A 
ATOM      9  C   UNL     1       0.672  -2.631  -0.075  0.00  0.00    +0.015 A 
ATOM     10  C   UNL     1       0.657  -1.946   1.119  0.00  0.00    +0.024 A 
ATOM     11  C   UNL     1       0.033  -0.706   1.204  0.00  0.00    +0.036 A 
BRANCH   8  12
ATOM     12  C   UNL     1       0.066  -2.813  -2.483  0.00  0.00    +0.244 C 
ATOM     13  O   UNL     1      -0.473  -2.334  -3.462  0.00  0.00    -0.270 OA
ATOM     14  N   UNL     1       0.675  -4.012  -2.569  0.00  0.00    -0.314 N 
ATOM     15  C   UNL     1       0.688  -4.738  -3.841  0.00  0.00    +0.128 C 
ATOM     16  H   UNL     1       1.105  -4.394  -1.788  0.00  0.00    +0.149 HD
ENDBRANCH   8  12
ENDBRANCH   1  11
BRANCH   2  17
ATOM     17  C   UNL     1      -0.168   0.064   4.878  0.00  0.00    +0.118 C 
BRANCH  17  18
ATOM     18  C   UNL     1      -0.245  -0.932   6.037  0.00  0.00    +0.079 C 
ATOM     19  C   UNL     1      -0.232  -0.171   7.365  0.00  0.00    +0.028 C 
BRANCH  18  20
ATOM     20  N   UNL     1      -1.482  -1.709   5.932  0.00  0.00    -0.312 N 
ATOM     21  C   UNL     1      -1.556  -2.935   6.487  0.00  0.00    +0.216 C 
ATOM     22  O   UNL     1      -0.600  -3.395   7.073  0.00  0.00    -0.276 OA
ATOM     23  H   UNL     1      -2.247  -1.342   5.463  0.00  0.00    +0.149 HD
BRANCH  21  24
ATOM     24  C   UNL     1      -2.829  -3.735   6.378  0.00  0.00    +0.075 C 
ATOM     25  C   UNL     1      -3.975  -2.962   7.034  0.00  0.00    +0.013 C 
ATOM     26  C   UNL     1      -5.267  -3.775   6.924  0.00  0.00    +0.001 C 
ATOM     27  C   UNL     1      -5.087  -5.118   7.633  0.00  0.00    +0.000 C 
ATOM     28  C   UNL     1      -3.941  -5.891   6.977  0.00  0.00    +0.001 C 
ATOM     29  C   UNL     1      -2.649  -5.079   7.087  0.00  0.00    +0.013 C 
ENDBRANCH  21  24
ENDBRANCH  18  20
ENDBRANCH  17  18
ENDBRANCH   2  17
TORSDOF 6
