REMARK  Name = ZINC59461628
REMARK  8 active torsions:
REMARK  status: ('A' for Active; 'I' for Inactive)
REMARK    1  A    between atoms: C_1  and  O_2
REMARK    2  A    between atoms: O_2  and  C_3
REMARK    3  A    between atoms: C_6  and  C_9
REMARK    4  A    between atoms: N_18  and  N_19
REMARK    5  A    between atoms: N_19  and  C_20
REMARK    6  A    between atoms: C_25  and  O_26
REMARK    7  A    between atoms: C_27  and  C_29
REMARK    8  A    between atoms: C_32  and  N_35
REMARK                            x       y       z     vdW  Elec       q    Type
REMARK                         _______ _______ _______ _____ _____    ______ ____
ROOT
ATOM      1  C   UNL     1       2.486  -2.485  -4.348  0.00  0.00    +0.080 A 
ATOM      2  C   UNL     1       2.554  -3.947  -4.465  0.00  0.00    +0.077 A 
ATOM      3  S   UNL     1       3.383  -4.145  -5.917  0.00  0.00    -0.058 S 
ATOM      4  C   UNL     1       3.614  -2.425  -6.327  0.00  0.00    +0.189 A 
ATOM      5  N   UNL     1       3.030  -1.791  -5.314  0.00  0.00    -0.223 NA
ATOM      6  N   UNL     1       4.233  -1.892  -7.413  0.00  0.00    -0.130 N 
ATOM      7  C   UNL     1       4.788  -2.627  -8.397  0.00  0.00    +0.294 C 
ATOM      8  O   UNL     1       4.828  -3.838  -8.477  0.00  0.00    -0.266 OA
ATOM      9  C   UNL     1       5.338  -1.645  -9.360  0.00  0.00    +0.173 C 
ATOM     10  N   UNL     1       5.981  -1.874 -10.495  0.00  0.00    -0.175 NA
ATOM     11  C   UNL     1       4.995  -0.352  -8.746  0.00  0.00    +0.122 C 
ATOM     12  N   UNL     1       4.349  -0.636  -7.621  0.00  0.00    -0.168 NA
ENDROOT
BRANCH   1  16
ATOM     13  C   UNL     1       0.604  -0.606  -1.053  0.00  0.00    +0.120 A 
ATOM     14  C   UNL     1       1.173   0.169  -2.063  0.00  0.00    +0.046 A 
ATOM     15  C   UNL     1       1.781  -0.431  -3.127  0.00  0.00    +0.013 A 
ATOM     16  C   UNL     1       1.833  -1.832  -3.204  0.00  0.00    +0.001 A 
ATOM     17  C   UNL     1       1.258  -2.607  -2.184  0.00  0.00    +0.013 A 
ATOM     18  C   UNL     1       0.658  -1.997  -1.122  0.00  0.00    +0.046 A 
BRANCH  13  20
ATOM     19  C   UNL     1      -0.017   1.425   0.010  0.00  0.00    +0.277 C 
ATOM     20  O   UNL     1       0.002  -0.004   0.002  0.00  0.00    -0.495 OA
ENDBRANCH  13  20
ENDBRANCH   1  16
BRANCH  11  21
ATOM     21  C   UNL     1       5.302   0.990  -9.276  0.00  0.00    +0.004 A 
ATOM     22  C   UNL     1       5.986   1.127 -10.489  0.00  0.00    +0.012 A 
ATOM     23  C   UNL     1       6.269   2.385 -10.978  0.00  0.00    +0.033 A 
ATOM     24  C   UNL     1       5.880   3.510 -10.271  0.00  0.00    +0.126 A 
ATOM     25  C   UNL     1       5.204   3.382  -9.069  0.00  0.00    +0.033 A 
ATOM     26  C   UNL     1       4.907   2.132  -8.570  0.00  0.00    +0.012 A 
BRANCH  24  27
ATOM     27  N   UNL     1       6.189   4.856 -10.803  0.00  0.00    +0.056 N 
ATOM     28  O   UNL     1       6.832   4.982 -11.945  0.00  0.00    -0.126 OA
ATOM     29  O   UNL     1       5.820   5.929 -10.133  0.00  0.00    -0.126 OA
ENDBRANCH  24  27
ENDBRANCH  11  21
BRANCH  10  30
ATOM     30  N   UNL     1       6.195  -3.086 -10.881  0.00  0.00    -0.233 N 
ATOM     31  H   UNL     1       5.886  -3.829 -10.341  0.00  0.00    +0.175 HD
BRANCH  30  32
ATOM     32  C   UNL     1       6.871  -3.326 -12.075  0.00  0.00    +0.090 A 
ATOM     33  C   UNL     1       7.321  -2.263 -12.849  0.00  0.00    +0.028 A 
ATOM     34  C   UNL     1       7.991  -2.505 -14.031  0.00  0.00    +0.002 A 
ATOM     35  C   UNL     1       8.217  -3.805 -14.450  0.00  0.00    +0.004 A 
ATOM     36  C   UNL     1       7.773  -4.869 -13.687  0.00  0.00    +0.047 A 
ATOM     37  C   UNL     1       7.104  -4.637 -12.496  0.00  0.00    +0.139 A 
BRANCH  37  38
ATOM     38  O   UNL     1       6.672  -5.682 -11.742  0.00  0.00    -0.505 OA
ATOM     39  H   UNL     1       5.779  -5.981 -11.960  0.00  0.00    +0.292 HD
ENDBRANCH  37  38
ENDBRANCH  30  32
ENDBRANCH  10  30
TORSDOF 7
