REMARK  Name = ZINC08382935
REMARK  9 active torsions:
REMARK  status: ('A' for Active; 'I' for Inactive)
REMARK    1  A    between atoms: C_1  and  C_2
REMARK    2  A    between atoms: C_4  and  C_28
REMARK    3  A    between atoms: C_8  and  N_27
REMARK    4  A    between atoms: C_9  and  C_11
REMARK    5  A    between atoms: C_14  and  S_17
REMARK    6  A    between atoms: N_15  and  C_16
REMARK    7  A    between atoms: S_17  and  C_18
REMARK    8  A    between atoms: C_18  and  C_19
REMARK    9  A    between atoms: C_19  and  C_21
REMARK                            x       y       z     vdW  Elec       q    Type
REMARK                         _______ _______ _______ _____ _____    ______ ____
ROOT
ATOM      1  C   UNL     1      -2.482   2.019   0.049  0.00  0.00    +0.044 C 
ATOM      2  C   UNL     1      -1.031   2.424   0.030  0.00  0.00    -0.034 A 
ATOM      3  C   UNL     1      -0.670   3.745   0.029  0.00  0.00    +0.032 A 
ATOM      4  C   UNL     1       0.685   4.085   0.018  0.00  0.00    +0.075 A 
ATOM      5  N   UNL     1       1.630   3.155   0.004  0.00  0.00    -0.212 NA
ATOM      6  C   UNL     1       1.332   1.865  -0.001  0.00  0.00    +0.231 A 
ATOM      7  C   UNL     1      -0.018   1.461   0.010  0.00  0.00    +0.064 A 
ATOM      8  C   UNL     1       0.002  -0.004   0.002  0.00  0.00    +0.084 A 
ATOM      9  C   UNL     1       1.319  -0.360  -0.012  0.00  0.00    +0.196 A 
ATOM     10  O   UNL     1       2.089   0.750  -0.014  0.00  0.00    -0.432 OA
ENDROOT
BRANCH   9  11
ATOM     11  C   UNL     1       1.822  -1.739  -0.025  0.00  0.00    +0.202 A 
ATOM     12  N   UNL     1       1.097  -2.838  -0.025  0.00  0.00    -0.125 NA
ATOM     13  N   UNL     1       1.863  -3.869  -0.038  0.00  0.00    -0.122 NA
ATOM     14  C   UNL     1       3.123  -3.497  -0.048  0.00  0.00    +0.192 A 
ATOM     15  N   UNL     1       3.144  -2.129  -0.045  0.00  0.00    -0.303 N 
ATOM     16  C   UNL     1       4.324  -1.261  -0.059  0.00  0.00    +0.153 C 
BRANCH  14  17
ATOM     17  S   UNL     1       4.526  -4.563  -0.068  0.00  0.00    -0.078 S 
BRANCH  17  18
ATOM     18  C   UNL     1       3.698  -6.173  -0.070  0.00  0.00    +0.157 C 
BRANCH  18  19
ATOM     19  C   UNL     1       4.732  -7.269  -0.087  0.00  0.00    +0.173 C 
ATOM     20  O   UNL     1       5.912  -6.990  -0.096  0.00  0.00    -0.291 OA
BRANCH  19  21
ATOM     21  C   UNL     1       4.309  -8.679  -0.092  0.00  0.00    +0.018 A 
ATOM     22  C   UNL     1       2.949  -9.005  -0.076  0.00  0.00    +0.011 A 
ATOM     23  C   UNL     1       2.561 -10.328  -0.086  0.00  0.00    +0.001 A 
ATOM     24  C   UNL     1       3.513 -11.332  -0.101  0.00  0.00    +0.000 A 
ATOM     25  C   UNL     1       4.861 -11.018  -0.112  0.00  0.00    +0.001 A 
ATOM     26  C   UNL     1       5.265  -9.699  -0.107  0.00  0.00    +0.011 A 
ENDBRANCH  19  21
ENDBRANCH  18  19
ENDBRANCH  17  18
ENDBRANCH  14  17
ENDBRANCH   9  11
BRANCH   4  27
ATOM     27  C   UNL     1       1.075   5.515   0.023  0.00  0.00    +0.000 A 
ATOM     28  C   UNL     1       0.096   6.507   0.032  0.00  0.00    +0.010 A 
ATOM     29  C   UNL     1       0.464   7.837   0.042  0.00  0.00    +0.001 A 
ATOM     30  C   UNL     1       1.803   8.186   0.031  0.00  0.00    +0.000 A 
ATOM     31  C   UNL     1       2.779   7.206   0.017  0.00  0.00    +0.001 A 
ATOM     32  C   UNL     1       2.422   5.873   0.013  0.00  0.00    +0.010 A 
ENDBRANCH   4  27
BRANCH   8  33
ATOM     33  N   UNL     1      -1.103  -0.862   0.007  0.00  0.00    -0.354 N 
ATOM     34  H   UNL     1      -2.001  -0.496   0.018  0.00  0.00    +0.142 HD
ATOM     35  H   UNL     1      -0.971  -1.823   0.001  0.00  0.00    +0.142 HD
ENDBRANCH   8  33
TORSDOF 7
