REMARK  Name = ZINC12916915
REMARK  9 active torsions:
REMARK  status: ('A' for Active; 'I' for Inactive)
REMARK    1  A    between atoms: C_1  and  C_2
REMARK    2  A    between atoms: C_2  and  C_3
REMARK    3  A    between atoms: C_6  and  C_9
REMARK    4  A    between atoms: C_9  and  C_11
REMARK    5  A    between atoms: C_9  and  N_16
REMARK    6  A    between atoms: N_16  and  C_17
REMARK    7  A    between atoms: C_17  and  C_19
REMARK    8  A    between atoms: C_17  and  C_20
REMARK    9  A    between atoms: N_22  and  C_23
REMARK                            x       y       z     vdW  Elec       q    Type
REMARK                         _______ _______ _______ _____ _____    ______ ____
ROOT
ATOM      1  C   UNL     1       4.440  -1.149  -6.285  0.00  0.00    +0.138 C 
ATOM      2  C   UNL     1       5.184  -2.445  -6.614  0.00  0.00    +0.034 C 
ENDROOT
BRANCH   1   3
ATOM      3  C   UNL     1       5.360   0.026  -6.496  0.00  0.00    +0.234 C 
ATOM      4  O   UNL     1       5.622   0.765  -5.571  0.00  0.00    -0.274 OA
ATOM      5  N   UNL     1       5.891   0.255  -7.713  0.00  0.00    -0.284 N 
ATOM      6  H   UNL     1       5.736  -0.372  -8.437  0.00  0.00    +0.155 HD
BRANCH   5   7
ATOM      7  C   UNL     1       6.668   1.400  -7.934  0.00  0.00    +0.036 A 
ATOM      8  C   UNL     1       6.613   2.050  -9.162  0.00  0.00    +0.025 A 
ATOM      9  C   UNL     1       7.375   3.178  -9.385  0.00  0.00    +0.029 A 
ATOM     10  C   UNL     1       8.200   3.666  -8.383  0.00  0.00    +0.067 A 
ATOM     11  C   UNL     1       8.258   3.016  -7.148  0.00  0.00    +0.069 A 
ATOM     12  C   UNL     1       7.486   1.886  -6.925  0.00  0.00    +0.051 A 
ATOM     13  N   UNL     1       9.158   3.728  -6.359  0.00  0.00    -0.306 N 
ATOM     14  H   UNL     1       9.405   3.514  -5.446  0.00  0.00    +0.170 HD
ATOM     15  C   UNL     1       9.626   4.765  -7.080  0.00  0.00    +0.325 A 
ATOM     16  O   UNL     1      10.432   5.586  -6.683  0.00  0.00    -0.247 OA
ATOM     17  N   UNL     1       9.068   4.755  -8.305  0.00  0.00    -0.306 N 
ATOM     18  H   UNL     1       9.240   5.396  -9.012  0.00  0.00    +0.170 HD
ENDBRANCH   5   7
ENDBRANCH   1   3
BRANCH   1  19
ATOM     19  N   UNL     1       3.999  -1.180  -4.884  0.00  0.00    -0.295 NA
ATOM     20  H   UNL     1       3.945  -0.248  -4.502  0.00  0.00    +0.124 HD
BRANCH  19  21
ATOM     21  C   UNL     1       2.713  -1.878  -4.753  0.00  0.00    +0.122 C 
BRANCH  21  25
ATOM     22  C   UNL     1       0.695  -0.500  -1.249  0.00  0.00    -0.048 A 
ATOM     23  C   UNL     1      -0.018  -0.737  -2.409  0.00  0.00    +0.004 A 
ATOM     24  C   UNL     1       0.635  -1.183  -3.543  0.00  0.00    +0.006 A 
ATOM     25  C   UNL     1       2.001  -1.391  -3.517  0.00  0.00    -0.026 A 
ATOM     26  C   UNL     1       2.715  -1.153  -2.357  0.00  0.00    +0.006 A 
ATOM     27  C   UNL     1       2.062  -0.703  -1.224  0.00  0.00    +0.004 A 
BRANCH  22  29
ATOM     28  C   UNL     1      -0.048   1.516  -0.010  0.00  0.00    +0.009 C 
ATOM     29  C   UNL     1      -0.017  -0.014  -0.013  0.00  0.00    +0.032 C 
ENDBRANCH  22  29
ENDBRANCH  21  25
BRANCH  21  30
ATOM     30  C   UNL     1       2.955  -3.361  -4.641  0.00  0.00    +0.011 A 
ATOM     31  C   UNL     1       2.263  -4.384  -5.200  0.00  0.00    +0.013 A 
ATOM     32  C   UNL     1       2.672  -5.682  -4.958  0.00  0.00    +0.008 A 
ATOM     33  C   UNL     1       3.753  -5.894  -4.169  0.00  0.00    +0.045 A 
ATOM     34  S   UNL     1       4.233  -4.227  -3.745  0.00  0.00    -0.100 S 
ENDBRANCH  21  30
ENDBRANCH  19  21
ENDBRANCH   1  19
TORSDOF 7
