REMARK  Name = ZINC04589936
REMARK  4 active torsions:
REMARK  status: ('A' for Active; 'I' for Inactive)
REMARK    1  A    between atoms: C_4  and  N_19
REMARK    2  A    between atoms: C_5  and  N_7
REMARK    3  A    between atoms: N_7  and  N_8
REMARK    4  A    between atoms: N_11  and  C_12
REMARK                            x       y       z     vdW  Elec       q    Type
REMARK                         _______ _______ _______ _____ _____    ______ ____
ROOT
ATOM      1  N   UNL     1       1.291   1.808  -0.415  0.00  0.00    -0.220 N 
ATOM      2  C   UNL     1       0.164   1.074  -0.508  0.00  0.00    +0.320 C 
ATOM      3  O   UNL     1       0.231  -0.111  -0.770  0.00  0.00    -0.251 OA
ATOM      4  N   UNL     1      -1.037   1.656  -0.317  0.00  0.00    -0.268 N 
ATOM      5  H   UNL     1       2.155   1.390  -0.556  0.00  0.00    +0.174 HD
ATOM      6  H   UNL     1      -1.087   2.585  -0.044  0.00  0.00    +0.156 HD
ENDROOT
BRANCH   4   7
ATOM      7  C   UNL     1      -2.211   0.918  -0.511  0.00  0.00    +0.035 A 
ATOM      8  C   UNL     1      -3.340   1.534  -1.034  0.00  0.00    +0.025 A 
ATOM      9  C   UNL     1      -4.495   0.802  -1.231  0.00  0.00    +0.022 A 
ATOM     10  C   UNL     1      -4.531  -0.540  -0.896  0.00  0.00    +0.041 A 
ATOM     11  C   UNL     1      -3.409  -1.154  -0.369  0.00  0.00    +0.022 A 
ATOM     12  C   UNL     1      -2.249  -0.429  -0.176  0.00  0.00    +0.025 A 
ATOM     13 CL   UNL     1      -5.987  -1.454  -1.137  0.00  0.00    -0.084 Cl
ENDBRANCH   4   7
BRANCH   1  14
ATOM     14  N   UNL     1       1.214   3.174  -0.113  0.00  0.00    -0.261 N 
ATOM     15  H   UNL     1       0.350   3.592   0.028  0.00  0.00    +0.170 HD
BRANCH  14  20
ATOM     16  C   UNL     1       4.762   4.121  -0.234  0.00  0.00    +0.002 A 
ATOM     17  C   UNL     1       4.695   5.440   0.176  0.00  0.00    +0.002 A 
ATOM     18  C   UNL     1       3.474   6.008   0.490  0.00  0.00    +0.034 A 
ATOM     19  C   UNL     1       2.317   5.259   0.396  0.00  0.00    +0.148 A 
ATOM     20  C   UNL     1       2.382   3.934  -0.017  0.00  0.00    +0.075 A 
ATOM     21  C   UNL     1       3.611   3.366  -0.327  0.00  0.00    +0.027 A 
BRANCH  19  22
ATOM     22  N   UNL     1       1.011   5.868   0.733  0.00  0.00    +0.058 N 
ATOM     23  O   UNL     1       0.781   7.024   0.428  0.00  0.00    -0.126 OA
ATOM     24  O   UNL     1       0.166   5.212   1.315  0.00  0.00    -0.126 OA
ENDBRANCH  19  22
ENDBRANCH  14  20
ENDBRANCH   1  14
TORSDOF 4
