REMARK  Name = ZINC21584504
REMARK  5 active torsions:
REMARK  status: ('A' for Active; 'I' for Inactive)
REMARK    1  A    between atoms: C_1  and  C_2
REMARK    2  A    between atoms: C_8  and  N_10
REMARK    3  A    between atoms: C_14  and  C_16
REMARK    4  A    between atoms: C_16  and  N_17
REMARK    5  A    between atoms: C_20  and  C_23
REMARK                            x       y       z     vdW  Elec       q    Type
REMARK                         _______ _______ _______ _____ _____    ______ ____
ROOT
ATOM      1  C   UNL     1       0.412   0.856  -0.119  0.00  0.00    +0.019 C 
ENDROOT
BRANCH   1   6
ATOM      2  N   UNL     1       2.996  -2.698   1.831  0.00  0.00    -0.296 N 
ATOM      3  C   UNL     1       2.358  -2.186   0.759  0.00  0.00    +0.306 C 
ATOM      4  O   UNL     1       2.339  -2.802  -0.288  0.00  0.00    -0.252 OA
ATOM      5  N   UNL     1       1.740  -0.991   0.851  0.00  0.00    -0.242 N 
ATOM      6  C   UNL     1       1.102  -0.479  -0.221  0.00  0.00    +0.204 C 
ATOM      7  O   UNL     1       1.083  -1.093  -1.266  0.00  0.00    -0.277 OA
ATOM      8  H   UNL     1       3.013  -2.141   2.779  0.00  0.00    +0.151 HD
ATOM      9  H   UNL     1       1.758  -0.434   1.799  0.00  0.00    +0.159 HD
BRANCH   2  16
ATOM     10  C   UNL     1       2.346  -4.828   3.683  0.00  0.00    +0.009 C 
ATOM     11  C   UNL     1       3.756  -4.632   3.121  0.00  0.00    +0.006 C 
ATOM     12  C   UNL     1       4.553  -3.715   4.051  0.00  0.00    +0.005 C 
ATOM     13  C   UNL     1       5.963  -3.520   3.488  0.00  0.00    +0.000 C 
ATOM     14  C   UNL     1       5.874  -2.884   2.099  0.00  0.00    +0.002 C 
ATOM     15  C   UNL     1       5.076  -3.801   1.169  0.00  0.00    +0.022 C 
ATOM     16  C   UNL     1       3.667  -3.997   1.732  0.00  0.00    +0.077 C 
ENDBRANCH   2  16
ENDBRANCH   1   6
BRANCH   1  17
ATOM     17  N   UNL     1      -0.085   1.253  -1.443  0.00  0.00    +0.385 N 
ATOM     18  C   UNL     1      -0.967   2.423  -1.345  0.00  0.00    -0.077 C 
ATOM     19  C   UNL     1      -1.580   2.717  -2.716  0.00  0.00    -0.006 C 
ATOM     20  C   UNL     1      -0.458   2.983  -3.724  0.00  0.00    +0.072 C 
ATOM     21  C   UNL     1       0.473   1.769  -3.772  0.00  0.00    -0.006 C 
ATOM     22  C   UNL     1       1.026   1.502  -2.370  0.00  0.00    -0.077 C 
ATOM     23  H   UNL     1      -0.678   0.419  -1.847  0.00  0.00    -0.081 HD
BRANCH  20  24
ATOM     24  C   UNL     1      -1.051   3.216  -5.090  0.00  0.00    +0.219 C 
ATOM     25  O   UNL     1      -1.098   2.309  -5.894  0.00  0.00    -0.275 OA
ATOM     26  N   UNL     1      -1.530   4.432  -5.419  0.00  0.00    -0.301 N 
ATOM     27  C   UNL     1      -1.992   4.653  -6.771  0.00  0.00    +0.108 C 
ATOM     28  C   UNL     1      -0.822   5.133  -7.654  0.00  0.00    +0.019 C 
ATOM     29  C   UNL     1      -0.445   6.510  -7.298  0.00  0.00    +0.002 C 
ATOM     30  C   UNL     1       0.067   6.671  -5.870  0.00  0.00    +0.002 C 
ATOM     31  C   UNL     1      -1.105   6.850  -4.936  0.00  0.00    +0.019 C 
ATOM     32  C   UNL     1      -1.556   5.485  -4.385  0.00  0.00    +0.108 C 
ENDBRANCH  20  24
ENDBRANCH   1  17
TORSDOF 4
