REMARK  Name = ZINC41001129
REMARK  15 active torsions:
REMARK  status: ('A' for Active; 'I' for Inactive)
REMARK    1  A    between atoms: C_1  and  C_2
REMARK    2  A    between atoms: C_2  and  C_3
REMARK    3  A    between atoms: C_3  and  C_4
REMARK    4  A    between atoms: C_4  and  S_5
REMARK    5  A    between atoms: S_5  and  C_6
REMARK    6  A    between atoms: C_11  and  C_26
REMARK    7  A    between atoms: C_13  and  C_17
REMARK    8  A    between atoms: C_14  and  C_16
REMARK    9  A    between atoms: N_19  and  C_20
REMARK   10  A    between atoms: C_29  and  O_32
REMARK   11  A    between atoms: O_32  and  C_33
REMARK   12  A    between atoms: C_33  and  C_34
REMARK   13  A    between atoms: C_34  and  C_35
REMARK   14  A    between atoms: C_35  and  C_36
REMARK   15  A    between atoms: C_35  and  C_37
REMARK                            x       y       z     vdW  Elec       q    Type
REMARK                         _______ _______ _______ _____ _____    ______ ____
ROOT
ATOM      1  C   UNL     1      -3.032  -4.458  -0.009  0.00  0.00    +0.210 A 
ATOM      2  N   UNL     1      -1.844  -5.079  -0.040  0.00  0.00    -0.187 NA
ATOM      3  C   UNL     1      -2.026  -6.371  -0.033  0.00  0.00    +0.219 A 
ATOM      4  N   UNL     1      -3.361  -6.608  -0.003  0.00  0.00    -0.220 N 
ATOM      5  N   UNL     1      -3.987  -5.363   0.021  0.00  0.00    -0.141 NA
ATOM      6  C   UNL     1      -3.944  -7.947   0.003  0.00  0.00    +0.177 C 
ATOM      7  C   UNL     1      -2.865  -8.963   0.270  0.00  0.00    +0.060 C 
ATOM      8  C   UNL     1      -1.557  -8.669   0.230  0.00  0.00    +0.018 C 
ATOM      9  N   UNL     1      -1.099  -7.404  -0.050  0.00  0.00    -0.287 N 
ATOM     10  C   UNL     1      -0.556  -9.762   0.502  0.00  0.00    +0.061 C 
ATOM     11  H   UNL     1      -0.165  -7.240  -0.251  0.00  0.00    +0.155 HD
ENDROOT
BRANCH   6  12
ATOM     12  C   UNL     1      -4.576  -8.226  -1.336  0.00  0.00    -0.018 A 
ATOM     13  C   UNL     1      -3.801  -8.208  -2.482  0.00  0.00    +0.009 A 
ATOM     14  C   UNL     1      -4.378  -8.463  -3.711  0.00  0.00    +0.046 A 
ATOM     15  C   UNL     1      -5.736  -8.737  -3.795  0.00  0.00    +0.121 A 
ATOM     16  C   UNL     1      -6.510  -8.755  -2.644  0.00  0.00    +0.046 A 
ATOM     17  C   UNL     1      -5.928  -8.505  -1.417  0.00  0.00    +0.009 A 
BRANCH  15  18
ATOM     18  O   UNL     1      -6.306  -8.988  -5.003  0.00  0.00    -0.492 OA
BRANCH  18  19
ATOM     19  C   UNL     1      -7.708  -9.262  -5.014  0.00  0.00    +0.229 C 
BRANCH  19  20
ATOM     20  C   UNL     1      -8.166  -9.518  -6.452  0.00  0.00    +0.044 C 
BRANCH  20  21
ATOM     21  C   UNL     1      -9.668  -9.812  -6.464  0.00  0.00    -0.014 C 
ATOM     22  C   UNL     1     -10.150  -9.944  -7.910  0.00  0.00    +0.007 C 
ATOM     23  C   UNL     1      -9.937 -11.118  -5.715  0.00  0.00    +0.007 C 
ENDBRANCH  20  21
ENDBRANCH  19  20
ENDBRANCH  18  19
ENDBRANCH  15  18
ENDBRANCH   6  12
BRANCH   7  24
ATOM     24  C   UNL     1      -3.249 -10.289   0.579  0.00  0.00    +0.248 C 
ATOM     25  O   UNL     1      -3.614 -10.571   1.706  0.00  0.00    -0.270 OA
ATOM     26  N   UNL     1      -3.210 -11.241  -0.375  0.00  0.00    -0.282 N 
ATOM     27  H   UNL     1      -2.840 -11.037  -1.248  0.00  0.00    +0.155 HD
BRANCH  26  28
ATOM     28  C   UNL     1      -3.703 -12.521  -0.105  0.00  0.00    +0.034 A 
ATOM     29  C   UNL     1      -4.684 -12.700   0.861  0.00  0.00    +0.023 A 
ATOM     30  C   UNL     1      -5.169 -13.966   1.125  0.00  0.00    +0.002 A 
ATOM     31  C   UNL     1      -4.678 -15.055   0.428  0.00  0.00    +0.000 A 
ATOM     32  C   UNL     1      -3.700 -14.881  -0.534  0.00  0.00    +0.002 A 
ATOM     33  C   UNL     1      -3.215 -13.617  -0.807  0.00  0.00    +0.023 A 
ENDBRANCH  26  28
ENDBRANCH   7  24
BRANCH   1  34
ATOM     34  S   UNL     1      -3.276  -2.713  -0.003  0.00  0.00    -0.084 S 
BRANCH  34  35
ATOM     35  C   UNL     1      -1.594  -2.035  -0.055  0.00  0.00    +0.077 C 
BRANCH  35  36
ATOM     36  C   UNL     1      -1.660  -0.507  -0.054  0.00  0.00    +0.011 C 
BRANCH  36  38
ATOM     37  C   UNL     1      -0.308   1.594  -0.097  0.00  0.00    +0.004 C 
ATOM     38  C   UNL     1      -0.242   0.065  -0.098  0.00  0.00    -0.003 C 
ENDBRANCH  36  38
ENDBRANCH  35  36
ENDBRANCH  34  35
ENDBRANCH   1  34
TORSDOF 11
