REMARK  Name = ZINC41157562
REMARK  4 active torsions:
REMARK  status: ('A' for Active; 'I' for Inactive)
REMARK    1  A    between atoms: C_1  and  C_2
REMARK    2  A    between atoms: N_5  and  S_13
REMARK    3  A    between atoms: S_13  and  C_16
REMARK    4  A    between atoms: C_19  and  N_22
REMARK                            x       y       z     vdW  Elec       q    Type
REMARK                         _______ _______ _______ _____ _____    ______ ____
ROOT
ATOM      1  S   UNL     1      -2.378  -2.942  -0.859  0.00  0.00    +0.075 S 
ATOM      2  O   UNL     1      -2.883  -2.101  -1.887  0.00  0.00    -0.150 OA
ATOM      3  O   UNL     1      -1.680  -4.148  -1.135  0.00  0.00    -0.150 OA
ENDROOT
BRANCH   1   7
ATOM      4  C   UNL     1      -0.041   1.534   0.026  0.00  0.00    +0.053 C 
ATOM      5  C   UNL     1      -0.011   0.005   0.007  0.00  0.00    +0.189 C 
ATOM      6  C   UNL     1      -1.447  -0.539   0.030  0.00  0.00    +0.176 C 
ATOM      7  N   UNL     1      -1.366  -2.009   0.061  0.00  0.00    -0.196 N 
ATOM      8  C   UNL     1      -0.401  -2.592   0.897  0.00  0.00    +0.093 A 
ATOM      9  C   UNL     1      -0.461  -3.946   1.189  0.00  0.00    +0.028 A 
ATOM     10  C   UNL     1       0.494  -4.516   2.010  0.00  0.00    +0.002 A 
ATOM     11  C   UNL     1       1.506  -3.738   2.540  0.00  0.00    +0.004 A 
ATOM     12  C   UNL     1       1.570  -2.387   2.254  0.00  0.00    +0.047 A 
ATOM     13  C   UNL     1       0.616  -1.806   1.432  0.00  0.00    +0.143 A 
ATOM     14  O   UNL     1       0.685  -0.475   1.160  0.00  0.00    -0.486 OA
ENDBRANCH   1   7
BRANCH   1  15
ATOM     15  C   UNL     1      -3.752  -3.376   0.155  0.00  0.00    +0.109 A 
ATOM     16  C   UNL     1      -3.709  -4.528   0.919  0.00  0.00    +0.030 A 
ATOM     17  C   UNL     1      -4.784  -4.871   1.715  0.00  0.00    +0.024 A 
ATOM     18  C   UNL     1      -5.909  -4.058   1.749  0.00  0.00    +0.025 A 
ATOM     19  C   UNL     1      -5.949  -2.901   0.981  0.00  0.00    +0.024 A 
ATOM     20  C   UNL     1      -4.869  -2.561   0.191  0.00  0.00    +0.030 A 
BRANCH  18  21
ATOM     21  N   UNL     1      -6.998  -4.402   2.553  0.00  0.00    -0.358 N 
ATOM     22  H   UNL     1      -6.969  -5.210   3.088  0.00  0.00    +0.142 HD
ATOM     23  H   UNL     1      -7.784  -3.833   2.575  0.00  0.00    +0.142 HD
ENDBRANCH  18  21
ENDBRANCH   1  15
TORSDOF 3
