REMARK  Name = ZINC36027384
REMARK  10 active torsions:
REMARK  status: ('A' for Active; 'I' for Inactive)
REMARK    1  A    between atoms: C_1  and  C_2
REMARK    2  A    between atoms: C_2  and  C_3
REMARK    3  A    between atoms: C_3  and  C_5
REMARK    4  A    between atoms: C_3  and  C_6
REMARK    5  A    between atoms: C_6  and  N_7
REMARK    6  A    between atoms: C_10  and  C_29
REMARK    7  A    between atoms: N_16  and  S_19
REMARK    8  A    between atoms: S_19  and  C_22
REMARK    9  A    between atoms: C_25  and  C_28
REMARK   10  A    between atoms: C_29  and  C_30
REMARK                            x       y       z     vdW  Elec       q    Type
REMARK                         _______ _______ _______ _____ _____    ______ ____
ROOT
ATOM      1  N   UNL     1       1.448  -2.486  -2.362  0.00  0.00    -0.313 N 
ATOM      2  C   UNL     1       0.935  -2.653  -3.599  0.00  0.00    +0.201 C 
ATOM      3  O   UNL     1      -0.212  -2.437  -3.925  0.00  0.00    -0.277 OA
ATOM      4  C   UNL     1       2.034  -3.156  -4.510  0.00  0.00    +0.023 C 
ATOM      5  N   UNL     1       3.292  -2.866  -3.781  0.00  0.00    +0.401 N 
ATOM      6  C   UNL     1       2.867  -2.853  -2.368  0.00  0.00    +0.006 C 
ATOM      7  C   UNL     1       3.057  -4.243  -1.763  0.00  0.00    +0.023 C 
ATOM      8  C   UNL     1       2.580  -4.233  -0.307  0.00  0.00    +0.109 C 
ATOM      9  N   UNL     1       3.272  -3.154   0.410  0.00  0.00    -0.177 NA
ATOM     10  C   UNL     1       3.211  -1.791  -0.134  0.00  0.00    +0.109 C 
ATOM     11  C   UNL     1       3.683  -1.820  -1.592  0.00  0.00    +0.023 C 
ATOM     12  H   UNL     1       3.974  -3.593  -3.944  0.00  0.00    -0.082 HD
ATOM     13  H   UNL     1       3.659  -1.965  -4.048  0.00  0.00    -0.082 HD
ENDROOT
BRANCH   9  14
ATOM     14  S   UNL     1       4.106  -3.468   1.806  0.00  0.00    +0.061 S 
ATOM     15  O   UNL     1       4.166  -2.245   2.527  0.00  0.00    -0.153 OA
ATOM     16  O   UNL     1       3.544  -4.651   2.357  0.00  0.00    -0.153 OA
BRANCH  14  17
ATOM     17  C   UNL     1       5.761  -3.864   1.347  0.00  0.00    +0.105 A 
ATOM     18  C   UNL     1       6.109  -5.175   1.080  0.00  0.00    +0.029 A 
ATOM     19  C   UNL     1       7.407  -5.485   0.720  0.00  0.00    +0.005 A 
ATOM     20  C   UNL     1       8.356  -4.485   0.626  0.00  0.00    -0.050 A 
ATOM     21  C   UNL     1       8.008  -3.174   0.892  0.00  0.00    +0.005 A 
ATOM     22  C   UNL     1       6.709  -2.863   1.248  0.00  0.00    +0.029 A 
ATOM     23  C   UNL     1       9.772  -4.823   0.234  0.00  0.00    +0.044 C 
ENDBRANCH  14  17
ENDBRANCH   9  14
BRANCH   1  24
ATOM     24  C   UNL     1       0.704  -2.007  -1.195  0.00  0.00    +0.109 C 
BRANCH  24  25
ATOM     25  C   UNL     1       0.474  -0.500  -1.321  0.00  0.00    +0.003 C 
ATOM     26  C   UNL     1       1.805   0.196  -1.616  0.00  0.00    +0.009 C 
BRANCH  25  28
ATOM     27  C   UNL     1      -0.449   1.520  -0.176  0.00  0.00    +0.004 C 
ATOM     28  C   UNL     1      -0.103   0.039  -0.010  0.00  0.00    +0.001 C 
ENDBRANCH  25  28
ENDBRANCH  24  25
ENDBRANCH   1  24
BRANCH   4  29
ATOM     29  C   UNL     1       2.003  -2.407  -5.844  0.00  0.00    +0.028 C 
BRANCH  29  30
ATOM     30  C   UNL     1       3.047  -2.982  -6.767  0.00  0.00    -0.048 A 
ATOM     31  C   UNL     1       4.330  -2.467  -6.765  0.00  0.00    +0.003 A 
ATOM     32  C   UNL     1       5.287  -2.994  -7.612  0.00  0.00    +0.000 A 
ATOM     33  C   UNL     1       4.962  -4.036  -8.459  0.00  0.00    +0.000 A 
ATOM     34  C   UNL     1       3.679  -4.552  -8.460  0.00  0.00    +0.000 A 
ATOM     35  C   UNL     1       2.723  -4.027  -7.611  0.00  0.00    +0.003 A 
ENDBRANCH  29  30
ENDBRANCH   4  29
TORSDOF 7
