REMARK  Name = ZINC32889198
REMARK  6 active torsions:
REMARK  status: ('A' for Active; 'I' for Inactive)
REMARK    1  A    between atoms: C_1  and  C_2
REMARK    2  A    between atoms: C_2  and  C_4
REMARK    3  A    between atoms: C_2  and  N_13
REMARK    4  A    between atoms: C_14  and  C_16
REMARK    5  A    between atoms: C_20  and  C_27
REMARK    6  A    between atoms: C_23  and  C_26
REMARK                            x       y       z     vdW  Elec       q    Type
REMARK                         _______ _______ _______ _____ _____    ______ ____
ROOT
ATOM      1  N   UNL     1       0.711  -0.489   1.189  0.00  0.00    -0.308 N 
ATOM      2  C   UNL     1       2.054  -0.600   1.174  0.00  0.00    +0.220 C 
ATOM      3  O   UNL     1       2.676  -0.297   0.177  0.00  0.00    -0.275 OA
ATOM      4  H   UNL     1       0.213  -0.731   1.986  0.00  0.00    +0.149 HD
ENDROOT
BRANCH   2   5
ATOM      5  C   UNL     1       2.783  -1.099   2.395  0.00  0.00    +0.048 C 
ATOM      6  C   UNL     1       2.300  -2.510   2.736  0.00  0.00    +0.019 C 
ATOM      7  C   UNL     1       3.040  -3.017   3.975  0.00  0.00    -0.009 C 
ATOM      8  C   UNL     1       4.543  -3.046   3.695  0.00  0.00    +0.010 C 
ATOM      9  C   UNL     1       5.026  -1.635   3.354  0.00  0.00    -0.030 C 
ATOM     10  C   UNL     1       4.287  -1.129   2.114  0.00  0.00    +0.023 C 
ATOM     11  C   UNL     1       4.746  -0.702   4.533  0.00  0.00    +0.013 C 
ATOM     12  C   UNL     1       3.242  -0.672   4.813  0.00  0.00    -0.030 C 
ATOM     13  C   UNL     1       2.759  -2.083   5.154  0.00  0.00    +0.010 C 
ATOM     14  C   UNL     1       2.502  -0.165   3.574  0.00  0.00    +0.023 C 
ATOM     15  C   UNL     1       2.961   0.262   5.992  0.00  0.00    +0.011 C 
ATOM     16  C   UNL     1       6.530  -1.665   3.073  0.00  0.00    +0.011 C 
ENDBRANCH   2   5
BRANCH   1  18
ATOM     17  C   UNL     1      -0.019   1.526   0.010  0.00  0.00    +0.033 C 
ATOM     18  C   UNL     1       0.002  -0.004   0.002  0.00  0.00    +0.100 C 
BRANCH  18  19
ATOM     19  C   UNL     1      -1.412  -0.526   0.013  0.00  0.00    -0.024 A 
ATOM     20  C   UNL     1      -2.122  -0.570   1.198  0.00  0.00    +0.009 A 
ATOM     21  C   UNL     1      -3.419  -1.047   1.213  0.00  0.00    +0.050 A 
ATOM     22  C   UNL     1      -4.011  -1.483   0.039  0.00  0.00    +0.166 A 
ATOM     23  C   UNL     1      -3.296  -1.438  -1.156  0.00  0.00    +0.167 A 
ATOM     24  C   UNL     1      -1.998  -0.953  -1.164  0.00  0.00    +0.055 A 
ATOM     25  O   UNL     1      -4.090  -1.917  -2.158  0.00  0.00    -0.453 OA
ATOM     26  C   UNL     1      -5.150  -2.634  -1.499  0.00  0.00    +0.466 C 
ATOM     27  O   UNL     1      -5.253  -1.990  -0.215  0.00  0.00    -0.453 OA
ENDBRANCH  18  19
ENDBRANCH   1  18
TORSDOF 3
