REMARK  Name = ZINC09346572
REMARK  4 active torsions:
REMARK  status: ('A' for Active; 'I' for Inactive)
REMARK    1  A    between atoms: C_3  and  C_29
REMARK    2  A    between atoms: C_6  and  C_7
REMARK    3  A    between atoms: C_9  and  C_26
REMARK    4  A    between atoms: N_13  and  C_18
REMARK                            x       y       z     vdW  Elec       q    Type
REMARK                         _______ _______ _______ _____ _____    ______ ____
ROOT
ATOM      1  C   UNL     1      -0.748   5.605   0.038  0.00  0.00    +0.163 A 
ATOM      2  N   UNL     1       0.574   5.665   0.026  0.00  0.00    -0.220 NA
ATOM      3  C   UNL     1       1.311   4.554   0.014  0.00  0.00    +0.154 A 
ATOM      4  C   UNL     1       0.659   3.321   0.013  0.00  0.00    +0.117 A 
ATOM      5  C   UNL     1      -0.747   3.303   0.026  0.00  0.00    +0.170 A 
ATOM      6  N   UNL     1      -1.404   4.450   0.038  0.00  0.00    -0.208 NA
ATOM      7  N   UNL     1      -1.127   1.972   0.018  0.00  0.00    -0.245 N 
ATOM      8  C   UNL     1      -0.014   1.212   0.009  0.00  0.00    +0.333 A 
ATOM      9  O   UNL     1       0.002  -0.004   0.002  0.00  0.00    -0.246 OA
ATOM     10  N   UNL     1       1.077   2.002   0.003  0.00  0.00    -0.303 N 
ATOM     11  H   UNL     1       1.998   1.698  -0.008  0.00  0.00    +0.171 HD
ENDROOT
BRANCH   7  12
ATOM     12  C   UNL     1      -2.445   1.495   0.021  0.00  0.00    +0.054 A 
ATOM     13  C   UNL     1      -2.690   0.128   0.016  0.00  0.00    +0.028 A 
ATOM     14  C   UNL     1      -3.989  -0.340   0.020  0.00  0.00    +0.023 A 
ATOM     15  C   UNL     1      -5.047   0.552   0.028  0.00  0.00    +0.059 A 
ATOM     16  C   UNL     1      -4.806   1.916   0.034  0.00  0.00    +0.061 A 
ATOM     17  C   UNL     1      -3.507   2.389   0.036  0.00  0.00    +0.047 A 
ATOM     18 CL   UNL     1      -6.136   3.032   0.045  0.00  0.00    -0.082 Cl
ATOM     19 CL   UNL     1      -6.679  -0.039   0.032  0.00  0.00    -0.082 Cl
ENDBRANCH   7  12
BRANCH   1  25
ATOM     20  C   UNL     1      -2.917   6.835   0.059  0.00  0.00    +0.012 A 
ATOM     21  C   UNL     1      -3.633   8.015   0.076  0.00  0.00    +0.013 A 
ATOM     22  C   UNL     1      -2.971   9.229   0.076  0.00  0.00    +0.055 A 
ATOM     23  C   UNL     1      -1.588   9.269   0.064  0.00  0.00    +0.013 A 
ATOM     24  C   UNL     1      -0.862   8.096   0.052  0.00  0.00    +0.012 A 
ATOM     25  C   UNL     1      -1.523   6.869   0.052  0.00  0.00    +0.019 A 
BRANCH  22  26
ATOM     26  C   UNL     1      -3.759  10.514   0.089  0.00  0.00    +0.417 C 
ATOM     27  F   UNL     1      -4.014  10.917  -1.226  0.00  0.00    -0.166 F 
ATOM     28  F   UNL     1      -4.970  10.311   0.759  0.00  0.00    -0.166 F 
ATOM     29  F   UNL     1      -3.023  11.505   0.746  0.00  0.00    -0.166 F 
ENDBRANCH  22  26
ENDBRANCH   1  25
BRANCH   3  30
ATOM     30  C   UNL     1       2.791   4.628   0.001  0.00  0.00    +0.262 C 
ATOM     31  O   UNL     1       3.450   3.608  -0.011  0.00  0.00    -0.269 OA
ATOM     32  N   UNL     1       3.405   5.828   0.002  0.00  0.00    -0.324 N 
ATOM     33  H   UNL     1       2.879   6.643   0.010  0.00  0.00    +0.145 HD
ATOM     34  H   UNL     1       4.374   5.876  -0.007  0.00  0.00    +0.145 HD
ENDBRANCH   3  30
TORSDOF 4
