REMARK  Name = ZINC08811628
REMARK  5 active torsions:
REMARK  status: ('A' for Active; 'I' for Inactive)
REMARK    1  A    between atoms: C_1  and  C_2
REMARK    2  A    between atoms: N_5  and  S_8
REMARK    3  A    between atoms: S_8  and  N_11
REMARK    4  A    between atoms: C_15  and  C_18
REMARK    5  A    between atoms: N_20  and  C_21
REMARK                            x       y       z     vdW  Elec       q    Type
REMARK                         _______ _______ _______ _____ _____    ______ ____
ROOT
ATOM      1  N   UNL     1      -2.750   0.020  -1.954  0.00  0.00    -0.166 NA
ATOM      2  C   UNL     1      -2.947  -1.177  -1.124  0.00  0.00    +0.110 C 
ATOM      3  C   UNL     1      -3.899  -2.130  -1.844  0.00  0.00    +0.018 C 
ATOM      4  C   UNL     1      -5.190  -1.389  -2.197  0.00  0.00    +0.015 C 
ATOM      5  C   UNL     1      -4.871  -0.222  -3.135  0.00  0.00    +0.091 C 
ATOM      6  C   UNL     1      -3.931   0.756  -2.425  0.00  0.00    +0.123 C 
ENDROOT
BRANCH   5   7
ATOM      7  C   UNL     1      -6.147   0.487  -3.508  0.00  0.00    +0.218 C 
ATOM      8  O   UNL     1      -6.291   1.660  -3.233  0.00  0.00    -0.275 OA
ATOM      9  N   UNL     1      -7.128  -0.181  -4.146  0.00  0.00    -0.312 N 
ATOM     10  H   UNL     1      -7.013  -1.118  -4.366  0.00  0.00    +0.149 HD
BRANCH   9  11
ATOM     11  C   UNL     1      -8.369   0.509  -4.509  0.00  0.00    +0.073 C 
ATOM     12  C   UNL     1      -9.330   0.489  -3.319  0.00  0.00    +0.022 C 
ATOM     13  C   UNL     1     -10.435   1.524  -3.538  0.00  0.00    +0.002 C 
ATOM     14  C   UNL     1      -9.821   2.825  -4.058  0.00  0.00    +0.000 C 
ATOM     15  C   UNL     1     -10.278   3.066  -5.498  0.00  0.00    +0.000 C 
ATOM     16  C   UNL     1      -9.508   2.138  -6.439  0.00  0.00    +0.000 C 
ATOM     17  C   UNL     1     -10.068   0.719  -6.328  0.00  0.00    +0.002 C 
ATOM     18  C   UNL     1      -9.017  -0.199  -5.700  0.00  0.00    +0.022 C 
ENDBRANCH   9  11
ENDBRANCH   5   7
BRANCH   1  19
ATOM     19  S   UNL     1      -1.225   0.524  -2.357  0.00  0.00    +0.100 S 
ATOM     20  O   UNL     1      -1.351   1.284  -3.552  0.00  0.00    -0.141 OA
ATOM     21  O   UNL     1      -0.382  -0.616  -2.266  0.00  0.00    -0.141 OA
BRANCH  19  26
ATOM     22  C   UNL     1      -1.573   3.608   2.463  0.00  0.00    +0.007 C 
ATOM     23  C   UNL     1      -0.878   3.105   1.196  0.00  0.00    -0.012 C 
ATOM     24  C   UNL     1      -0.736   1.583   1.264  0.00  0.00    +0.020 C 
ATOM     25  C   UNL     1      -0.013   1.086   0.008  0.00  0.00    +0.111 C 
ATOM     26  N   UNL     1      -0.729   1.575  -1.178  0.00  0.00    -0.166 NA
ATOM     27  C   UNL     1      -0.997   3.015  -1.297  0.00  0.00    +0.111 C 
ATOM     28  C   UNL     1      -1.712   3.490  -0.028  0.00  0.00    +0.020 C 
ENDBRANCH  19  26
ENDBRANCH   1  19
TORSDOF 4
