REMARK  Name = ZINC13255496
REMARK  12 active torsions:
REMARK  status: ('A' for Active; 'I' for Inactive)
REMARK    1  A    between atoms: C_1  and  C_2
REMARK    2  A    between atoms: C_6  and  C_29
REMARK    3  A    between atoms: C_7  and  O_8
REMARK    4  A    between atoms: O_8  and  C_9
REMARK    5  A    between atoms: C_9  and  C_11
REMARK    6  A    between atoms: C_9  and  C_12
REMARK    7  A    between atoms: N_14  and  N_15
REMARK    8  A    between atoms: C_16  and  C_18
REMARK    9  A    between atoms: C_18  and  C_19
REMARK   10  A    between atoms: C_19  and  C_20
REMARK   11  A    between atoms: C_19  and  C_21
REMARK   12  A    between atoms: C_19  and  C_27
REMARK                            x       y       z     vdW  Elec       q    Type
REMARK                         _______ _______ _______ _____ _____    ______ ____
ROOT
ATOM      1  C   UNL     1       5.376   1.584   2.313  0.00  0.00    +0.270 C 
ATOM      2  O   UNL     1       5.848   2.363   1.512  0.00  0.00    -0.270 OA
ATOM      3  N   UNL     1       4.206   0.969   2.045  0.00  0.00    -0.231 N 
ATOM      4  H   UNL     1       3.829   0.345   2.685  0.00  0.00    +0.173 HD
ENDROOT
BRANCH   3   5
ATOM      5  N   UNL     1       3.536   1.230   0.843  0.00  0.00    -0.234 N 
ATOM      6  C   UNL     1       2.367   0.615   0.575  0.00  0.00    +0.230 C 
ATOM      7  O   UNL     1       1.895  -0.165   1.376  0.00  0.00    -0.274 OA
ATOM      8  H   UNL     1       3.914   1.854   0.203  0.00  0.00    +0.173 HD
BRANCH   6   9
ATOM      9  C   UNL     1       1.647   0.896  -0.718  0.00  0.00    +0.120 C 
BRANCH   9  10
ATOM     10  C   UNL     1       0.356   0.076  -0.771  0.00  0.00    +0.102 C 
ATOM     11  C   UNL     1      -0.541   0.460   0.407  0.00  0.00    +0.028 C 
BRANCH  10  12
ATOM     12  C   UNL     1      -0.364   0.357  -2.065  0.00  0.00    -0.030 A 
ATOM     13  C   UNL     1       0.171   1.250  -2.974  0.00  0.00    +0.005 A 
ATOM     14  C   UNL     1      -0.488   1.505  -4.162  0.00  0.00    +0.000 A 
ATOM     15  C   UNL     1      -1.687   0.874  -4.437  0.00  0.00    +0.000 A 
ATOM     16  C   UNL     1      -2.225  -0.015  -3.525  0.00  0.00    +0.000 A 
ATOM     17  C   UNL     1      -1.564  -0.273  -2.339  0.00  0.00    +0.005 A 
ENDBRANCH  10  12
BRANCH  10  18
ATOM     18  C   UNL     1       0.690  -1.391  -0.691  0.00  0.00    +0.366 C 
ATOM     19  O   UNL     1       0.255  -2.061   0.215  0.00  0.00    -0.245 OA
ATOM     20  O   UNL     1       1.471  -1.954  -1.627  0.00  0.00    -0.245 OA
ENDBRANCH  10  18
ENDBRANCH   9  10
ENDBRANCH   6   9
ENDBRANCH   3   5
BRANCH   1  21
ATOM     21  C   UNL     1       6.096   1.302   3.606  0.00  0.00    +0.257 C 
ATOM     22  C   UNL     1       5.199   1.687   4.784  0.00  0.00    +0.062 C 
BRANCH  21  23
ATOM     23  O   UNL     1       7.301   2.068   3.656  0.00  0.00    -0.479 OA
BRANCH  23  30
ATOM     24  C   UNL     1       7.627   2.962   6.316  0.00  0.00    +0.047 C 
ATOM     25  C   UNL     1       8.544   1.949   5.681  0.00  0.00    -0.007 A 
ATOM     26  C   UNL     1       9.592   1.415   6.406  0.00  0.00    +0.027 A 
ATOM     27  C   UNL     1      10.438   0.489   5.822  0.00  0.00    +0.042 A 
ATOM     28  C   UNL     1      10.233   0.091   4.513  0.00  0.00    +0.027 A 
ATOM     29  C   UNL     1       9.184   0.619   3.786  0.00  0.00    -0.007 A 
ATOM     30  C   UNL     1       8.335   1.548   4.370  0.00  0.00    +0.127 A 
ATOM     31  C   UNL     1       8.961   0.186   2.359  0.00  0.00    +0.047 C 
ATOM     32 CL   UNL     1      11.757  -0.176   6.734  0.00  0.00    -0.084 Cl
ENDBRANCH  23  30
ENDBRANCH  21  23
ENDBRANCH   1  21
TORSDOF 8
