REMARK  Name = ZINC55188952
REMARK  5 active torsions:
REMARK  status: ('A' for Active; 'I' for Inactive)
REMARK    1  A    between atoms: C_1  and  C_2
REMARK    2  A    between atoms: C_2  and  C_3
REMARK    3  A    between atoms: C_2  and  C_4
REMARK    4  A    between atoms: C_2  and  C_5
REMARK    5  A    between atoms: C_11  and  C_13
REMARK                            x       y       z     vdW  Elec       q    Type
REMARK                         _______ _______ _______ _____ _____    ______ ____
ROOT
ATOM      1  C   UNL     1       0.707  -0.490  -1.238  0.00  0.00    +0.056 A 
ATOM      2  C   UNL     1       2.057  -0.430  -1.354  0.00  0.00    +0.072 A 
ATOM      3  S   UNL     1       2.282  -1.126  -2.983  0.00  0.00    -0.060 S 
ATOM      4  C   UNL     1       0.662  -1.416  -3.338  0.00  0.00    +0.165 A 
ATOM      5  N   UNL     1       0.039  -0.999  -2.257  0.00  0.00    -0.229 NA
ATOM      6  N   UNL     1       0.116  -1.966  -4.490  0.00  0.00    -0.259 N 
ATOM      7  C   UNL     1       0.921  -2.344  -5.503  0.00  0.00    +0.269 C 
ATOM      8  O   UNL     1       2.126  -2.203  -5.408  0.00  0.00    -0.268 OA
ATOM      9  H   UNL     1      -0.844  -2.079  -4.566  0.00  0.00    +0.157 HD
ENDROOT
BRANCH   7  10
ATOM     10  C   UNL     1       0.343  -2.928  -6.724  0.00  0.00    +0.135 A 
ATOM     11  C   UNL     1       1.153  -3.321  -7.759  0.00  0.00    +0.081 A 
ATOM     12  S   UNL     1      -0.062  -3.929  -8.922  0.00  0.00    -0.060 S 
ATOM     13  C   UNL     1      -1.511  -3.603  -7.928  0.00  0.00    +0.156 A 
ATOM     14  N   UNL     1      -0.978  -3.087  -6.839  0.00  0.00    -0.221 NA
ATOM     15  N   UNL     1      -2.843  -3.837  -8.222  0.00  0.00    -0.338 N 
ATOM     16  H   UNL     1      -3.090  -4.232  -9.073  0.00  0.00    +0.144 HD
ATOM     17  H   UNL     1      -3.530  -3.606  -7.578  0.00  0.00    +0.144 HD
ENDBRANCH   7  10
BRANCH   1  19
ATOM     18  C   UNL     1      -0.019   1.526   0.010  0.00  0.00    +0.017 C 
ATOM     19  C   UNL     1       0.002  -0.004   0.002  0.00  0.00    +0.005 C 
ATOM     20  C   UNL     1       0.742  -0.511   1.242  0.00  0.00    +0.017 C 
ATOM     21  C   UNL     1      -1.433  -0.534   0.013  0.00  0.00    +0.017 C 
ENDBRANCH   1  19
TORSDOF 2
