REMARK  Name = ZINC12161651
REMARK  12 active torsions:
REMARK  status: ('A' for Active; 'I' for Inactive)
REMARK    1  A    between atoms: C_1  and  C_2
REMARK    2  A    between atoms: C_2  and  C_3
REMARK    3  A    between atoms: C_2  and  C_4
REMARK    4  A    between atoms: C_4  and  C_5
REMARK    5  A    between atoms: C_5  and  C_7
REMARK    6  A    between atoms: C_5  and  O_29
REMARK    7  A    between atoms: C_17  and  C_18
REMARK    8  A    between atoms: C_17  and  N_59
REMARK    9  A    between atoms: C_21  and  O_27
REMARK   10  A    between atoms: C_22  and  O_25
REMARK   11  A    between atoms: O_25  and  C_26
REMARK   12  A    between atoms: O_27  and  C_28
REMARK                            x       y       z     vdW  Elec       q    Type
REMARK                         _______ _______ _______ _____ _____    ______ ____
ROOT
ATOM      1  C   UNL     1       1.192   1.777  -0.032  0.00  0.00    -0.019 A 
ATOM      2  C   UNL     1       0.000   1.081  -0.115  0.00  0.00    +0.010 A 
ATOM      3  C   UNL     1      -1.203   1.759  -0.115  0.00  0.00    +0.046 A 
ATOM      4  C   UNL     1      -1.212   3.144  -0.018  0.00  0.00    +0.122 A 
ATOM      5  C   UNL     1      -0.017   3.836   0.049  0.00  0.00    -0.022 A 
ATOM      6  C   UNL     1       1.185   3.158   0.046  0.00  0.00    +0.011 A 
ATOM      7  C   UNL     1      -0.039   5.351   0.106  0.00  0.00    -0.039 C 
ATOM      8  C   UNL     1      -2.064   5.802   1.382  0.00  0.00    -0.036 C 
ATOM      9  C   UNL     1      -2.702   4.433   1.282  0.00  0.00    +0.210 C 
ATOM     10  O   UNL     1      -2.392   3.819   0.025  0.00  0.00    -0.494 OA
ATOM     11  N   UNL     1      -0.587   5.747   1.426  0.00  0.00    +0.387 N 
ATOM     12  H   UNL     1      -0.304   5.050   2.123  0.00  0.00    -0.081 HD
ENDROOT
BRANCH   1  13
ATOM     13  C   UNL     1       2.501   1.030  -0.028  0.00  0.00    +0.145 C 
BRANCH  13  14
ATOM     14  O   UNL     1       2.436  -0.052  -0.960  0.00  0.00    -0.387 OA
ATOM     15  H   UNL     1       1.739  -0.695  -0.767  0.00  0.00    +0.210 HD
ENDBRANCH  13  14
BRANCH  13  16
ATOM     16  C   UNL     1       2.769   0.479   1.374  0.00  0.00    +0.039 C 
BRANCH  16  18
ATOM     17  C   UNL     1       5.227   0.894   1.202  0.00  0.00    +0.007 C 
ATOM     18  C   UNL     1       4.152  -0.175   1.410  0.00  0.00    -0.014 C 
ATOM     19  C   UNL     1       4.361  -0.852   2.765  0.00  0.00    +0.007 C 
ENDBRANCH  16  18
ENDBRANCH  13  16
ENDBRANCH   1  13
BRANCH  11  20
ATOM     20  C   UNL     1      -0.050   7.060   1.819  0.00  0.00    -0.041 C 
BRANCH  20  21
ATOM     21  C   UNL     1      -0.823   7.572   3.007  0.00  0.00    -0.042 A 
ATOM     22  C   UNL     1      -1.802   8.533   2.832  0.00  0.00    +0.007 A 
ATOM     23  C   UNL     1      -2.514   9.004   3.919  0.00  0.00    +0.050 A 
ATOM     24  C   UNL     1      -2.248   8.515   5.188  0.00  0.00    +0.163 A 
ATOM     25  C   UNL     1      -1.264   7.548   5.365  0.00  0.00    +0.180 A 
ATOM     26  C   UNL     1      -0.556   7.075   4.271  0.00  0.00    +0.088 A 
ATOM     27 CL   UNL     1       0.668   5.864   4.486  0.00  0.00    -0.079 Cl
BRANCH  25  28
ATOM     28  O   UNL     1      -0.999   7.065   6.609  0.00  0.00    -0.490 OA
ATOM     29  C   UNL     1      -1.741   5.919   7.030  0.00  0.00    +0.277 C 
ENDBRANCH  25  28
BRANCH  24  30
ATOM     30  O   UNL     1      -2.948   8.979   6.257  0.00  0.00    -0.491 OA
ATOM     31  C   UNL     1      -3.944   9.971   6.000  0.00  0.00    +0.277 C 
ENDBRANCH  24  30
ENDBRANCH  20  21
ENDBRANCH  11  20
TORSDOF 8
