REMARK  Name = ZINC01642448
REMARK  4 active torsions:
REMARK  status: ('A' for Active; 'I' for Inactive)
REMARK    1  A    between atoms: C_1  and  C_2
REMARK    2  A    between atoms: C_2  and  S_3
REMARK    3  A    between atoms: S_3  and  C_4
REMARK    4  A    between atoms: C_8  and  C_17
REMARK                            x       y       z     vdW  Elec       q    Type
REMARK                         _______ _______ _______ _____ _____    ______ ____
ROOT
ATOM      1  C   UNL     1       0.985   3.401   0.797  0.00  0.00    +0.192 A 
ATOM      2  N   UNL     1       0.992   2.071   0.809  0.00  0.00    -0.207 NA
ATOM      3  C   UNL     1      -0.106   1.375   0.545  0.00  0.00    +0.130 A 
ATOM      4  C   UNL     1      -1.291   2.084   0.244  0.00  0.00    +0.067 A 
ATOM      5  C   UNL     1      -2.506   1.429  -0.041  0.00  0.00    +0.001 A 
ATOM      6  C   UNL     1      -3.621   2.217  -0.321  0.00  0.00    -0.018 A 
ATOM      7  C   UNL     1      -3.510   3.600  -0.306  0.00  0.00    +0.047 A 
ATOM      8  N   UNL     1      -2.361   4.190  -0.030  0.00  0.00    -0.232 NA
ATOM      9  C   UNL     1      -1.258   3.499   0.247  0.00  0.00    +0.167 A 
ATOM     10  N   UNL     1      -0.096   4.109   0.527  0.00  0.00    -0.202 NA
ATOM     11  C   UNL     1      -4.854   4.217  -0.642  0.00  0.00    +0.056 C 
ATOM     12  C   UNL     1      -5.673   3.080  -1.288  0.00  0.00    +0.011 C 
ATOM     13  C   UNL     1      -5.039   1.818  -0.666  0.00  0.00    +0.038 C 
ATOM     14  N   UNL     1      -0.090  -0.003   0.560  0.00  0.00    -0.342 N 
ATOM     15  H   UNL     1      -0.859  -0.493   0.891  0.00  0.00    +0.144 HD
ATOM     16  H   UNL     1       0.690  -0.482   0.238  0.00  0.00    +0.144 HD
ENDROOT
BRANCH   5  17
ATOM     17  C   UNL     1      -2.594  -0.049  -0.049  0.00  0.00    -0.017 A 
ATOM     18  C   UNL     1      -3.252  -0.717   0.984  0.00  0.00    +0.008 A 
ATOM     19  C   UNL     1      -3.336  -2.094   0.968  0.00  0.00    +0.001 A 
ATOM     20  C   UNL     1      -2.759  -2.813  -0.064  0.00  0.00    +0.000 A 
ATOM     21  C   UNL     1      -2.100  -2.157  -1.087  0.00  0.00    +0.001 A 
ATOM     22  C   UNL     1      -2.014  -0.780  -1.086  0.00  0.00    +0.008 A 
ENDBRANCH   5  17
BRANCH   1  23
ATOM     23  S   UNL     1       2.483   4.255   1.159  0.00  0.00    -0.086 S 
BRANCH  23  25
ATOM     24  C   UNL     1       4.989   3.360   1.780  0.00  0.00    +0.016 C 
ATOM     25  C   UNL     1       3.587   2.848   1.440  0.00  0.00    +0.074 C 
ENDBRANCH  23  25
ENDBRANCH   1  23
TORSDOF 3
