REMARK  Name = ZINC67329107
REMARK  7 active torsions:
REMARK  status: ('A' for Active; 'I' for Inactive)
REMARK    1  A    between atoms: C_1  and  C_2
REMARK    2  A    between atoms: C_2  and  C_3
REMARK    3  A    between atoms: C_6  and  N_13
REMARK    4  A    between atoms: C_8  and  S_9
REMARK    5  A    between atoms: S_9  and  N_12
REMARK    6  A    between atoms: C_14  and  C_16
REMARK    7  A    between atoms: C_17  and  C_26
REMARK                            x       y       z     vdW  Elec       q    Type
REMARK                         _______ _______ _______ _____ _____    ______ ____
ROOT
ATOM      1  N   UNL     1       2.510  -2.368  -4.240  0.00  0.00    -0.279 N 
ATOM      2  C   UNL     1       3.503  -3.225  -3.930  0.00  0.00    +0.284 C 
ATOM      3  O   UNL     1       3.756  -3.467  -2.765  0.00  0.00    -0.266 OA
ATOM      4  H   UNL     1       2.257  -2.232  -5.167  0.00  0.00    +0.155 HD
ENDROOT
BRANCH   2   5
ATOM      5  C   UNL     1       4.280  -3.865  -5.000  0.00  0.00    +0.194 A 
ATOM      6  C   UNL     1       5.297  -4.746  -4.808  0.00  0.00    +0.008 A 
ATOM      7  C   UNL     1       5.769  -5.117  -6.142  0.00  0.00    +0.027 A 
ATOM      8  C   UNL     1       6.771  -5.966  -6.618  0.00  0.00    +0.050 A 
ATOM      9  C   UNL     1       6.964  -6.096  -7.976  0.00  0.00    +0.124 A 
ATOM     10  C   UNL     1       6.168  -5.386  -8.868  0.00  0.00    +0.042 A 
ATOM     11  C   UNL     1       5.178  -4.545  -8.411  0.00  0.00    +0.050 A 
ATOM     12  C   UNL     1       4.964  -4.399  -7.045  0.00  0.00    +0.136 A 
ATOM     13  O   UNL     1       4.089  -3.672  -6.322  0.00  0.00    -0.450 OA
ATOM     14  F   UNL     1       7.932  -6.915  -8.443  0.00  0.00    -0.205 F 
ATOM     15  C   UNL     1       5.830  -5.240  -3.488  0.00  0.00    +0.048 C 
ENDBRANCH   2   5
BRANCH   1  19
ATOM     16  C   UNL     1       0.522  -0.305  -1.216  0.00  0.00    -0.021 A 
ATOM     17  C   UNL     1      -0.167  -0.707  -2.345  0.00  0.00    +0.007 A 
ATOM     18  C   UNL     1       0.488  -1.391  -3.350  0.00  0.00    +0.024 A 
ATOM     19  C   UNL     1       1.843  -1.675  -3.225  0.00  0.00    +0.036 A 
ATOM     20  C   UNL     1       2.532  -1.270  -2.089  0.00  0.00    +0.052 A 
ATOM     21  C   UNL     1       1.871  -0.582  -1.091  0.00  0.00    +0.110 A 
BRANCH  21  22
ATOM     22  S   UNL     1       2.747  -0.061   0.347  0.00  0.00    +0.056 S 
ATOM     23  O   UNL     1       1.978  -0.483   1.465  0.00  0.00    -0.153 OA
ATOM     24  O   UNL     1       4.100  -0.453   0.162  0.00  0.00    -0.153 OA
BRANCH  22  25
ATOM     25  N   UNL     1       2.730   1.594   0.358  0.00  0.00    -0.204 NA
ATOM     26  H   UNL     1       2.225   2.079  -0.314  0.00  0.00    +0.144 HD
ATOM     27  H   UNL     1       3.225   2.080   1.037  0.00  0.00    +0.144 HD
ENDBRANCH  22  25
ENDBRANCH  21  22
BRANCH  16  29
ATOM     28  C   UNL     1      -1.688   0.522  -0.455  0.00  0.00    +0.009 C 
ATOM     29  C   UNL     1      -0.197   0.442  -0.122  0.00  0.00    +0.034 C 
ENDBRANCH  16  29
ENDBRANCH   1  19
TORSDOF 5
