REMARK  Name = ZINC39630698
REMARK  11 active torsions:
REMARK  status: ('A' for Active; 'I' for Inactive)
REMARK    1  A    between atoms: C_1  and  C_2
REMARK    2  A    between atoms: C_2  and  C_3
REMARK    3  A    between atoms: C_2  and  C_4
REMARK    4  A    between atoms: C_2  and  C_32
REMARK    5  A    between atoms: C_4  and  N_5
REMARK    6  A    between atoms: C_6  and  C_8
REMARK    7  A    between atoms: C_19  and  C_21
REMARK    8  A    between atoms: C_23  and  C_28
REMARK    9  A    between atoms: C_32  and  N_33
REMARK   10  A    between atoms: N_33  and  C_34
REMARK   11  A    between atoms: N_33  and  C_35
REMARK                            x       y       z     vdW  Elec       q    Type
REMARK                         _______ _______ _______ _____ _____    ______ ____
ROOT
ATOM      1  C   UNL     1      -6.015   0.088   2.375  0.00  0.00    +0.100 C 
ATOM      2  C   UNL     1      -5.775  -0.109   3.888  0.00  0.00    +0.121 C 
ATOM      3  N   UNL     1      -7.127  -0.322   4.457  0.00  0.00    -0.296 N 
ATOM      4  C   UNL     1      -7.820  -1.166   3.454  0.00  0.00    +0.115 C 
ATOM      5  C   UNL     1      -7.358  -0.607   2.094  0.00  0.00    -0.004 C 
ATOM      6  C   UNL     1      -7.165  -1.745   1.095  0.00  0.00    -0.010 C 
ATOM      7  C   UNL     1      -8.522  -2.383   0.787  0.00  0.00    -0.082 C 
ATOM      8  N   UNL     1      -9.428  -1.369   0.235  0.00  0.00    +0.379 N 
ATOM      9  C   UNL     1      -9.682  -0.326   1.236  0.00  0.00    -0.082 C 
ATOM     10  C   UNL     1      -8.374   0.400   1.563  0.00  0.00    -0.010 C 
ATOM     11  C   UNL     1      -7.615   0.146   5.622  0.00  0.00    +0.247 C 
ATOM     12  O   UNL     1      -6.903   0.794   6.364  0.00  0.00    -0.270 OA
ATOM     13  H   UNL     1      -9.007  -0.953  -0.583  0.00  0.00    -0.086 HD
ATOM     14  H   UNL     1     -10.301  -1.804  -0.024  0.00  0.00    -0.086 HD
ENDROOT
BRANCH  11  15
ATOM     15  C   UNL     1      -9.019  -0.129   5.999  0.00  0.00    +0.040 A 
ATOM     16  C   UNL     1      -9.725   0.784   6.785  0.00  0.00    +0.025 A 
ATOM     17  C   UNL     1     -11.034   0.523   7.133  0.00  0.00    +0.058 A 
ATOM     18  C   UNL     1     -11.648  -0.640   6.706  0.00  0.00    +0.050 A 
ATOM     19  C   UNL     1     -10.954  -1.551   5.926  0.00  0.00    +0.125 A 
ATOM     20  C   UNL     1      -9.644  -1.298   5.566  0.00  0.00    +0.051 A 
ATOM     21  F   UNL     1     -11.560  -2.686   5.513  0.00  0.00    -0.205 F 
BRANCH  17  22
ATOM     22  C   UNL     1     -11.796   1.508   7.981  0.00  0.00    +0.418 C 
ATOM     23  F   UNL     1     -12.445   2.431   7.154  0.00  0.00    -0.166 F 
ATOM     24  F   UNL     1     -12.744   0.825   8.751  0.00  0.00    -0.166 F 
ATOM     25  F   UNL     1     -10.908   2.182   8.826  0.00  0.00    -0.166 F 
ENDBRANCH  17  22
ENDBRANCH  11  15
BRANCH   1  27
ATOM     26  N   UNL     1      -4.558  -0.055   0.381  0.00  0.00    -0.315 N 
ATOM     27  C   UNL     1      -4.912  -0.560   1.579  0.00  0.00    +0.218 C 
ATOM     28  O   UNL     1      -4.341  -1.537   2.018  0.00  0.00    -0.275 OA
ATOM     29  H   UNL     1      -5.014   0.726   0.030  0.00  0.00    +0.149 HD
BRANCH  26  30
ATOM     30  C   UNL     1      -3.485  -0.685  -0.392  0.00  0.00    +0.108 C 
BRANCH  30  32
ATOM     31  C   UNL     1      -4.582   0.049  -2.514  0.00  0.00    +0.010 C 
ATOM     32  C   UNL     1      -3.285   0.078  -1.703  0.00  0.00    -0.034 C 
ATOM     33  C   UNL     1      -2.907   1.528  -1.396  0.00  0.00    +0.010 C 
BRANCH  32  34
ATOM     34  C   UNL     1      -2.164  -0.581  -2.510  0.00  0.00    -0.072 C 
BRANCH  34  35
ATOM     35  N   UNL     1      -1.889   0.221  -3.711  0.00  0.00    +0.376 N 
ATOM     36  C   UNL     1      -0.941   1.292  -3.378  0.00  0.00    -0.097 C 
ATOM     37  C   UNL     1      -1.311  -0.639  -4.752  0.00  0.00    -0.097 C 
ATOM     38  H   UNL     1      -2.749   0.626  -4.048  0.00  0.00    -0.083 HD
ENDBRANCH  34  35
ENDBRANCH  32  34
ENDBRANCH  30  32
ENDBRANCH  26  30
ENDBRANCH   1  27
TORSDOF 7
