REMARK  Name = ZINC33106804
REMARK  8 active torsions:
REMARK  status: ('A' for Active; 'I' for Inactive)
REMARK    1  A    between atoms: C_1  and  C_2
REMARK    2  A    between atoms: C_5  and  C_7
REMARK    3  A    between atoms: C_7  and  N_8
REMARK    4  A    between atoms: C_9  and  C_11
REMARK    5  A    between atoms: C_14  and  C_17
REMARK    6  A    between atoms: C_17  and  N_18
REMARK    7  A    between atoms: N_25  and  C_30
REMARK    8  A    between atoms: C_30  and  C_31
REMARK                            x       y       z     vdW  Elec       q    Type
REMARK                         _______ _______ _______ _____ _____    ______ ____
ROOT
ATOM      1  C   UNL     1      -8.305   2.083  -4.325  0.00  0.00    +0.037 A 
ATOM      2  C   UNL     1      -7.227   2.602  -5.043  0.00  0.00    +0.013 A 
ATOM      3  C   UNL     1      -6.022   1.930  -5.055  0.00  0.00    +0.006 A 
ATOM      4  C   UNL     1      -5.881   0.744  -4.357  0.00  0.00    -0.028 A 
ATOM      5  C   UNL     1      -6.947   0.221  -3.647  0.00  0.00    +0.006 A 
ATOM      6  C   UNL     1      -8.156   0.885  -3.623  0.00  0.00    +0.013 A 
ENDROOT
BRANCH   1   8
ATOM      7  N   UNL     1     -10.638   2.292  -3.613  0.00  0.00    -0.304 N 
ATOM      8  C   UNL     1      -9.599   2.797  -4.308  0.00  0.00    +0.244 C 
ATOM      9  O   UNL     1      -9.726   3.839  -4.920  0.00  0.00    -0.270 OA
ATOM     10  H   UNL     1     -10.523   1.349  -3.059  0.00  0.00    +0.149 HD
BRANCH   7  11
ATOM     11  C   UNL     1     -11.921   3.000  -3.597  0.00  0.00    +0.179 C 
BRANCH  11  16
ATOM     12  C   UNL     1     -15.522  -0.267  -2.256  0.00  0.00    +0.086 C 
ATOM     13  C   UNL     1     -14.473   0.812  -2.172  0.00  0.00    +0.102 A 
ATOM     14  C   UNL     1     -14.113   1.474  -1.057  0.00  0.00    +0.045 A 
ATOM     15  C   UNL     1     -13.103   2.389  -1.433  0.00  0.00    +0.046 A 
ATOM     16  C   UNL     1     -12.907   2.232  -2.755  0.00  0.00    +0.122 A 
ATOM     17  O   UNL     1     -13.744   1.280  -3.198  0.00  0.00    -0.463 OA
ENDBRANCH  11  16
ENDBRANCH   7  11
ENDBRANCH   1   8
BRANCH   4  18
ATOM     18  C   UNL     1      -4.561   0.016  -4.374  0.00  0.00    +0.160 C 
BRANCH  18  19
ATOM     19  N   UNL     1      -3.730   0.485  -3.263  0.00  0.00    -0.298 N 
ATOM     20  C   UNL     1      -3.799  -0.150  -2.026  0.00  0.00    +0.069 A 
ATOM     21  C   UNL     1      -4.660  -1.228  -1.853  0.00  0.00    +0.028 A 
ATOM     22  C   UNL     1      -4.734  -1.863  -0.630  0.00  0.00    +0.002 A 
ATOM     23  C   UNL     1      -3.954  -1.430   0.429  0.00  0.00    +0.002 A 
ATOM     24  C   UNL     1      -3.098  -0.361   0.269  0.00  0.00    +0.028 A 
ATOM     25  C   UNL     1      -3.013   0.287  -0.959  0.00  0.00    +0.069 A 
ATOM     26  N   UNL     1      -2.146   1.365  -1.112  0.00  0.00    -0.299 N 
ATOM     27  C   UNL     1      -2.062   2.002  -2.297  0.00  0.00    +0.317 A 
ATOM     28  O   UNL     1      -1.311   2.946  -2.435  0.00  0.00    -0.262 OA
ATOM     29  C   UNL     1      -2.898   1.532  -3.440  0.00  0.00    +0.317 A 
ATOM     30  O   UNL     1      -2.834   2.090  -4.517  0.00  0.00    -0.262 OA
BRANCH  26  31
ATOM     31  C   UNL     1      -1.328   1.812   0.018  0.00  0.00    +0.152 C 
BRANCH  31  32
ATOM     32  C   UNL     1      -0.013   1.076   0.008  0.00  0.00    -0.013 C 
ATOM     33  C   UNL     1       1.113   1.746   0.001  0.00  0.00    +0.005 C 
ENDBRANCH  31  32
ENDBRANCH  26  31
ENDBRANCH  18  19
ENDBRANCH   4  18
TORSDOF 7
