REMARK  Name = ZINC58577366
REMARK  6 active torsions:
REMARK  status: ('A' for Active; 'I' for Inactive)
REMARK    1  A    between atoms: C_1  and  C_2
REMARK    2  A    between atoms: C_7  and  N_8
REMARK    3  A    between atoms: C_12  and  C_14
REMARK    4  A    between atoms: C_14  and  N_15
REMARK    5  A    between atoms: N_19  and  C_22
REMARK    6  A    between atoms: C_22  and  C_23
REMARK                            x       y       z     vdW  Elec       q    Type
REMARK                         _______ _______ _______ _____ _____    ______ ____
ROOT
ATOM      1  N   UNL     1       2.083   0.102   1.228  0.00  0.00    -0.296 N 
ATOM      2  C   UNL     1       2.772   0.210   2.382  0.00  0.00    +0.306 C 
ATOM      3  O   UNL     1       2.260  -0.134   3.429  0.00  0.00    -0.252 OA
ATOM      4  N   UNL     1       4.027   0.699   2.374  0.00  0.00    -0.242 N 
ATOM      5  C   UNL     1       4.716   0.807   3.528  0.00  0.00    +0.204 C 
ATOM      6  O   UNL     1       4.205   0.464   4.573  0.00  0.00    -0.277 OA
ATOM      7  H   UNL     1       2.492   0.377   0.392  0.00  0.00    +0.151 HD
ATOM      8  H   UNL     1       4.436   0.974   1.538  0.00  0.00    +0.159 HD
ENDROOT
BRANCH   1  15
ATOM      9  C   UNL     1      -0.091   1.631   0.077  0.00  0.00    +0.009 C 
ATOM     10  C   UNL     1      -0.043   0.102   0.021  0.00  0.00    +0.006 C 
ATOM     11  C   UNL     1      -1.469  -0.453   0.029  0.00  0.00    +0.005 C 
ATOM     12  C   UNL     1      -1.422  -1.981  -0.027  0.00  0.00    +0.000 C 
ATOM     13  C   UNL     1      -0.660  -2.513   1.189  0.00  0.00    +0.002 C 
ATOM     14  C   UNL     1       0.766  -1.958   1.180  0.00  0.00    +0.022 C 
ATOM     15  C   UNL     1       0.718  -0.429   1.236  0.00  0.00    +0.077 C 
ENDBRANCH   1  15
BRANCH   5  16
ATOM     16  C   UNL     1       6.120   1.354   3.520  0.00  0.00    +0.019 C 
BRANCH  16  17
ATOM     17  N   UNL     1       6.648   1.369   4.891  0.00  0.00    +0.386 N 
ATOM     18  C   UNL     1       6.694   0.017   5.387  0.00  0.00    -0.077 C 
ATOM     19  C   UNL     1       6.369   0.043   6.892  0.00  0.00    -0.003 C 
ATOM     20  C   UNL     1       7.524   0.415   7.704  0.00  0.00    +0.083 C 
ATOM     21  N   UNL     1       8.019   1.772   7.361  0.00  0.00    -0.296 NA
ATOM     22  C   UNL     1       8.801   1.719   6.150  0.00  0.00    +0.066 C 
ATOM     23  C   UNL     1       7.979   2.020   4.884  0.00  0.00    -0.063 C 
ATOM     24  H   UNL     1       6.024   1.908   5.473  0.00  0.00    -0.081 HD
BRANCH  21  25
ATOM     25  C   UNL     1       8.799   2.343   8.467  0.00  0.00    +0.198 C 
BRANCH  25  26
ATOM     26  C   UNL     1       7.849   2.841   9.557  0.00  0.00    +0.402 C 
ATOM     27  F   UNL     1       7.179   1.752  10.125  0.00  0.00    -0.169 F 
ATOM     28  F   UNL     1       8.582   3.506  10.547  0.00  0.00    -0.169 F 
ATOM     29  F   UNL     1       6.917   3.721   8.997  0.00  0.00    -0.169 F 
ENDBRANCH  25  26
ENDBRANCH  21  25
ENDBRANCH  16  17
ENDBRANCH   5  16
TORSDOF 5
