REMARK  Name = ZINC34851558
REMARK  14 active torsions:
REMARK  status: ('A' for Active; 'I' for Inactive)
REMARK    1  A    between atoms: C_1  and  C_2
REMARK    2  A    between atoms: C_2  and  C_3
REMARK    3  A    between atoms: C_3  and  C_4
REMARK    4  A    between atoms: C_4  and  N_5
REMARK    5  A    between atoms: C_6  and  C_8
REMARK    6  A    between atoms: C_12  and  C_29
REMARK    7  A    between atoms: C_15  and  C_17
REMARK    8  A    between atoms: C_19  and  O_27
REMARK    9  A    between atoms: C_20  and  O_25
REMARK   10  A    between atoms: C_21  and  O_23
REMARK   11  A    between atoms: O_23  and  C_24
REMARK   12  A    between atoms: O_25  and  C_26
REMARK   13  A    between atoms: O_27  and  C_28
REMARK   14  A    between atoms: C_32  and  C_35
REMARK                            x       y       z     vdW  Elec       q    Type
REMARK                         _______ _______ _______ _____ _____    ______ ____
ROOT
ATOM      1  C   UNL     1      -4.548  -4.413  -0.294  0.00  0.00    +0.173 C 
ATOM      2  C   UNL     1      -4.737  -4.008   1.198  0.00  0.00    +0.103 C 
ATOM      3  S   UNL     1      -3.600  -5.251   1.961  0.00  0.00    -0.131 S 
ATOM      4  C   UNL     1      -3.834  -6.579   0.705  0.00  0.00    +0.166 C 
ATOM      5  N   UNL     1      -4.448  -5.864  -0.427  0.00  0.00    -0.269 N 
ATOM      6  C   UNL     1      -4.891  -6.512  -1.523  0.00  0.00    +0.249 C 
ATOM      7  O   UNL     1      -5.293  -5.881  -2.481  0.00  0.00    -0.270 OA
ENDROOT
BRANCH   6   8
ATOM      8  C   UNL     1      -4.886  -7.987  -1.559  0.00  0.00    +0.044 A 
ATOM      9  C   UNL     1      -5.302  -8.716  -0.442  0.00  0.00    +0.062 A 
ATOM     10  C   UNL     1      -5.298 -10.098  -0.479  0.00  0.00    +0.166 A 
ATOM     11  C   UNL     1      -4.879 -10.764  -1.628  0.00  0.00    +0.204 A 
ATOM     12  C   UNL     1      -4.464 -10.040  -2.742  0.00  0.00    +0.166 A 
ATOM     13  C   UNL     1      -4.473  -8.658  -2.713  0.00  0.00    +0.062 A 
BRANCH  12  14
ATOM     14  O   UNL     1      -4.056 -10.693  -3.863  0.00  0.00    -0.491 OA
ATOM     15  C   UNL     1      -3.644  -9.888  -4.970  0.00  0.00    +0.277 C 
ENDBRANCH  12  14
BRANCH  11  16
ATOM     16  O   UNL     1      -4.875 -12.122  -1.661  0.00  0.00    -0.488 OA
ATOM     17  C   UNL     1      -6.069 -12.763  -2.117  0.00  0.00    +0.277 C 
ENDBRANCH  11  16
BRANCH  10  18
ATOM     18  O   UNL     1      -5.702 -10.808   0.609  0.00  0.00    -0.491 OA
ATOM     19  C   UNL     1      -6.227 -10.064   1.710  0.00  0.00    +0.277 C 
ENDBRANCH  10  18
ENDBRANCH   6   8
BRANCH   4  20
ATOM     20  C   UNL     1      -2.508  -7.175   0.307  0.00  0.00    -0.017 A 
ATOM     21  C   UNL     1      -2.033  -7.006  -0.980  0.00  0.00    +0.007 A 
ATOM     22  C   UNL     1      -0.816  -7.553  -1.345  0.00  0.00    +0.013 A 
ATOM     23  C   UNL     1      -0.075  -8.268  -0.422  0.00  0.00    +0.055 A 
ATOM     24  C   UNL     1      -0.550  -8.436   0.865  0.00  0.00    +0.013 A 
ATOM     25  C   UNL     1      -1.765  -7.886   1.231  0.00  0.00    +0.007 A 
BRANCH  23  26
ATOM     26  C   UNL     1       1.250  -8.864  -0.820  0.00  0.00    +0.417 C 
ATOM     27  F   UNL     1       2.271  -7.940  -0.574  0.00  0.00    -0.166 F 
ATOM     28  F   UNL     1       1.482 -10.025  -0.074  0.00  0.00    -0.166 F 
ATOM     29  F   UNL     1       1.228  -9.183  -2.182  0.00  0.00    -0.166 F 
ENDBRANCH  23  26
ENDBRANCH   4  20
BRANCH   1  31
ATOM     30  N   UNL     1      -3.348  -2.581  -1.444  0.00  0.00    -0.314 N 
ATOM     31  C   UNL     1      -3.289  -3.778  -0.825  0.00  0.00    +0.234 C 
ATOM     32  O   UNL     1      -2.224  -4.343  -0.697  0.00  0.00    -0.274 OA
ATOM     33  H   UNL     1      -4.200  -2.129  -1.546  0.00  0.00    +0.149 HD
BRANCH  30  34
ATOM     34  C   UNL     1      -2.124  -1.964  -1.960  0.00  0.00    +0.104 C 
BRANCH  34  35
ATOM     35  C   UNL     1      -2.465  -0.622  -2.611  0.00  0.00    +0.018 C 
BRANCH  35  37
ATOM     36  C   UNL     1      -1.528   1.366  -3.800  0.00  0.00    +0.004 C 
ATOM     37  C   UNL     1      -1.187   0.024  -3.150  0.00  0.00    -0.002 C 
ENDBRANCH  35  37
ENDBRANCH  34  35
ENDBRANCH  30  34
ENDBRANCH   1  31
TORSDOF 10
