REMARK  Name = ZINC28678045
REMARK  12 active torsions:
REMARK  status: ('A' for Active; 'I' for Inactive)
REMARK    1  A    between atoms: C_1  and  C_2
REMARK    2  A    between atoms: C_2  and  C_4
REMARK    3  A    between atoms: C_2  and  S_15
REMARK    4  A    between atoms: N_6  and  C_7
REMARK    5  A    between atoms: C_12  and  O_13
REMARK    6  A    between atoms: O_13  and  C_14
REMARK    7  A    between atoms: S_15  and  C_16
REMARK    8  A    between atoms: C_19  and  C_28
REMARK    9  A    between atoms: N_20  and  C_21
REMARK   10  A    between atoms: C_21  and  C_22
REMARK   11  A    between atoms: C_31  and  O_34
REMARK   12  A    between atoms: O_34  and  C_35
REMARK                            x       y       z     vdW  Elec       q    Type
REMARK                         _______ _______ _______ _____ _____    ______ ____
ROOT
ATOM      1  C   UNL     1       4.991  -1.051  -0.356  0.00  0.00    +0.193 A 
ATOM      2  N   UNL     1       4.349  -2.067   0.174  0.00  0.00    -0.122 NA
ATOM      3  N   UNL     1       3.106  -1.774   0.322  0.00  0.00    -0.128 NA
ATOM      4  C   UNL     1       2.877  -0.557  -0.112  0.00  0.00    +0.165 A 
ATOM      5  N   UNL     1       4.078  -0.055  -0.557  0.00  0.00    -0.300 N 
ENDROOT
BRANCH   4   6
ATOM      6  C   UNL     1       1.576   0.144  -0.116  0.00  0.00    +0.020 A 
ATOM      7  C   UNL     1       0.388  -0.584  -0.034  0.00  0.00    +0.015 A 
ATOM      8  C   UNL     1      -0.823   0.074  -0.038  0.00  0.00    +0.046 A 
ATOM      9  C   UNL     1      -0.863   1.459  -0.123  0.00  0.00    +0.120 A 
ATOM     10  C   UNL     1       0.317   2.188  -0.204  0.00  0.00    +0.046 A 
ATOM     11  C   UNL     1       1.532   1.537  -0.202  0.00  0.00    +0.015 A 
BRANCH   9  12
ATOM     12  O   UNL     1      -2.059   2.103  -0.131  0.00  0.00    -0.495 OA
ATOM     13  C   UNL     1      -2.027   3.529  -0.220  0.00  0.00    +0.277 C 
ENDBRANCH   9  12
ENDBRANCH   4   6
BRANCH   1  14
ATOM     14  S   UNL     1       6.710  -0.986  -0.737  0.00  0.00    -0.074 S 
BRANCH  14  16
ATOM     15  C   UNL     1       7.030  -2.757   1.318  0.00  0.00    +0.029 C 
ATOM     16  C   UNL     1       7.215  -2.638  -0.196  0.00  0.00    +0.137 C 
BRANCH  16  17
ATOM     17  C   UNL     1       8.665  -2.859  -0.545  0.00  0.00    +0.230 C 
ATOM     18  O   UNL     1       9.410  -1.911  -0.670  0.00  0.00    -0.274 OA
ATOM     19  N   UNL     1       9.133  -4.111  -0.717  0.00  0.00    -0.282 N 
ATOM     20  H   UNL     1       8.443  -4.967  -0.670  0.00  0.00    +0.155 HD
BRANCH  19  21
ATOM     21  C   UNL     1      10.497  -4.323  -0.954  0.00  0.00    +0.076 A 
ATOM     22  C   UNL     1      11.226  -3.401  -1.692  0.00  0.00    +0.027 A 
ATOM     23  C   UNL     1      12.573  -3.609  -1.920  0.00  0.00    +0.002 A 
ATOM     24  C   UNL     1      13.195  -4.740  -1.425  0.00  0.00    +0.004 A 
ATOM     25  C   UNL     1      12.474  -5.666  -0.694  0.00  0.00    +0.047 A 
ATOM     26  C   UNL     1      11.125  -5.462  -0.456  0.00  0.00    +0.141 A 
BRANCH  26  27
ATOM     27  O   UNL     1      10.414  -6.372   0.263  0.00  0.00    -0.493 OA
ATOM     28  C   UNL     1      11.123  -7.516   0.742  0.00  0.00    +0.277 C 
ENDBRANCH  26  27
ENDBRANCH  19  21
ENDBRANCH  16  17
ENDBRANCH  14  16
ENDBRANCH   1  14
BRANCH   5  29
ATOM     29  C   UNL     1       4.327   1.272  -1.127  0.00  0.00    +0.157 C 
BRANCH  29  30
ATOM     30  C   UNL     1       4.785   2.224  -0.021  0.00  0.00    +0.138 C 
ATOM     31  C   UNL     1       4.939   3.652  -0.589  0.00  0.00    +0.035 C 
ATOM     32  C   UNL     1       6.218   4.158   0.131  0.00  0.00    +0.031 C 
ATOM     33  C   UNL     1       7.037   2.846   0.231  0.00  0.00    +0.160 C 
ATOM     34  O   UNL     1       6.066   1.815   0.472  0.00  0.00    -0.375 OA
ENDBRANCH  29  30
ENDBRANCH   5  29
TORSDOF 9
