REMARK  Name = ZINC40118337
REMARK  7 active torsions:
REMARK  status: ('A' for Active; 'I' for Inactive)
REMARK    1  A    between atoms: C_14  and  C_15
REMARK    2  A    between atoms: C_15  and  C_16
REMARK    3  A    between atoms: C_16  and  C_17
REMARK    4  A    between atoms: C_17  and  C_18
REMARK    5  A    between atoms: C_18  and  C_19
REMARK    6  A    between atoms: C_19  and  C_20
REMARK    7  A    between atoms: C_20  and  N_21
REMARK                            x       y       z     vdW  Elec       q    Type
REMARK                         _______ _______ _______ _____ _____    ______ ____
ROOT
ATOM      1  C   UNL     1       6.720   1.364   1.387  0.00  0.00    +0.000 C 
ENDROOT
BRANCH   1   2
ATOM      2  C   UNL     1       5.429   0.542   1.395  0.00  0.00    +0.005 C 
BRANCH   2   3
ATOM      3  C   UNL     1       4.985   0.276  -0.045  0.00  0.00    +0.036 C 
BRANCH   3  17
ATOM      4  C   UNL     1      -0.016   1.353   0.009  0.00  0.00    +0.001 A 
ATOM      5  C   UNL     1       1.160   2.103   0.002  0.00  0.00    +0.001 A 
ATOM      6  C   UNL     1       2.383   1.513  -0.013  0.00  0.00    +0.009 A 
ATOM      7  C   UNL     1       2.476   0.104  -0.021  0.00  0.00    -0.014 A 
ATOM      8  C   UNL     1       1.239  -0.684  -0.013  0.00  0.00    -0.017 A 
ATOM      9  C   UNL     1       0.002  -0.004   0.002  0.00  0.00    +0.008 A 
ATOM     10  C   UNL     1       1.295  -2.076  -0.022  0.00  0.00    +0.017 A 
ATOM     11  C   UNL     1       2.534  -2.715  -0.038  0.00  0.00    -0.017 A 
ATOM     12  C   UNL     1       2.627  -4.123  -0.047  0.00  0.00    +0.008 A 
ATOM     13  C   UNL     1       3.850  -4.713  -0.063  0.00  0.00    +0.001 A 
ATOM     14  C   UNL     1       5.027  -3.963  -0.070  0.00  0.00    +0.001 A 
ATOM     15  C   UNL     1       5.008  -2.606  -0.061  0.00  0.00    +0.009 A 
ATOM     16  C   UNL     1       3.770  -1.927  -0.045  0.00  0.00    -0.014 A 
ATOM     17  C   UNL     1       3.715  -0.534  -0.037  0.00  0.00    -0.032 A 
ENDBRANCH   3  17
ENDBRANCH   2   3
ENDBRANCH   1   2
BRANCH   1  18
ATOM     18  C   UNL     1       7.164   1.630   2.827  0.00  0.00    +0.002 C 
BRANCH  18  19
ATOM     19  C   UNL     1       8.454   2.452   2.819  0.00  0.00    +0.021 C 
BRANCH  19  20
ATOM     20  C   UNL     1       8.898   2.718   4.259  0.00  0.00    +0.114 C 
BRANCH  20  21
ATOM     21  N   UNL     1      10.133   3.506   4.251  0.00  0.00    -0.368 N 
ATOM     22  C   UNL     1      10.694   3.850   5.377  0.00  0.00    +0.155 C 
ATOM     23  C   UNL     1      11.940   4.651   5.389  0.00  0.00    +0.031 A 
ATOM     24  C   UNL     1      12.574   5.076   4.235  0.00  0.00    +0.012 A 
ATOM     25  C   UNL     1      13.736   5.823   4.335  0.00  0.00    +0.001 A 
ATOM     26  C   UNL     1      14.265   6.144   5.573  0.00  0.00    +0.001 A 
ATOM     27  C   UNL     1      13.643   5.727   6.736  0.00  0.00    +0.014 A 
ATOM     28  C   UNL     1      12.477   4.978   6.652  0.00  0.00    +0.051 A 
ATOM     29  C   UNL     1      11.749   4.492   7.840  0.00  0.00    +0.286 C 
ATOM     30  O   UNL     1      12.157   4.739   8.957  0.00  0.00    -0.267 OA
ATOM     31  N   UNL     1      10.624   3.771   7.667  0.00  0.00    -0.074 NA
ATOM     32  N   UNL     1      10.143   3.484   6.574  0.00  0.00    -0.139 NA
ATOM     33  H   UNL     1      10.534   3.771   3.409  0.00  0.00    +0.161 HD
ENDBRANCH  20  21
ENDBRANCH  19  20
ENDBRANCH  18  19
ENDBRANCH   1  18
TORSDOF 7
