REMARK  Name = ZINC07880114
REMARK  5 active torsions:
REMARK  status: ('A' for Active; 'I' for Inactive)
REMARK    1  A    between atoms: C_6  and  C_22
REMARK    2  A    between atoms: C_10  and  C_11
REMARK    3  A    between atoms: C_10  and  N_43
REMARK    4  A    between atoms: N_13  and  C_14
REMARK    5  A    between atoms: C_15  and  C_19
REMARK                            x       y       z     vdW  Elec       q    Type
REMARK                         _______ _______ _______ _____ _____    ______ ____
ROOT
ATOM      1  C   UNL     1      -0.334   1.818  -0.183  0.00  0.00    +0.020 C 
ENDROOT
BRANCH   1  10
ATOM      2  C   UNL     1       3.532   4.702   0.981  0.00  0.00    +0.010 A 
ATOM      3  C   UNL     1       4.881   4.805   0.960  0.00  0.00    +0.045 A 
ATOM      4  S   UNL     1       5.344   3.396  -0.037  0.00  0.00    -0.101 S 
ATOM      5  C   UNL     1       3.713   2.780  -0.347  0.00  0.00    -0.010 A 
ATOM      6  C   UNL     1       2.903   3.656   0.309  0.00  0.00    -0.051 A 
ATOM      7  C   UNL     1       1.391   3.453   0.278  0.00  0.00    -0.033 C 
ATOM      8  C   UNL     1       1.769   1.707  -1.380  0.00  0.00    -0.072 C 
ATOM      9  C   UNL     1       3.283   1.586  -1.136  0.00  0.00    +0.024 C 
ATOM     10  N   UNL     1       1.122   2.042  -0.088  0.00  0.00    +0.390 N 
ATOM     11  H   UNL     1       1.506   1.431   0.642  0.00  0.00    -0.080 HD
BRANCH   7  12
ATOM     12  C   UNL     1       0.808   3.720   1.667  0.00  0.00    -0.020 C 
ATOM     13  C   UNL     1      -0.474   4.552   1.747  0.00  0.00    +0.002 C 
ATOM     14  C   UNL     1       0.861   5.157   2.190  0.00  0.00    +0.002 C 
ENDBRANCH   7  12
ENDBRANCH   1  10
BRANCH   1  15
ATOM     15  C   UNL     1      -0.584   0.337  -0.310  0.00  0.00    +0.201 C 
ATOM     16  O   UNL     1       0.350  -0.436  -0.340  0.00  0.00    -0.278 OA
ATOM     17  N   UNL     1      -1.847  -0.128  -0.390  0.00  0.00    -0.281 N 
ATOM     18  H   UNL     1      -2.594   0.490  -0.365  0.00  0.00    +0.155 HD
BRANCH  17  19
ATOM     19  C   UNL     1      -2.077  -1.491  -0.506  0.00  0.00    +0.084 A 
ATOM     20  C   UNL     1      -3.294  -2.156  -0.595  0.00  0.00    +0.065 A 
ATOM     21  C   UNL     1      -3.241  -3.594  -0.715  0.00  0.00    +0.022 A 
ATOM     22  C   UNL     1      -2.023  -4.165  -0.719  0.00  0.00    +0.048 A 
ATOM     23  S   UNL     1      -0.919  -2.776  -0.570  0.00  0.00    -0.081 S 
BRANCH  20  24
ATOM     24  C   UNL     1      -4.569  -1.433  -0.573  0.00  0.00    +0.244 C 
ATOM     25  O   UNL     1      -4.579  -0.220  -0.474  0.00  0.00    -0.270 OA
ATOM     26  N   UNL     1      -5.731  -2.111  -0.661  0.00  0.00    -0.325 N 
ATOM     27  H   UNL     1      -5.723  -3.078  -0.739  0.00  0.00    +0.145 HD
ATOM     28  H   UNL     1      -6.574  -1.633  -0.646  0.00  0.00    +0.145 HD
ENDBRANCH  20  24
ENDBRANCH  17  19
ENDBRANCH   1  15
TORSDOF 5
