REMARK  Name = ZINC66702480
REMARK  10 active torsions:
REMARK  status: ('A' for Active; 'I' for Inactive)
REMARK    1  A    between atoms: C_1  and  C_2
REMARK    2  A    between atoms: C_2  and  C_3
REMARK    3  A    between atoms: C_3  and  C_4
REMARK    4  A    between atoms: C_4  and  C_6
REMARK    5  A    between atoms: C_4  and  N_15
REMARK    6  A    between atoms: N_18  and  C_19
REMARK    7  A    between atoms: N_18  and  C_26
REMARK    8  A    between atoms: C_19  and  C_20
REMARK    9  A    between atoms: C_26  and  C_28
REMARK   10  A    between atoms: C_26  and  C_29
REMARK                            x       y       z     vdW  Elec       q    Type
REMARK                         _______ _______ _______ _____ _____    ______ ____
ROOT
ATOM      1  N   UNL     1       1.726  -2.798   0.312  0.00  0.00    -0.289 N 
ATOM      2  C   UNL     1       0.814  -2.975   1.289  0.00  0.00    +0.303 C 
ATOM      3  O   UNL     1      -0.365  -2.783   1.062  0.00  0.00    -0.253 OA
ATOM      4  N   UNL     1       1.210  -3.366   2.517  0.00  0.00    -0.278 N 
ATOM      5  H   UNL     1       2.672  -2.885   0.510  0.00  0.00    +0.151 HD
ENDROOT
BRANCH   4   6
ATOM      6  C   UNL     1       0.211  -3.671   3.545  0.00  0.00    +0.078 C 
ATOM      7  C   UNL     1      -0.612  -2.417   3.844  0.00  0.00    +0.028 C 
BRANCH   6   8
ATOM      8  C   UNL     1      -0.714  -4.781   3.043  0.00  0.00    +0.009 C 
ATOM      9  C   UNL     1      -2.180  -4.421   2.794  0.00  0.00    +0.005 C 
ATOM     10  C   UNL     1      -1.798  -5.283   3.998  0.00  0.00    +0.005 C 
ENDBRANCH   6   8
ENDBRANCH   4   6
BRANCH   1  11
ATOM     11  C   UNL     1       1.289  -2.473  -1.048  0.00  0.00    +0.143 C 
BRANCH  11  12
ATOM     12  C   UNL     1       2.394  -1.746  -1.770  0.00  0.00    +0.158 A 
ATOM     13  N   UNL     1       3.659  -2.075  -1.780  0.00  0.00    -0.132 NA
ATOM     14  N   UNL     1       4.332  -1.243  -2.495  0.00  0.00    -0.129 NA
ATOM     15  C   UNL     1       3.517  -0.324  -2.986  0.00  0.00    +0.161 A 
ATOM     16  N   UNL     1       2.255  -0.630  -2.536  0.00  0.00    -0.285 N 
ATOM     17  C   UNL     1       1.190   0.146  -2.887  0.00  0.00    +0.094 A 
ATOM     18  C   UNL     1       1.358   1.223  -3.682  0.00  0.00    +0.018 A 
ATOM     19  C   UNL     1       2.636   1.560  -4.161  0.00  0.00    +0.005 A 
ATOM     20  C   UNL     1       3.709   0.800  -3.813  0.00  0.00    +0.048 A 
ENDBRANCH  11  12
BRANCH  11  21
ATOM     21  C   UNL     1       0.953  -3.764  -1.798  0.00  0.00    +0.030 C 
BRANCH  21  23
ATOM     22  C   UNL     1      -0.587  -5.730  -1.886  0.00  0.00    +0.004 C 
ATOM     23  C   UNL     1      -0.250  -4.439  -1.136  0.00  0.00    -0.001 C 
ENDBRANCH  21  23
ENDBRANCH  11  21
ENDBRANCH   1  11
BRANCH   4  24
ATOM     24  C   UNL     1       2.637  -3.485   2.824  0.00  0.00    +0.144 C 
BRANCH  24  25
ATOM     25  C   UNL     1       3.148  -2.169   3.353  0.00  0.00    -0.030 A 
ATOM     26  C   UNL     1       3.646  -1.220   2.480  0.00  0.00    +0.005 A 
ATOM     27  C   UNL     1       4.115  -0.013   2.966  0.00  0.00    +0.000 A 
ATOM     28  C   UNL     1       4.086   0.243   4.324  0.00  0.00    +0.000 A 
ATOM     29  C   UNL     1       3.587  -0.706   5.196  0.00  0.00    +0.000 A 
ATOM     30  C   UNL     1       3.115  -1.911   4.710  0.00  0.00    +0.005 A 
ENDBRANCH  24  25
ENDBRANCH   4  24
TORSDOF 8
