REMARK  Name = ZINC39689141
REMARK  5 active torsions:
REMARK  status: ('A' for Active; 'I' for Inactive)
REMARK    1  A    between atoms: C_6  and  C_7
REMARK    2  A    between atoms: C_11  and  C_20
REMARK    3  A    between atoms: N_22  and  C_23
REMARK    4  A    between atoms: C_23  and  C_24
REMARK    5  A    between atoms: N_27  and  C_30
REMARK                            x       y       z     vdW  Elec       q    Type
REMARK                         _______ _______ _______ _____ _____    ______ ____
ROOT
ATOM      1  C   UNL     1      -1.551  -0.821   0.110  0.00  0.00    +0.247 C 
ATOM      2  O   UNL     1      -2.651  -0.327   0.258  0.00  0.00    -0.270 OA
ATOM      3  N   UNL     1      -1.425  -2.155  -0.036  0.00  0.00    -0.296 N 
ATOM      4  C   UNL     1      -0.175  -2.948  -0.096  0.00  0.00    +0.121 C 
ATOM      5  C   UNL     1      -0.486  -4.230   0.708  0.00  0.00    +0.100 C 
ATOM      6  C   UNL     1      -2.017  -4.365   0.653  0.00  0.00    -0.004 C 
ATOM      7  C   UNL     1      -2.506  -3.161  -0.165  0.00  0.00    +0.115 C 
ATOM      8  C   UNL     1      -2.603  -4.311   2.061  0.00  0.00    -0.010 C 
ATOM      9  C   UNL     1      -4.120  -4.504   1.986  0.00  0.00    -0.082 C 
ATOM     10  N   UNL     1      -4.420  -5.797   1.358  0.00  0.00    +0.379 N 
ATOM     11  C   UNL     1      -3.935  -5.806  -0.027  0.00  0.00    -0.082 C 
ATOM     12  C   UNL     1      -2.409  -5.668  -0.036  0.00  0.00    -0.010 C 
ATOM     13  H   UNL     1      -3.967  -6.534   1.877  0.00  0.00    -0.086 HD
ATOM     14  H   UNL     1      -5.418  -5.949   1.365  0.00  0.00    -0.086 HD
ENDROOT
BRANCH   1  20
ATOM     15  C   UNL     1       0.828  -0.413  -0.507  0.00  0.00    +0.014 A 
ATOM     16  C   UNL     1       1.945   0.396  -0.524  0.00  0.00    +0.016 A 
ATOM     17  C   UNL     1       1.899   1.657   0.046  0.00  0.00    +0.018 A 
ATOM     18  C   UNL     1       0.732   2.113   0.638  0.00  0.00    +0.016 A 
ATOM     19  C   UNL     1      -0.391   1.313   0.662  0.00  0.00    +0.014 A 
ATOM     20  C   UNL     1      -0.350   0.041   0.088  0.00  0.00    +0.037 A 
ATOM     21 BR   UNL     1       3.434   2.760   0.019  0.00  0.00    -0.050 Br
ENDBRANCH   1  20
BRANCH   5  22
ATOM     22  C   UNL     1      -0.021  -4.082   2.134  0.00  0.00    +0.218 C 
ATOM     23  O   UNL     1      -0.003  -2.987   2.655  0.00  0.00    -0.275 OA
ATOM     24  N   UNL     1       0.376  -5.166   2.829  0.00  0.00    -0.315 N 
ATOM     25  H   UNL     1       0.362  -6.042   2.412  0.00  0.00    +0.149 HD
BRANCH  24  26
ATOM     26  C   UNL     1       0.829  -5.022   4.215  0.00  0.00    +0.107 C 
BRANCH  26  27
ATOM     27  C   UNL     1       1.219  -6.394   4.769  0.00  0.00    +0.003 C 
ATOM     28  C   UNL     1       2.437  -6.926   4.008  0.00  0.00    -0.014 C 
ATOM     29  C   UNL     1       2.871  -8.260   4.619  0.00  0.00    -0.078 C 
ATOM     30  N   UNL     1       3.221  -8.064   6.031  0.00  0.00    +0.382 N 
ATOM     31  C   UNL     1       2.039  -7.623   6.781  0.00  0.00    -0.078 C 
ATOM     32  C   UNL     1       1.573  -6.264   6.253  0.00  0.00    -0.014 C 
ATOM     33  H   UNL     1       3.945  -7.365   6.104  0.00  0.00    -0.081 HD
BRANCH  30  34
ATOM     34  C   UNL     1       3.710  -9.331   6.593  0.00  0.00    -0.069 C 
ATOM     35  C   UNL     1       5.038  -9.748   5.912  0.00  0.00    -0.015 C 
ATOM     36  C   UNL     1       5.688 -10.673   6.970  0.00  0.00    -0.002 C 
ATOM     37  C   UNL     1       5.344 -10.007   8.318  0.00  0.00    -0.002 C 
ATOM     38  C   UNL     1       4.086  -9.153   8.078  0.00  0.00    -0.015 C 
ENDBRANCH  30  34
ENDBRANCH  26  27
ENDBRANCH  24  26
ENDBRANCH   5  22
TORSDOF 5
