REMARK  Name = ZINC14473545
REMARK  7 active torsions:
REMARK  status: ('A' for Active; 'I' for Inactive)
REMARK    1  A    between atoms: C_1  and  O_2
REMARK    2  A    between atoms: O_2  and  C_3
REMARK    3  A    between atoms: C_3  and  C_4
REMARK    4  A    between atoms: C_4  and  N_5
REMARK    5  A    between atoms: C_6  and  C_8
REMARK    6  A    between atoms: C_21  and  C_24
REMARK    7  A    between atoms: C_26  and  N_31
REMARK                            x       y       z     vdW  Elec       q    Type
REMARK                         _______ _______ _______ _____ _____    ______ ____
ROOT
ATOM      1  C   UNL     1       0.355  -4.318   2.711  0.00  0.00    +0.037 A 
ATOM      2  C   UNL     1       0.735  -3.380   3.676  0.00  0.00    +0.015 A 
ATOM      3  C   UNL     1       1.323  -3.796   4.846  0.00  0.00    +0.024 A 
ATOM      4  C   UNL     1       1.554  -5.150   5.080  0.00  0.00    +0.031 A 
ATOM      5  C   UNL     1       1.188  -6.090   4.104  0.00  0.00    -0.019 A 
ATOM      6  C   UNL     1       0.594  -5.677   2.937  0.00  0.00    +0.019 A 
ATOM      7  C   UNL     1       1.481  -7.512   4.383  0.00  0.00    +0.049 C 
ATOM      8  C   UNL     1       0.690  -8.612   3.773  0.00  0.00    -0.023 C 
ATOM      9  C   UNL     1       0.666  -9.635   4.619  0.00  0.00    -0.030 C 
ATOM     10  C   UNL     1       1.426  -9.276   5.897  0.00  0.00    +0.033 C 
ATOM     11  C   UNL     1       1.298  -7.747   5.913  0.00  0.00    +0.029 C 
ATOM     12  C   UNL     1       2.415  -6.964   6.578  0.00  0.00    +0.106 C 
ATOM     13  N   UNL     1       2.135  -5.541   6.285  0.00  0.00    -0.336 N 
ATOM     14  H   UNL     1       2.359  -4.867   6.946  0.00  0.00    +0.147 HD
ENDROOT
BRANCH  12  15
ATOM     15  C   UNL     1       2.404  -7.204   8.066  0.00  0.00    -0.007 A 
ATOM     16  C   UNL     1       1.750  -6.320   8.904  0.00  0.00    +0.039 A 
ATOM     17  C   UNL     1       1.736  -6.543  10.268  0.00  0.00    +0.127 A 
ATOM     18  C   UNL     1       2.385  -7.644  10.796  0.00  0.00    +0.034 A 
ATOM     19  C   UNL     1       3.043  -8.525   9.960  0.00  0.00    +0.022 A 
ATOM     20  C   UNL     1       3.054  -8.305   8.593  0.00  0.00    +0.046 A 
ATOM     21 CL   UNL     1       3.881  -9.412   7.542  0.00  0.00    -0.083 Cl
BRANCH  17  22
ATOM     22  N   UNL     1       1.031  -5.599  11.164  0.00  0.00    +0.056 N 
ATOM     23  O   UNL     1       1.023  -5.793  12.367  0.00  0.00    -0.126 OA
ATOM     24  O   UNL     1       0.460  -4.629  10.699  0.00  0.00    -0.126 OA
ENDBRANCH  17  22
ENDBRANCH  12  15
BRANCH   1  26
ATOM     25  N   UNL     1      -0.515  -2.565   1.245  0.00  0.00    -0.309 N 
ATOM     26  C   UNL     1      -0.287  -3.876   1.459  0.00  0.00    +0.244 C 
ATOM     27  O   UNL     1      -0.611  -4.695   0.620  0.00  0.00    -0.270 OA
ATOM     28  H   UNL     1      -0.257  -1.913   1.914  0.00  0.00    +0.149 HD
BRANCH  25  29
ATOM     29  C   UNL     1      -1.154  -2.126   0.002  0.00  0.00    +0.132 C 
BRANCH  29  30
ATOM     30  C   UNL     1      -1.295  -0.603   0.011  0.00  0.00    +0.178 C 
BRANCH  30  32
ATOM     31  C   UNL     1      -0.017   1.425   0.010  0.00  0.00    +0.194 C 
ATOM     32  O   UNL     1       0.002  -0.004   0.002  0.00  0.00    -0.381 OA
ENDBRANCH  30  32
ENDBRANCH  29  30
ENDBRANCH  25  29
ENDBRANCH   1  26
TORSDOF 6
