REMARK  Name = ZINC09409965
REMARK  10 active torsions:
REMARK  status: ('A' for Active; 'I' for Inactive)
REMARK    1  A    between atoms: C_1  and  C_2
REMARK    2  A    between atoms: C_3  and  C_38
REMARK    3  A    between atoms: C_11  and  O_13
REMARK    4  A    between atoms: O_13  and  C_14
REMARK    5  A    between atoms: C_14  and  C_15
REMARK    6  A    between atoms: N_17  and  C_18
REMARK    7  A    between atoms: C_18  and  C_19
REMARK    8  A    between atoms: C_23  and  C_27
REMARK    9  A    between atoms: N_29  and  C_30
REMARK   10  A    between atoms: C_30  and  C_31
REMARK                            x       y       z     vdW  Elec       q    Type
REMARK                         _______ _______ _______ _____ _____    ______ ____
ROOT
ATOM      1  C   UNL     1       9.614  -2.376  -7.166  0.00  0.00    +0.251 C 
ATOM      2  O   UNL     1      10.100  -3.485  -7.233  0.00  0.00    -0.272 OA
ATOM      3  N   UNL     1       8.353  -2.219  -6.717  0.00  0.00    -0.312 N 
ATOM      4  H   UNL     1       7.964  -1.332  -6.663  0.00  0.00    +0.149 HD
ENDROOT
BRANCH   1   5
ATOM      5  C   UNL     1      10.420  -1.173  -7.584  0.00  0.00    +0.324 C 
BRANCH   5   6
ATOM      6  O   UNL     1      11.715  -1.595  -8.018  0.00  0.00    -0.481 OA
BRANCH   6  17
ATOM      7  C   UNL     1      16.637   2.052 -10.203  0.00  0.00    +0.045 C 
ATOM      8  C   UNL     1      15.248   2.385  -9.724  0.00  0.00    -0.030 A 
ATOM      9  C   UNL     1      14.810   3.671  -9.691  0.00  0.00    +0.037 A 
ATOM     10  C   UNL     1      13.506   3.957  -9.239  0.00  0.00    +0.340 A 
ATOM     11  O   UNL     1      13.126   5.114  -9.216  0.00  0.00    -0.245 OA
ATOM     12  O   UNL     1      12.671   2.986  -8.834  0.00  0.00    -0.422 OA
ATOM     13  C   UNL     1      13.044   1.688  -8.841  0.00  0.00    +0.143 A 
ATOM     14  C   UNL     1      14.333   1.332  -9.280  0.00  0.00    +0.022 A 
ATOM     15  C   UNL     1      14.723  -0.012  -9.287  0.00  0.00    +0.035 A 
ATOM     16  C   UNL     1      13.850  -0.975  -8.867  0.00  0.00    +0.083 A 
ATOM     17  C   UNL     1      12.572  -0.627  -8.432  0.00  0.00    +0.143 A 
ATOM     18  C   UNL     1      12.168   0.698  -8.423  0.00  0.00    +0.094 A 
ATOM     19 CL   UNL     1      14.334  -2.642  -8.877  0.00  0.00    -0.080 Cl
ATOM     20  C   UNL     1      15.717   4.789 -10.137  0.00  0.00    +0.051 C 
ENDBRANCH   6  17
ENDBRANCH   5   6
ENDBRANCH   1   5
BRANCH   3  21
ATOM     21  C   UNL     1       7.569  -3.388  -6.310  0.00  0.00    +0.107 C 
BRANCH  21  22
ATOM     22  C   UNL     1       6.184  -2.936  -5.845  0.00  0.00    +0.006 C 
ATOM     23  C   UNL     1       5.323  -4.164  -5.539  0.00  0.00    +0.006 C 
ATOM     24  C   UNL     1       3.937  -3.712  -5.074  0.00  0.00    +0.013 C 
ATOM     25  C   UNL     1       4.076  -2.858  -3.812  0.00  0.00    +0.075 C 
ATOM     26  C   UNL     1       4.936  -1.631  -4.118  0.00  0.00    +0.013 C 
ATOM     27  C   UNL     1       6.322  -2.083  -4.583  0.00  0.00    +0.006 C 
BRANCH  25  28
ATOM     28  C   UNL     1       2.711  -2.414  -3.354  0.00  0.00    +0.216 C 
ATOM     29  O   UNL     1       1.724  -2.747  -3.976  0.00  0.00    -0.276 OA
ATOM     30  N   UNL     1       2.586  -1.646  -2.253  0.00  0.00    -0.313 N 
ATOM     31  H   UNL     1       3.375  -1.380  -1.756  0.00  0.00    +0.149 HD
BRANCH  30  32
ATOM     32  C   UNL     1       1.259  -1.213  -1.808  0.00  0.00    +0.135 C 
BRANCH  32  33
ATOM     33  C   UNL     1       1.398  -0.360  -0.546  0.00  0.00    +0.135 C 
ATOM     34  C   UNL     1       0.002  -0.004   0.002  0.00  0.00    +0.035 C 
ATOM     35  C   UNL     1      -0.019   1.544   0.011  0.00  0.00    +0.031 C 
ATOM     36  C   UNL     1       1.492   1.889  -0.002  0.00  0.00    +0.160 C 
ATOM     37  O   UNL     1       2.062   0.876  -0.858  0.00  0.00    -0.375 OA
ENDBRANCH  32  33
ENDBRANCH  30  32
ENDBRANCH  25  28
ENDBRANCH  21  22
ENDBRANCH   3  21
TORSDOF 8
