REMARK  Name = ZINC36207492
REMARK  16 active torsions:
REMARK  status: ('A' for Active; 'I' for Inactive)
REMARK    1  A    between atoms: C_1  and  C_2
REMARK    2  A    between atoms: C_8  and  C_17
REMARK    3  A    between atoms: C_12  and  C_13
REMARK    4  A    between atoms: C_13  and  O_15
REMARK    5  A    between atoms: O_15  and  C_16
REMARK    6  A    between atoms: C_17  and  N_18
REMARK    7  A    between atoms: N_18  and  C_19
REMARK    8  A    between atoms: N_18  and  C_31
REMARK    9  A    between atoms: C_19  and  C_20
REMARK   10  A    between atoms: C_20  and  C_22
REMARK   11  A    between atoms: C_20  and  O_30
REMARK   12  A    between atoms: C_22  and  O_23
REMARK   13  A    between atoms: O_23  and  C_24
REMARK   14  A    between atoms: C_31  and  C_32
REMARK   15  A    between atoms: C_32  and  C_33
REMARK   16  A    between atoms: C_32  and  C_34
REMARK                            x       y       z     vdW  Elec       q    Type
REMARK                         _______ _______ _______ _____ _____    ______ ____
ROOT
ATOM      1  N   UNL     1       0.195  -4.679  -3.771  0.00  0.00    +0.386 N 
ATOM      2  H   UNL     1       1.002  -4.752  -3.170  0.00  0.00    -0.081 HD
ENDROOT
BRANCH   1   3
ATOM      3  C   UNL     1       0.061  -3.295  -4.245  0.00  0.00    -0.003 C 
BRANCH   3  11
ATOM      4  C   UNL     1      -0.210   1.516   0.343  0.00  0.00    +0.046 C 
ATOM      5  C   UNL     1      -0.082   0.015   0.333  0.00  0.00    -0.015 A 
ATOM      6  C   UNL     1      -0.060  -0.678  -0.879  0.00  0.00    +0.076 A 
ATOM      7  C   UNL     1      -0.147  -0.151  -2.260  0.00  0.00    +0.260 A 
ATOM      8  O   UNL     1      -0.256   1.044  -2.467  0.00  0.00    -0.267 OA
ATOM      9  N   UNL     1      -0.103  -1.028  -3.282  0.00  0.00    -0.312 N 
ATOM     10  H   UNL     1      -0.159  -0.700  -4.192  0.00  0.00    +0.170 HD
ATOM     11  C   UNL     1       0.018  -2.361  -3.063  0.00  0.00    +0.094 A 
ATOM     12  N   UNL     1       0.097  -2.858  -1.859  0.00  0.00    -0.229 NA
ATOM     13  C   UNL     1       0.064  -2.084  -0.782  0.00  0.00    +0.116 A 
ATOM     14  S   UNL     1       0.142  -2.367   0.968  0.00  0.00    -0.062 S 
ATOM     15  C   UNL     1       0.019  -0.671   1.509  0.00  0.00    +0.102 A 
BRANCH  15  16
ATOM     16  C   UNL     1       0.023  -0.145   2.876  0.00  0.00    +0.346 C 
ATOM     17  O   UNL     1      -0.073   1.052   3.067  0.00  0.00    -0.244 OA
BRANCH  16  18
ATOM     18  O   UNL     1       0.133  -0.989   3.923  0.00  0.00    -0.464 OA
ATOM     19  C   UNL     1       0.130  -0.407   5.228  0.00  0.00    +0.280 C 
ENDBRANCH  16  18
ENDBRANCH  15  16
ENDBRANCH   3  11
ENDBRANCH   1   3
BRANCH   1  20
ATOM     20  C   UNL     1       0.357  -5.577  -4.921  0.00  0.00    -0.043 C 
BRANCH  20  21
ATOM     21  C   UNL     1       1.690  -5.284  -5.614  0.00  0.00    +0.135 C 
BRANCH  21  22
ATOM     22  O   UNL     1       2.765  -5.557  -4.713  0.00  0.00    -0.390 OA
ATOM     23  H   UNL     1       2.755  -6.452  -4.348  0.00  0.00    +0.210 HD
ENDBRANCH  21  22
BRANCH  21  24
ATOM     24  C   UNL     1       1.826  -6.169  -6.854  0.00  0.00    +0.258 C 
BRANCH  24  25
ATOM     25  O   UNL     1       3.014  -5.814  -7.564  0.00  0.00    -0.489 OA
BRANCH  25  26
ATOM     26  C   UNL     1       3.286  -6.510  -8.700  0.00  0.00    +0.121 A 
ATOM     27  C   UNL     1       2.424  -7.510  -9.124  0.00  0.00    +0.045 A 
ATOM     28  C   UNL     1       2.701  -8.216 -10.279  0.00  0.00    +0.004 A 
ATOM     29  C   UNL     1       3.838  -7.926 -11.011  0.00  0.00    +0.000 A 
ATOM     30  C   UNL     1       4.699  -6.930 -10.589  0.00  0.00    +0.004 A 
ATOM     31  C   UNL     1       4.423  -6.217  -9.439  0.00  0.00    +0.045 A 
ENDBRANCH  25  26
ENDBRANCH  24  25
ENDBRANCH  21  24
ENDBRANCH  20  21
ENDBRANCH   1  20
BRANCH   1  32
ATOM     32  C   UNL     1      -1.010  -5.058  -3.020  0.00  0.00    -0.075 C 
BRANCH  32  33
ATOM     33  C   UNL     1      -0.810  -6.442  -2.400  0.00  0.00    -0.034 C 
ATOM     34  C   UNL     1       0.321  -6.381  -1.372  0.00  0.00    +0.005 C 
ATOM     35  C   UNL     1      -2.103  -6.883  -1.710  0.00  0.00    +0.005 C 
ENDBRANCH  32  33
ENDBRANCH   1  32
TORSDOF 12
