REMARK  Name = ZINC04763054
REMARK  10 active torsions:
REMARK  status: ('A' for Active; 'I' for Inactive)
REMARK    1  A    between atoms: C_1  and  C_2
REMARK    2  A    between atoms: C_5  and  C_7
REMARK    3  A    between atoms: C_12  and  C_22
REMARK    4  A    between atoms: C_14  and  C_18
REMARK    5  A    between atoms: C_18  and  O_20
REMARK    6  A    between atoms: O_20  and  C_21
REMARK    7  A    between atoms: C_24  and  C_34
REMARK    8  A    between atoms: C_25  and  C_26
REMARK    9  A    between atoms: C_26  and  O_28
REMARK   10  A    between atoms: O_28  and  C_29
REMARK                            x       y       z     vdW  Elec       q    Type
REMARK                         _______ _______ _______ _____ _____    ______ ____
ROOT
ATOM      1  C   UNL     1       3.596   0.810  -0.028  0.00  0.00    +0.128 C 
ATOM      2  C   UNL     1       4.043   1.553  -1.262  0.00  0.00    +0.028 C 
ATOM      3  C   UNL     1       4.453   2.837  -1.183  0.00  0.00    +0.016 C 
ATOM      4  C   UNL     1       4.907   3.585  -2.413  0.00  0.00    +0.055 C 
ATOM      5  C   UNL     1       4.159   3.060  -3.639  0.00  0.00    +0.013 C 
ATOM      6  C   UNL     1       4.430   1.557  -3.768  0.00  0.00    +0.171 C 
ATOM      7  C   UNL     1       4.017   0.874  -2.493  0.00  0.00    +0.176 C 
ATOM      8  O   UNL     1       3.655  -0.285  -2.527  0.00  0.00    -0.291 OA
ATOM      9  C   UNL     1       2.658   3.302  -3.468  0.00  0.00    +0.009 C 
ATOM     10  N   UNL     1       4.470   3.488   0.021  0.00  0.00    -0.321 N 
ATOM     11  C   UNL     1       4.470   2.784   1.193  0.00  0.00    +0.016 C 
ATOM     12  C   UNL     1       4.067   1.502   1.217  0.00  0.00    +0.068 C 
ATOM     13  C   UNL     1       4.926   3.449   2.466  0.00  0.00    +0.061 C 
ATOM     14  H   UNL     1       4.484   4.587   0.051  0.00  0.00    +0.152 HD
ENDROOT
BRANCH   1  19
ATOM     15  C   UNL     1      -1.250   2.205   0.020  0.00  0.00    +0.086 C 
ATOM     16  C   UNL     1      -0.016   1.341   0.009  0.00  0.00    +0.102 A 
ATOM     17  C   UNL     1       0.002  -0.004   0.002  0.00  0.00    +0.044 A 
ATOM     18  C   UNL     1       1.361  -0.395  -0.013  0.00  0.00    +0.046 A 
ATOM     19  C   UNL     1       2.091   0.734  -0.014  0.00  0.00    +0.117 A 
ATOM     20  O   UNL     1       1.252   1.783  -0.000  0.00  0.00    -0.464 OA
ENDBRANCH   1  19
BRANCH   6  21
ATOM     21  C   UNL     1       3.637   0.998  -4.922  0.00  0.00    +0.318 C 
ATOM     22  O   UNL     1       2.927   1.726  -5.575  0.00  0.00    -0.250 OA
BRANCH  21  23
ATOM     23  O   UNL     1       3.720  -0.307  -5.223  0.00  0.00    -0.467 OA
ATOM     24  C   UNL     1       2.929  -0.775  -6.347  0.00  0.00    +0.280 C 
ENDBRANCH  21  23
ENDBRANCH   6  21
BRANCH  12  25
ATOM     25  C   UNL     1       4.085   0.792   2.440  0.00  0.00    +0.338 C 
ATOM     26  O   UNL     1       4.464   1.343   3.458  0.00  0.00    -0.245 OA
BRANCH  25  27
ATOM     27  O   UNL     1       3.682  -0.495   2.480  0.00  0.00    -0.458 OA
BRANCH  27  28
ATOM     28  C   UNL     1       3.726  -1.150   3.749  0.00  0.00    +0.177 C 
ATOM     29  C   UNL     1       5.080  -1.870   3.925  0.00  0.00    +0.044 C 
ATOM     30  C   UNL     1       4.719  -3.176   4.676  0.00  0.00    +0.004 C 
ATOM     31  C   UNL     1       3.367  -3.578   4.036  0.00  0.00    +0.004 C 
ATOM     32  C   UNL     1       2.638  -2.236   3.820  0.00  0.00    +0.044 C 
ENDBRANCH  27  28
ENDBRANCH  25  27
ENDBRANCH  12  25
TORSDOF 6
