REMARK  Name = ZINC22334822
REMARK  9 active torsions:
REMARK  status: ('A' for Active; 'I' for Inactive)
REMARK    1  A    between atoms: C_1  and  S_2
REMARK    2  A    between atoms: S_2  and  N_5
REMARK    3  A    between atoms: N_5  and  C_6
REMARK    4  A    between atoms: N_5  and  C_22
REMARK    5  A    between atoms: C_6  and  C_7
REMARK    6  A    between atoms: N_9  and  C_10
REMARK    7  A    between atoms: C_10  and  C_11
REMARK    8  A    between atoms: C_11  and  C_12
REMARK    9  A    between atoms: C_12  and  N_13
REMARK                            x       y       z     vdW  Elec       q    Type
REMARK                         _______ _______ _______ _____ _____    ______ ____
ROOT
ATOM      1  C   UNL     1       0.365   4.346   6.549  0.00  0.00    +0.232 C 
ATOM      2  O   UNL     1       1.535   4.072   6.712  0.00  0.00    -0.274 OA
ATOM      3  N   UNL     1      -0.284   3.906   5.453  0.00  0.00    -0.314 N 
ATOM      4  H   UNL     1      -1.345   4.155   5.305  0.00  0.00    +0.149 HD
ENDROOT
BRANCH   1   5
ATOM      5  C   UNL     1      -0.363   5.179   7.572  0.00  0.00    +0.226 C 
BRANCH   5   6
ATOM      6  N   UNL     1       0.555   5.529   8.659  0.00  0.00    -0.199 N 
BRANCH   6   7
ATOM      7  C   UNL     1       0.752   4.641   9.719  0.00  0.00    +0.054 A 
ATOM      8  C   UNL     1       2.017   4.123   9.966  0.00  0.00    +0.044 A 
ATOM      9  C   UNL     1       2.211   3.248  11.019  0.00  0.00    +0.044 A 
ATOM     10  C   UNL     1       1.144   2.880  11.820  0.00  0.00    +0.040 A 
ATOM     11  C   UNL     1      -0.118   3.390  11.572  0.00  0.00    +0.044 A 
ATOM     12  C   UNL     1      -0.317   4.270  10.524  0.00  0.00    +0.044 A 
ATOM     13 CL   UNL     1      -1.454   2.926  12.579  0.00  0.00    -0.083 Cl
ATOM     14 CL   UNL     1       3.793   2.606  11.333  0.00  0.00    -0.083 Cl
ENDBRANCH   6   7
BRANCH   6  16
ATOM     15  C   UNL     1       0.332   8.098   9.623  0.00  0.00    +0.218 C 
ATOM     16  S   UNL     1       1.358   6.977   8.632  0.00  0.00    +0.043 S 
ATOM     17  O   UNL     1       2.587   6.723   9.297  0.00  0.00    -0.155 OA
ATOM     18  O   UNL     1       1.340   7.375   7.268  0.00  0.00    -0.155 OA
ENDBRANCH   6  16
ENDBRANCH   5   6
ENDBRANCH   1   5
BRANCH   3  19
ATOM     19  C   UNL     1       0.424   3.097   4.458  0.00  0.00    +0.106 C 
BRANCH  19  20
ATOM     20  C   UNL     1      -0.534   2.732   3.322  0.00  0.00    +0.037 C 
BRANCH  20  21
ATOM     21  C   UNL     1       0.205   1.886   2.283  0.00  0.00    +0.106 C 
BRANCH  21  22
ATOM     22  N   UNL     1      -0.682   1.627   1.142  0.00  0.00    -0.329 N 
ATOM     23  C   UNL     1      -0.973   2.875   0.403  0.00  0.00    +0.110 C 
ATOM     24  C   UNL     1      -2.397   2.626  -0.144  0.00  0.00    +0.056 C 
ATOM     25  C   UNL     1      -2.965   1.623   0.840  0.00  0.00    -0.025 A 
ATOM     26  C   UNL     1      -1.906   1.085   1.562  0.00  0.00    +0.033 A 
ATOM     27  C   UNL     1      -2.171   0.135   2.547  0.00  0.00    +0.023 A 
ATOM     28  C   UNL     1      -3.467  -0.267   2.792  0.00  0.00    +0.002 A 
ATOM     29  C   UNL     1      -4.513   0.270   2.064  0.00  0.00    +0.000 A 
ATOM     30  C   UNL     1      -4.259   1.216   1.087  0.00  0.00    +0.005 A 
ENDBRANCH  21  22
ENDBRANCH  20  21
ENDBRANCH  19  20
ENDBRANCH   3  19
TORSDOF 8
