REMARK  Name = ZINC35955858
REMARK  15 active torsions:
REMARK  status: ('A' for Active; 'I' for Inactive)
REMARK    1  A    between atoms: C_1  and  C_2
REMARK    2  A    between atoms: C_6  and  C_7
REMARK    3  A    between atoms: C_9  and  O_17
REMARK    4  A    between atoms: C_10  and  O_15
REMARK    5  A    between atoms: C_11  and  O_13
REMARK    6  A    between atoms: O_13  and  C_14
REMARK    7  A    between atoms: O_15  and  C_16
REMARK    8  A    between atoms: O_17  and  C_18
REMARK    9  A    between atoms: C_22  and  C_28
REMARK   10  A    between atoms: C_30  and  O_38
REMARK   11  A    between atoms: C_31  and  O_36
REMARK   12  A    between atoms: C_32  and  O_34
REMARK   13  A    between atoms: O_34  and  C_35
REMARK   14  A    between atoms: O_36  and  C_37
REMARK   15  A    between atoms: O_38  and  C_39
REMARK                            x       y       z     vdW  Elec       q    Type
REMARK                         _______ _______ _______ _____ _____    ______ ____
ROOT
ATOM      1  C   UNL     1      -0.112   1.540  -0.100  0.00  0.00    +0.008 C 
ATOM      2  C   UNL     1      -0.230   0.022  -0.249  0.00  0.00    -0.009 C 
ATOM      3  C   UNL     1       0.694  -0.443  -1.363  0.00  0.00    +0.040 C 
ATOM      4  C   UNL     1       1.081  -1.879  -1.231  0.00  0.00    -0.027 C 
ATOM      5  C   UNL     1       1.860  -2.420  -2.203  0.00  0.00    +0.013 C 
ATOM      6  C   UNL     1       0.693  -2.702  -0.169  0.00  0.00    +0.027 C 
ATOM      7  C   UNL     1      -0.127  -2.147   0.969  0.00  0.00    +0.063 C 
ATOM      8  C   UNL     1       0.136  -0.642   1.076  0.00  0.00    +0.015 C 
ATOM      9  C   UNL     1       0.289  -2.830   2.274  0.00  0.00    +0.120 C 
ATOM     10  N   UNL     1       0.328  -4.280   2.062  0.00  0.00    -0.358 N 
ATOM     11  C   UNL     1       0.734  -4.783   0.853  0.00  0.00    +0.152 C 
ATOM     12  S   UNL     1       0.857  -6.426   0.653  0.00  0.00    -0.013 SA
ATOM     13  N   UNL     1       1.034  -3.974  -0.170  0.00  0.00    -0.339 N 
ATOM     14  H   UNL     1       1.515  -4.333  -0.931  0.00  0.00    +0.167 HD
ATOM     15  H   UNL     1       0.067  -4.883   2.775  0.00  0.00    +0.162 HD
ENDROOT
BRANCH   5  16
ATOM     16  C   UNL     1       2.430  -1.563  -3.248  0.00  0.00    -0.018 A 
ATOM     17  C   UNL     1       3.036  -0.347  -2.907  0.00  0.00    +0.057 A 
ATOM     18  C   UNL     1       3.571   0.457  -3.895  0.00  0.00    +0.166 A 
ATOM     19  C   UNL     1       3.508   0.060  -5.229  0.00  0.00    +0.204 A 
ATOM     20  C   UNL     1       2.905  -1.149  -5.572  0.00  0.00    +0.166 A 
ATOM     21  C   UNL     1       2.374  -1.961  -4.590  0.00  0.00    +0.057 A 
BRANCH  20  22
ATOM     22  O   UNL     1       2.846  -1.531  -6.876  0.00  0.00    -0.491 OA
ATOM     23  C   UNL     1       2.215  -2.782  -7.157  0.00  0.00    +0.277 C 
ENDBRANCH  20  22
BRANCH  19  24
ATOM     24  O   UNL     1       4.035   0.854  -6.197  0.00  0.00    -0.488 OA
ATOM     25  C   UNL     1       5.407   0.640  -6.536  0.00  0.00    +0.277 C 
ENDBRANCH  19  24
BRANCH  18  26
ATOM     26  O   UNL     1       4.159   1.637  -3.564  0.00  0.00    -0.491 OA
ATOM     27  C   UNL     1       4.188   1.982  -2.178  0.00  0.00    +0.277 C 
ENDBRANCH  18  26
ENDBRANCH   5  16
BRANCH   9  28
ATOM     28  C   UNL     1      -0.710  -2.503   3.355  0.00  0.00    -0.017 A 
ATOM     29  C   UNL     1      -1.905  -3.194   3.421  0.00  0.00    +0.055 A 
ATOM     30  C   UNL     1      -2.827  -2.896   4.413  0.00  0.00    +0.165 A 
ATOM     31  C   UNL     1      -2.547  -1.902   5.343  0.00  0.00    +0.204 A 
ATOM     32  C   UNL     1      -1.343  -1.210   5.274  0.00  0.00    +0.165 A 
ATOM     33  C   UNL     1      -0.425  -1.517   4.281  0.00  0.00    +0.055 A 
BRANCH  32  34
ATOM     34  O   UNL     1      -1.065  -0.236   6.181  0.00  0.00    -0.491 OA
ATOM     35  C   UNL     1       0.191   0.434   6.049  0.00  0.00    +0.277 C 
ENDBRANCH  32  34
BRANCH  31  36
ATOM     36  O   UNL     1      -3.449  -1.606   6.318  0.00  0.00    -0.488 OA
ATOM     37  C   UNL     1      -3.338  -2.330   7.545  0.00  0.00    +0.277 C 
ENDBRANCH  31  36
BRANCH  30  38
ATOM     38  O   UNL     1      -4.003  -3.576   4.476  0.00  0.00    -0.491 OA
ATOM     39  C   UNL     1      -4.223  -4.584   3.488  0.00  0.00    +0.277 C 
ENDBRANCH  30  38
ENDBRANCH   9  28
TORSDOF 8
