REMARK  Name = ZINC36217578
REMARK  12 active torsions:
REMARK  status: ('A' for Active; 'I' for Inactive)
REMARK    1  A    between atoms: C_1  and  C_2
REMARK    2  A    between atoms: C_6  and  C_8
REMARK    3  A    between atoms: C_8  and  N_9
REMARK    4  A    between atoms: C_10  and  C_30
REMARK    5  A    between atoms: C_12  and  C_17
REMARK    6  A    between atoms: C_20  and  N_23
REMARK    7  A    between atoms: C_24  and  C_26
REMARK    8  A    between atoms: C_26  and  C_27
REMARK    9  A    between atoms: C_27  and  C_28
REMARK   10  A    between atoms: C_27  and  C_29
REMARK   11  A    between atoms: N_32  and  C_33
REMARK   12  A    between atoms: C_33  and  C_34
REMARK                            x       y       z     vdW  Elec       q    Type
REMARK                         _______ _______ _______ _____ _____    ______ ____
ROOT
ATOM      1  N   UNL     1       1.478  -2.961   3.070  0.00  0.00    -0.248 N 
ATOM      2  C   UNL     1       2.210  -4.195   2.723  0.00  0.00    +0.210 C 
ATOM      3  C   UNL     1       3.684  -3.765   2.910  0.00  0.00    +0.238 C 
ATOM      4  O   UNL     1       3.562  -2.671   3.841  0.00  0.00    -0.440 OA
ATOM      5  C   UNL     1       2.341  -2.132   3.688  0.00  0.00    +0.405 C 
ATOM      6  O   UNL     1       2.045  -1.017   4.069  0.00  0.00    -0.226 OA
ENDROOT
BRANCH   3   7
ATOM      7  C   UNL     1       4.501  -4.885   3.500  0.00  0.00    -0.005 A 
ATOM      8  C   UNL     1       4.451  -5.135   4.859  0.00  0.00    +0.009 A 
ATOM      9  C   UNL     1       5.198  -6.161   5.402  0.00  0.00    +0.024 A 
ATOM     10  C   UNL     1       6.001  -6.943   4.582  0.00  0.00    +0.033 A 
ATOM     11  C   UNL     1       6.049  -6.690   3.217  0.00  0.00    +0.024 A 
ATOM     12  C   UNL     1       5.295  -5.665   2.680  0.00  0.00    +0.009 A 
BRANCH  10  13
ATOM     13  N   UNL     1       6.760  -7.983   5.130  0.00  0.00    -0.285 N 
ATOM     14  C   UNL     1       7.959  -8.295   4.598  0.00  0.00    +0.217 C 
ATOM     15  O   UNL     1       8.423  -7.614   3.708  0.00  0.00    -0.275 OA
ATOM     16  H   UNL     1       6.423  -8.481   5.891  0.00  0.00    +0.155 HD
BRANCH  14  17
ATOM     17  C   UNL     1       8.723  -9.489   5.110  0.00  0.00    +0.099 C 
BRANCH  17  18
ATOM     18  C   UNL     1      10.041  -9.617   4.344  0.00  0.00    -0.008 C 
ATOM     19  C   UNL     1      10.872 -10.753   4.945  0.00  0.00    +0.008 C 
ATOM     20  C   UNL     1       9.748  -9.924   2.873  0.00  0.00    +0.008 C 
ENDBRANCH  17  18
ENDBRANCH  14  17
ENDBRANCH  10  13
ENDBRANCH   3   7
BRANCH   2  21
ATOM     21  C   UNL     1       1.850  -5.315   3.665  0.00  0.00    +0.238 C 
ATOM     22  O   UNL     1       1.335  -5.066   4.735  0.00  0.00    -0.274 OA
ATOM     23  N   UNL     1       2.100  -6.593   3.319  0.00  0.00    -0.311 N 
ATOM     24  H   UNL     1       2.511  -6.793   2.463  0.00  0.00    +0.149 HD
BRANCH  23  25
ATOM     25  C   UNL     1       1.750  -7.682   4.235  0.00  0.00    +0.135 C 
BRANCH  25  26
ATOM     26  C   UNL     1       2.136  -9.022   3.605  0.00  0.00    +0.135 C 
ATOM     27  C   UNL     1       1.661 -10.181   4.508  0.00  0.00    +0.035 C 
ATOM     28  C   UNL     1       2.843 -11.184   4.404  0.00  0.00    +0.031 C 
ATOM     29  C   UNL     1       4.044 -10.213   4.284  0.00  0.00    +0.160 C 
ATOM     30  O   UNL     1       3.561  -9.114   3.493  0.00  0.00    -0.375 OA
ENDBRANCH  25  26
ENDBRANCH  23  25
ENDBRANCH   2  21
BRANCH   1  31
ATOM     31  C   UNL     1       0.067  -2.685   2.787  0.00  0.00    +0.147 C 
BRANCH  31  37
ATOM     32  C   UNL     1      -0.062   1.449  -0.031  0.00  0.00    +0.044 C 
ATOM     33  C   UNL     1      -0.118  -0.052   0.087  0.00  0.00    -0.050 A 
ATOM     34  C   UNL     1      -0.281  -0.829  -1.045  0.00  0.00    +0.003 A 
ATOM     35  C   UNL     1      -0.332  -2.206  -0.937  0.00  0.00    +0.001 A 
ATOM     36  C   UNL     1      -0.220  -2.807   0.304  0.00  0.00    +0.005 A 
ATOM     37  C   UNL     1      -0.055  -2.030   1.435  0.00  0.00    -0.030 A 
ATOM     38  C   UNL     1       0.000  -0.653   1.326  0.00  0.00    +0.008 A 
ENDBRANCH  31  37
ENDBRANCH   1  31
TORSDOF 9
