REMARK  Name = ZINC36207751
REMARK  16 active torsions:
REMARK  status: ('A' for Active; 'I' for Inactive)
REMARK    1  A    between atoms: C_1  and  O_2
REMARK    2  A    between atoms: O_2  and  C_3
REMARK    3  A    between atoms: C_6  and  C_11
REMARK    4  A    between atoms: C_8  and  O_9
REMARK    5  A    between atoms: O_9  and  C_10
REMARK    6  A    between atoms: C_20  and  C_22
REMARK    7  A    between atoms: C_22  and  N_23
REMARK    8  A    between atoms: N_23  and  C_24
REMARK    9  A    between atoms: N_23  and  C_27
REMARK   10  A    between atoms: C_24  and  C_25
REMARK   11  A    between atoms: C_27  and  C_28
REMARK   12  A    between atoms: C_28  and  C_30
REMARK   13  A    between atoms: C_28  and  O_35
REMARK   14  A    between atoms: C_30  and  O_31
REMARK   15  A    between atoms: O_31  and  C_32
REMARK   16  A    between atoms: C_32  and  C_33
REMARK                            x       y       z     vdW  Elec       q    Type
REMARK                         _______ _______ _______ _____ _____    ______ ____
ROOT
ATOM      1  C   UNL     1      -5.040  -3.990  -0.356  0.00  0.00    +0.004 A 
ATOM      2  C   UNL     1      -5.269  -5.274  -0.722  0.00  0.00    +0.056 A 
ATOM      3  S   UNL     1      -6.901  -5.600  -0.082  0.00  0.00    -0.076 S 
ATOM      4  C   UNL     1      -7.234  -4.021   0.654  0.00  0.00    +0.116 A 
ATOM      5  C   UNL     1      -6.070  -3.279   0.392  0.00  0.00    +0.080 A 
ATOM      6  C   UNL     1      -6.065  -1.937   0.890  0.00  0.00    +0.260 A 
ATOM      7  O   UNL     1      -5.101  -1.214   0.708  0.00  0.00    -0.267 OA
ATOM      8  N   UNL     1      -7.140  -1.487   1.562  0.00  0.00    -0.312 N 
ATOM      9  H   UNL     1      -7.142  -0.578   1.901  0.00  0.00    +0.170 HD
ATOM     10  C   UNL     1      -8.223  -2.278   1.773  0.00  0.00    +0.094 A 
ATOM     11  N   UNL     1      -8.261  -3.504   1.323  0.00  0.00    -0.229 NA
ENDROOT
BRANCH   1  15
ATOM     12  C   UNL     1      -1.377  -2.067  -1.357  0.00  0.00    +0.162 A 
ATOM     13  C   UNL     1      -2.585  -1.444  -1.631  0.00  0.00    +0.050 A 
ATOM     14  C   UNL     1      -3.774  -2.065  -1.307  0.00  0.00    +0.012 A 
ATOM     15  C   UNL     1      -3.763  -3.322  -0.705  0.00  0.00    -0.013 A 
ATOM     16  C   UNL     1      -2.549  -3.950  -0.430  0.00  0.00    +0.058 A 
ATOM     17  C   UNL     1      -1.360  -3.325  -0.761  0.00  0.00    +0.162 A 
BRANCH  12  19
ATOM     18  C   UNL     1      -0.299  -0.162  -2.287  0.00  0.00    +0.277 C 
ATOM     19  O   UNL     1      -0.208  -1.451  -1.678  0.00  0.00    -0.491 OA
ENDBRANCH  12  19
BRANCH  17  20
ATOM     20  O   UNL     1      -0.174  -3.937  -0.499  0.00  0.00    -0.491 OA
ATOM     21  C   UNL     1      -0.231  -5.226   0.115  0.00  0.00    +0.277 C 
ENDBRANCH  17  20
ENDBRANCH   1  15
BRANCH  10  22
ATOM     22  C   UNL     1      -9.405  -1.730   2.530  0.00  0.00    -0.003 C 
BRANCH  22  23
ATOM     23  N   UNL     1     -10.472  -2.739   2.569  0.00  0.00    +0.388 N 
ATOM     24  H   UNL     1     -10.665  -3.061   1.632  0.00  0.00    -0.081 HD
BRANCH  23  25
ATOM     25  C   UNL     1     -11.687  -2.144   3.142  0.00  0.00    -0.051 C 
BRANCH  25  26
ATOM     26  C   UNL     1     -12.154  -1.012   2.265  0.00  0.00    -0.053 C 
ATOM     27  C   UNL     1     -13.378  -1.007   1.797  0.00  0.00    +0.002 C 
ENDBRANCH  25  26
ENDBRANCH  23  25
BRANCH  23  28
ATOM     28  C   UNL     1     -10.044  -3.873   3.398  0.00  0.00    -0.044 C 
BRANCH  28  29
ATOM     29  C   UNL     1     -11.069  -5.003   3.286  0.00  0.00    +0.124 C 
BRANCH  29  30
ATOM     30  O   UNL     1     -12.286  -4.606   3.921  0.00  0.00    -0.391 OA
ATOM     31  H   UNL     1     -12.190  -4.401   4.861  0.00  0.00    +0.210 HD
ENDBRANCH  29  30
BRANCH  29  32
ATOM     32  C   UNL     1     -10.523  -6.258   3.969  0.00  0.00    +0.189 C 
BRANCH  32  33
ATOM     33  O   UNL     1     -11.428  -7.345   3.764  0.00  0.00    -0.373 OA
BRANCH  33  34
ATOM     34  C   UNL     1     -11.009  -8.572   4.365  0.00  0.00    +0.186 C 
BRANCH  34  35
ATOM     35  C   UNL     1     -12.032  -9.642   4.087  0.00  0.00    -0.007 C 
ATOM     36  C   UNL     1     -11.646 -10.834   3.703  0.00  0.00    +0.006 C 
ENDBRANCH  34  35
ENDBRANCH  33  34
ENDBRANCH  32  33
ENDBRANCH  29  32
ENDBRANCH  28  29
ENDBRANCH  23  28
ENDBRANCH  22  23
ENDBRANCH  10  22
TORSDOF 14
