REMARK  Name = ZINC03043759
REMARK  7 active torsions:
REMARK  status: ('A' for Active; 'I' for Inactive)
REMARK    1  A    between atoms: C_1  and  C_2
REMARK    2  A    between atoms: C_2  and  C_3
REMARK    3  A    between atoms: C_3  and  C_4
REMARK    4  A    between atoms: C_4  and  N_5
REMARK    5  A    between atoms: C_6  and  C_8
REMARK    6  A    between atoms: N_18  and  C_21
REMARK    7  A    between atoms: C_21  and  C_22
REMARK                            x       y       z     vdW  Elec       q    Type
REMARK                         _______ _______ _______ _____ _____    ______ ____
ROOT
ATOM      1  C   UNL     1      -4.827   0.719   6.036  0.00  0.00    +0.039 A 
ATOM      2  C   UNL     1      -5.282   1.899   5.440  0.00  0.00    +0.014 A 
ATOM      3  C   UNL     1      -4.931   2.202   4.143  0.00  0.00    +0.016 A 
ATOM      4  C   UNL     1      -4.118   1.327   3.426  0.00  0.00    +0.063 A 
ATOM      5  C   UNL     1      -3.657   0.140   4.020  0.00  0.00    +0.054 A 
ATOM      6  C   UNL     1      -4.014  -0.160   5.325  0.00  0.00    +0.039 A 
ATOM      7  N   UNL     1      -2.848  -0.708   3.277  0.00  0.00    -0.335 N 
ATOM      8  H   UNL     1      -2.510  -1.554   3.688  0.00  0.00    +0.168 HD
ATOM      9  C   UNL     1      -2.516  -0.404   2.011  0.00  0.00    +0.161 A 
ATOM     10  S   UNL     1      -1.521  -1.493   1.141  0.00  0.00    -0.013 S 
ATOM     11  N   UNL     1      -2.926   0.719   1.400  0.00  0.00    -0.284 N 
ATOM     12  C   UNL     1      -3.716   1.612   2.034  0.00  0.00    +0.263 A 
ATOM     13  O   UNL     1      -4.087   2.624   1.472  0.00  0.00    -0.267 OA
ENDROOT
BRANCH   1  15
ATOM     14  N   UNL     1      -5.998   1.251   8.122  0.00  0.00    -0.311 N 
ATOM     15  C   UNL     1      -5.211   0.403   7.431  0.00  0.00    +0.244 C 
ATOM     16  O   UNL     1      -4.816  -0.622   7.952  0.00  0.00    -0.270 OA
ATOM     17  H   UNL     1      -6.313   2.069   7.706  0.00  0.00    +0.149 HD
BRANCH  14  18
ATOM     18  C   UNL     1      -6.378   0.938   9.502  0.00  0.00    +0.104 C 
BRANCH  18  19
ATOM     19  C   UNL     1      -7.266   2.055  10.053  0.00  0.00    +0.018 C 
BRANCH  19  21
ATOM     20  C   UNL     1      -8.552   2.845  12.044  0.00  0.00    +0.004 C 
ATOM     21  C   UNL     1      -7.663   1.728  11.494  0.00  0.00    -0.002 C 
ENDBRANCH  19  21
ENDBRANCH  18  19
ENDBRANCH  14  18
ENDBRANCH   1  15
BRANCH  11  22
ATOM     22  C   UNL     1      -2.513   0.977   0.019  0.00  0.00    +0.162 C 
BRANCH  22  23
ATOM     23  C   UNL     1      -1.219   1.750   0.017  0.00  0.00    -0.024 A 
ATOM     24  C   UNL     1      -1.242   3.133   0.033  0.00  0.00    +0.009 A 
ATOM     25  C   UNL     1      -0.058   3.846   0.024  0.00  0.00    +0.050 A 
ATOM     26  C   UNL     1       1.155   3.177   0.008  0.00  0.00    +0.166 A 
ATOM     27  C   UNL     1       1.178   1.784   0.000  0.00  0.00    +0.167 A 
ATOM     28  C   UNL     1      -0.013   1.076   0.008  0.00  0.00    +0.055 A 
ATOM     29  O   UNL     1       2.478   1.369  -0.015  0.00  0.00    -0.453 OA
ATOM     30  C   UNL     1       3.243   2.517  -0.428  0.00  0.00    +0.466 C 
ATOM     31  O   UNL     1       2.441   3.634  -0.002  0.00  0.00    -0.453 OA
ENDBRANCH  22  23
ENDBRANCH  11  22
TORSDOF 6
