REMARK  Name = ZINC09336047
REMARK  6 active torsions:
REMARK  status: ('A' for Active; 'I' for Inactive)
REMARK    1  A    between atoms: C_1  and  C_2
REMARK    2  A    between atoms: N_11  and  C_15
REMARK    3  A    between atoms: C_15  and  C_16
REMARK    4  A    between atoms: C_18  and  C_21
REMARK    5  A    between atoms: C_26  and  O_27
REMARK    6  A    between atoms: O_27  and  C_28
REMARK                            x       y       z     vdW  Elec       q    Type
REMARK                         _______ _______ _______ _____ _____    ______ ____
ROOT
ATOM      1  C   UNL     1       2.721  -5.197  -2.621  0.00  0.00    +0.010 C 
ATOM      2  C   UNL     1       1.921  -4.541  -3.748  0.00  0.00    +0.018 C 
ATOM      3  C   UNL     1       0.528  -5.171  -3.818  0.00  0.00    +0.006 C 
ATOM      4  C   UNL     1      -0.278  -4.501  -4.932  0.00  0.00    +0.000 C 
ATOM      5  C   UNL     1      -0.419  -3.007  -4.632  0.00  0.00    +0.003 C 
ATOM      6  C   UNL     1       0.971  -2.368  -4.566  0.00  0.00    +0.035 C 
ATOM      7  C   UNL     1       1.793  -3.046  -3.476  0.00  0.00    +0.115 C 
ATOM      8  C   UNL     1       1.173  -2.812  -2.118  0.00  0.00    +0.247 C 
ATOM      9  O   UNL     1       0.073  -3.159  -1.744  0.00  0.00    -0.273 OA
ATOM     10  N   UNL     1       2.101  -2.135  -1.410  0.00  0.00    -0.217 N 
ATOM     11  C   UNL     1       3.209  -1.920  -2.129  0.00  0.00    +0.310 C 
ATOM     12  O   UNL     1       4.186  -1.334  -1.706  0.00  0.00    -0.252 OA
ATOM     13  N   UNL     1       3.121  -2.427  -3.373  0.00  0.00    -0.285 N 
ATOM     14  H   UNL     1       3.800  -2.390  -4.065  0.00  0.00    +0.151 HD
ENDROOT
BRANCH  10  15
ATOM     15  C   UNL     1       1.919  -1.694  -0.025  0.00  0.00    +0.195 C 
BRANCH  15  16
ATOM     16  C   UNL     1       1.319  -0.312  -0.012  0.00  0.00    +0.156 A 
ATOM     17  C   UNL     1       0.002  -0.004   0.002  0.00  0.00    +0.077 A 
ATOM     18  C   UNL     1      -0.017   1.419   0.010  0.00  0.00    +0.117 A 
ATOM     19  N   UNL     1       1.236   1.800  -0.000  0.00  0.00    -0.078 NA
ATOM     20  O   UNL     1       1.986   0.851  -0.012  0.00  0.00    -0.357 OA
BRANCH  18  21
ATOM     21  C   UNL     1      -1.215   2.294   0.021  0.00  0.00    +0.045 A 
ATOM     22  C   UNL     1      -2.491   1.735   0.018  0.00  0.00    +0.014 A 
ATOM     23  C   UNL     1      -3.601   2.553   0.033  0.00  0.00    +0.001 A 
ATOM     24  C   UNL     1      -3.453   3.929   0.040  0.00  0.00    +0.004 A 
ATOM     25  C   UNL     1      -2.193   4.495   0.037  0.00  0.00    +0.046 A 
ATOM     26  C   UNL     1      -1.068   3.685   0.027  0.00  0.00    +0.129 A 
BRANCH  26  27
ATOM     27  O   UNL     1       0.171   4.239   0.025  0.00  0.00    -0.494 OA
ATOM     28  C   UNL     1       0.243   5.667   0.033  0.00  0.00    +0.277 C 
ENDBRANCH  26  27
ENDBRANCH  18  21
ENDBRANCH  15  16
ENDBRANCH  10  15
TORSDOF 4
