REMARK  Name = ZINC63655787
REMARK  5 active torsions:
REMARK  status: ('A' for Active; 'I' for Inactive)
REMARK    1  A    between atoms: C_7  and  C_10
REMARK    2  A    between atoms: C_10  and  C_11
REMARK    3  A    between atoms: C_11  and  N_12
REMARK    4  A    between atoms: C_13  and  C_15
REMARK    5  A    between atoms: N_20  and  C_22
REMARK                            x       y       z     vdW  Elec       q    Type
REMARK                         _______ _______ _______ _____ _____    ______ ____
ROOT
ATOM      1  N   UNL     1      -0.458  -4.798  -1.460  0.00  0.00    -0.315 N 
ATOM      2  C   UNL     1      -0.811  -5.380  -2.623  0.00  0.00    +0.217 C 
ATOM      3  O   UNL     1      -0.371  -4.957  -3.671  0.00  0.00    -0.275 OA
ATOM      4  H   UNL     1      -0.810  -5.136  -0.622  0.00  0.00    +0.149 HD
ENDROOT
BRANCH   2   5
ATOM      5  C   UNL     1      -1.752  -6.557  -2.622  0.00  0.00    +0.089 C 
ATOM      6  C   UNL     1      -3.087  -6.143  -1.998  0.00  0.00    +0.015 C 
ATOM      7  C   UNL     1      -4.057  -7.327  -2.055  0.00  0.00    +0.016 C 
ATOM      8  C   UNL     1      -4.227  -7.771  -3.509  0.00  0.00    +0.087 C 
ATOM      9  N   UNL     1      -2.922  -8.158  -4.060  0.00  0.00    -0.275 NA
ATOM     10  C   UNL     1      -1.988  -7.025  -4.060  0.00  0.00    +0.099 C 
BRANCH   9  11
ATOM     11  C   UNL     1      -3.066  -8.721  -5.410  0.00  0.00    +0.208 C 
ATOM     12  N   UNL     1      -1.781  -9.229  -5.910  0.00  0.00    -0.318 N 
ATOM     13  C   UNL     1      -1.257  -8.634  -7.054  0.00  0.00    +0.061 A 
ATOM     14  C   UNL     1      -0.047  -8.979  -7.683  0.00  0.00    +0.027 A 
ATOM     15  C   UNL     1       0.349  -8.299  -8.818  0.00  0.00    +0.022 A 
ATOM     16  C   UNL     1      -0.438  -7.288  -9.331  0.00  0.00    +0.112 A 
ATOM     17  N   UNL     1      -1.574  -6.970  -8.734  0.00  0.00    -0.247 NA
ATOM     18  C   UNL     1      -1.982  -7.595  -7.653  0.00  0.00    +0.121 A 
ATOM     19  S   UNL     1      -3.433  -7.405  -6.639  0.00  0.00    -0.066 S 
ATOM     20  H   UNL     1      -1.316  -9.951  -5.460  0.00  0.00    +0.148 HD
ENDBRANCH   9  11
ENDBRANCH   2   5
BRANCH   1  21
ATOM     21  C   UNL     1       0.457  -3.653  -1.462  0.00  0.00    +0.108 C 
BRANCH  21  22
ATOM     22  C   UNL     1       0.691  -3.186  -0.024  0.00  0.00    +0.052 C 
BRANCH  22  29
ATOM     23  C   UNL     1      -0.016   1.348   0.009  0.00  0.00    +0.001 A 
ATOM     24  C   UNL     1       1.166   2.101   0.002  0.00  0.00    +0.002 A 
ATOM     25  C   UNL     1       2.391   1.535  -0.013  0.00  0.00    +0.026 A 
ATOM     26  C   UNL     1       2.529   0.120  -0.022  0.00  0.00    +0.043 A 
ATOM     27  N   UNL     1       3.587  -0.654  -0.037  0.00  0.00    -0.380 N 
ATOM     28  C   UNL     1       3.143  -2.053  -0.041  0.00  0.00    +0.144 C 
ATOM     29  C   UNL     1       1.631  -2.008  -0.025  0.00  0.00    -0.040 C 
ATOM     30  C   UNL     1       1.295  -0.698  -0.014  0.00  0.00    -0.001 A 
ATOM     31  C   UNL     1       0.002  -0.004   0.002  0.00  0.00    +0.010 A 
ATOM     32  H   UNL     1       4.509  -0.353  -0.045  0.00  0.00    +0.160 HD
ENDBRANCH  22  29
ENDBRANCH  21  22
ENDBRANCH   1  21
TORSDOF 5
