REMARK  Name = ZINC67065070
REMARK  9 active torsions:
REMARK  status: ('A' for Active; 'I' for Inactive)
REMARK    1  A    between atoms: C_1  and  C_2
REMARK    2  A    between atoms: C_2  and  C_3
REMARK    3  A    between atoms: C_3  and  C_5
REMARK    4  A    between atoms: C_3  and  N_15
REMARK    5  A    between atoms: N_18  and  C_19
REMARK    6  A    between atoms: C_19  and  C_20
REMARK    7  A    between atoms: C_20  and  C_21
REMARK    8  A    between atoms: C_20  and  C_22
REMARK    9  A    between atoms: C_20  and  C_23
REMARK                            x       y       z     vdW  Elec       q    Type
REMARK                         _______ _______ _______ _____ _____    ______ ____
ROOT
ATOM      1  C   UNL     1       0.718  -0.497  -1.257  0.00  0.00    +0.140 C 
ENDROOT
BRANCH   1   2
ATOM      2  C   UNL     1       0.847  -1.998  -1.206  0.00  0.00    +0.129 A 
ATOM      3  N   UNL     1       0.413  -2.851  -2.172  0.00  0.00    -0.340 N 
ATOM      4  H   UNL     1      -0.027  -2.605  -3.001  0.00  0.00    +0.167 HD
ATOM      5  C   UNL     1       0.714  -4.132  -1.755  0.00  0.00    +0.066 A 
ATOM      6  C   UNL     1       0.523  -5.396  -2.298  0.00  0.00    +0.028 A 
ATOM      7  C   UNL     1       0.953  -6.508  -1.606  0.00  0.00    +0.002 A 
ATOM      8  C   UNL     1       1.572  -6.372  -0.372  0.00  0.00    +0.002 A 
ATOM      9  C   UNL     1       1.768  -5.137   0.178  0.00  0.00    +0.030 A 
ATOM     10  C   UNL     1       1.342  -3.995  -0.506  0.00  0.00    +0.089 A 
ATOM     11  N   UNL     1       1.396  -2.666  -0.233  0.00  0.00    -0.231 NA
ENDBRANCH   1   2
BRANCH   1  12
ATOM     12  N   UNL     1      -0.055  -0.114  -2.441  0.00  0.00    -0.290 N 
ATOM     13  C   UNL     1       0.107   1.109  -2.984  0.00  0.00    +0.300 C 
ATOM     14  O   UNL     1       0.895   1.893  -2.492  0.00  0.00    -0.253 OA
ATOM     15  N   UNL     1      -0.604   1.462  -4.073  0.00  0.00    -0.299 N 
ATOM     16  H   UNL     1      -0.683  -0.740  -2.833  0.00  0.00    +0.151 HD
ATOM     17  H   UNL     1      -1.233   0.836  -4.466  0.00  0.00    +0.150 HD
BRANCH  15  18
ATOM     18  C   UNL     1      -0.428   2.791  -4.664  0.00  0.00    +0.111 C 
BRANCH  18  19
ATOM     19  C   UNL     1      -1.346   2.934  -5.880  0.00  0.00    -0.022 C 
ATOM     20  C   UNL     1      -2.802   2.759  -5.443  0.00  0.00    +0.012 C 
ATOM     21  C   UNL     1      -1.162   4.322  -6.497  0.00  0.00    +0.012 C 
ATOM     22  C   UNL     1      -0.992   1.865  -6.915  0.00  0.00    +0.012 C 
ENDBRANCH  18  19
ENDBRANCH  15  18
ENDBRANCH   1  12
BRANCH   1  24
ATOM     23  C   UNL     1      -0.019   1.526   0.010  0.00  0.00    +0.006 C 
ATOM     24  C   UNL     1       0.002  -0.004   0.002  0.00  0.00    +0.027 C 
ENDBRANCH   1  24
TORSDOF 5
