REMARK  Name = ZINC19360356
REMARK  12 active torsions:
REMARK  status: ('A' for Active; 'I' for Inactive)
REMARK    1  A    between atoms: C_1  and  C_2
REMARK    2  A    between atoms: C_6  and  C_33
REMARK    3  A    between atoms: C_9  and  O_11
REMARK    4  A    between atoms: O_11  and  C_12
REMARK    5  A    between atoms: C_12  and  C_13
REMARK    6  A    between atoms: C_13  and  C_15
REMARK    7  A    between atoms: C_13  and  O_32
REMARK    8  A    between atoms: C_15  and  N_16
REMARK    9  A    between atoms: N_19  and  C_22
REMARK   10  A    between atoms: C_22  and  C_23
REMARK   11  A    between atoms: C_33  and  C_34
REMARK   12  A    between atoms: C_33  and  C_35
REMARK                            x       y       z     vdW  Elec       q    Type
REMARK                         _______ _______ _______ _____ _____    ______ ____
ROOT
ATOM      1  N   UNL     1       5.495  -3.884   2.076  0.00  0.00    -0.303 NA
ATOM      2  C   UNL     1       6.449  -4.976   1.837  0.00  0.00    +0.066 C 
ATOM      3  C   UNL     1       7.185  -5.299   3.139  0.00  0.00    -0.063 C 
ATOM      4  N   UNL     1       6.209  -5.673   4.172  0.00  0.00    +0.384 N 
ATOM      5  C   UNL     1       5.255  -4.581   4.410  0.00  0.00    -0.063 C 
ATOM      6  C   UNL     1       4.518  -4.257   3.108  0.00  0.00    +0.066 C 
ATOM      7  H   UNL     1       5.644  -6.543   3.807  0.00  0.00    -0.081 HD
ENDROOT
BRANCH   1   8
ATOM      8  C   UNL     1       4.821  -3.493   0.830  0.00  0.00    +0.117 C 
BRANCH   8   9
ATOM      9  C   UNL     1       4.231  -2.090   0.989  0.00  0.00    +0.154 C 
BRANCH   9  10
ATOM     10  O   UNL     1       5.281  -1.160   1.263  0.00  0.00    -0.388 OA
ATOM     11  H   UNL     1       5.908  -1.287   2.157  0.00  0.00    +0.210 HD
ENDBRANCH   9  10
BRANCH   9  12
ATOM     12  C   UNL     1       3.518  -1.688  -0.304  0.00  0.00    +0.192 C 
BRANCH  12  13
ATOM     13  O   UNL     1       2.868  -0.429  -0.117  0.00  0.00    -0.374 OA
BRANCH  13  20
ATOM     14  C   UNL     1       3.606   2.084  -1.312  0.00  0.00    +0.010 C 
ATOM     15  C   UNL     1       2.165   1.571  -1.278  0.00  0.00    +0.015 C 
ATOM     16  C   UNL     1       1.470   2.085  -0.016  0.00  0.00    +0.006 C 
ATOM     17  C   UNL     1       0.029   1.572   0.018  0.00  0.00    +0.004 C 
ATOM     18  C   UNL     1       0.032   0.042   0.025  0.00  0.00    -0.006 C 
ATOM     19  C   UNL     1       0.727  -0.472  -1.238  0.00  0.00    +0.035 C 
ATOM     20  C   UNL     1       2.168   0.041  -1.271  0.00  0.00    +0.121 C 
BRANCH  18  21
ATOM     21  C   UNL     1      -1.409  -0.471   0.059  0.00  0.00    -0.014 C 
ATOM     22  C   UNL     1      -1.406  -2.001   0.066  0.00  0.00    +0.007 C 
ATOM     23  C   UNL     1      -2.104   0.044   1.321  0.00  0.00    +0.007 C 
ENDBRANCH  18  21
ENDBRANCH  13  20
ENDBRANCH  12  13
ENDBRANCH   9  12
ENDBRANCH   8   9
ENDBRANCH   1   8
BRANCH   4  24
ATOM     24  C   UNL     1       6.883  -6.064   5.417  0.00  0.00    -0.043 C 
BRANCH  24  25
ATOM     25  C   UNL     1       8.018  -7.004   5.100  0.00  0.00    -0.060 A 
ATOM     26  C   UNL     1       7.796  -8.368   5.070  0.00  0.00    +0.005 A 
ATOM     27  C   UNL     1       8.832  -9.233   4.774  0.00  0.00    +0.050 A 
ATOM     28  C   UNL     1      10.100  -8.736   4.519  0.00  0.00    +0.166 A 
ATOM     29  C   UNL     1      10.325  -7.362   4.556  0.00  0.00    +0.166 A 
ATOM     30  C   UNL     1       9.280  -6.500   4.847  0.00  0.00    +0.051 A 
ATOM     31  O   UNL     1      11.639  -7.127   4.273  0.00  0.00    -0.453 OA
ATOM     32  C   UNL     1      12.305  -8.389   4.466  0.00  0.00    +0.466 C 
ATOM     33  O   UNL     1      11.274  -9.362   4.214  0.00  0.00    -0.453 OA
ENDBRANCH  24  25
ENDBRANCH   4  24
TORSDOF 9
