REMARK  Name = ZINC34765357
REMARK  10 active torsions:
REMARK  status: ('A' for Active; 'I' for Inactive)
REMARK    1  A    between atoms: C_1  and  C_2
REMARK    2  A    between atoms: C_3  and  C_21
REMARK    3  A    between atoms: C_4  and  S_19
REMARK    4  A    between atoms: C_6  and  C_8
REMARK    5  A    between atoms: C_11  and  O_14
REMARK    6  A    between atoms: O_14  and  C_15
REMARK    7  A    between atoms: C_15  and  C_16
REMARK    8  A    between atoms: C_16  and  C_17
REMARK    9  A    between atoms: C_16  and  C_18
REMARK   10  A    between atoms: S_19  and  C_20
REMARK                            x       y       z     vdW  Elec       q    Type
REMARK                         _______ _______ _______ _____ _____    ______ ____
ROOT
ATOM      1  C   UNL     1      -0.018   1.503   0.010  0.00  0.00    +0.067 C 
ATOM      2  C   UNL     1       0.002  -0.004   0.002  0.00  0.00    +0.061 A 
ATOM      3  C   UNL     1       0.006  -0.706  -1.208  0.00  0.00    +0.104 A 
ATOM      4  C   UNL     1       0.026  -2.118  -1.160  0.00  0.00    +0.118 A 
ATOM      5  N   UNL     1       0.040  -2.718   0.025  0.00  0.00    -0.220 NA
ATOM      6  C   UNL     1       0.035  -2.008   1.145  0.00  0.00    +0.161 A 
ATOM      7  N   UNL     1       0.022  -0.679   1.137  0.00  0.00    -0.231 NA
ENDROOT
BRANCH   6   8
ATOM      8  C   UNL     1       0.052  -2.717   2.445  0.00  0.00    +0.019 A 
ATOM      9  C   UNL     1       0.041  -1.992   3.637  0.00  0.00    +0.015 A 
ATOM     10  C   UNL     1       0.056  -2.655   4.845  0.00  0.00    +0.046 A 
ATOM     11  C   UNL     1       0.081  -4.044   4.876  0.00  0.00    +0.121 A 
ATOM     12  C   UNL     1       0.092  -4.768   3.691  0.00  0.00    +0.046 A 
ATOM     13  C   UNL     1       0.071  -4.112   2.480  0.00  0.00    +0.015 A 
BRANCH  11  14
ATOM     14  O   UNL     1       0.096  -4.694   6.068  0.00  0.00    -0.492 OA
BRANCH  14  15
ATOM     15  C   UNL     1       0.122  -6.122   6.028  0.00  0.00    +0.232 C 
BRANCH  15  16
ATOM     16  C   UNL     1       0.135  -6.673   7.455  0.00  0.00    +0.020 C 
ATOM     17  C   UNL     1       0.037  -8.199   7.414  0.00  0.00    +0.010 C 
ATOM     18  C   UNL     1       1.437  -6.264   8.147  0.00  0.00    +0.010 C 
ENDBRANCH  15  16
ENDBRANCH  14  15
ENDBRANCH  11  14
ENDBRANCH   6   8
BRANCH   4  19
ATOM     19  S   UNL     1       0.031  -3.066  -2.645  0.00  0.00    -0.108 S 
ATOM     20  C   UNL     1       0.058  -4.786  -2.068  0.00  0.00    +0.091 C 
ENDBRANCH   4  19
BRANCH   3  21
ATOM     21  C   UNL     1      -0.010  -0.013  -2.461  0.00  0.00    +0.104 C 
ATOM     22  N   UNL     1      -0.023   0.536  -3.455  0.00  0.00    -0.191 NA
ENDBRANCH   3  21
TORSDOF 6
