REMARK  Name = ZINC16033233
REMARK  6 active torsions:
REMARK  status: ('A' for Active; 'I' for Inactive)
REMARK    1  A    between atoms: C_1  and  C_2
REMARK    2  A    between atoms: C_2  and  C_3
REMARK    3  A    between atoms: C_2  and  C_4
REMARK    4  A    between atoms: C_4  and  C_5
REMARK    5  A    between atoms: N_13  and  C_16
REMARK    6  A    between atoms: C_16  and  C_17
REMARK                            x       y       z     vdW  Elec       q    Type
REMARK                         _______ _______ _______ _____ _____    ______ ____
ROOT
ATOM      1  C   UNL     1       2.230  -0.292  -1.091  0.00  0.00    -0.057 C 
ATOM      2  C   UNL     1       2.987  -0.859  -2.311  0.00  0.00    +0.073 C 
ATOM      3  C   UNL     1       4.068   0.208  -2.641  0.00  0.00    +0.088 C 
ATOM      4  C   UNL     1       3.653   0.713  -4.004  0.00  0.00    +0.225 C 
ATOM      5  O   UNL     1       4.235   1.562  -4.644  0.00  0.00    -0.275 OA
ATOM      6  N   UNL     1       2.542   0.077  -4.395  0.00  0.00    -0.238 N 
ATOM      7  C   UNL     1       2.076  -0.839  -3.517  0.00  0.00    +0.224 C 
ATOM      8  O   UNL     1       1.091  -1.532  -3.662  0.00  0.00    -0.275 OA
ATOM      9  C   UNL     1       3.865   1.302  -1.586  0.00  0.00    +0.050 C 
ATOM     10  N   UNL     1       2.455   1.177  -1.147  0.00  0.00    +0.394 N 
ATOM     11  C   UNL     1       4.138   2.668  -2.146  0.00  0.00    -0.026 A 
ATOM     12  C   UNL     1       3.596   3.393  -3.184  0.00  0.00    +0.024 A 
ATOM     13  C   UNL     1       4.072   4.662  -3.466  0.00  0.00    +0.041 A 
ATOM     14  C   UNL     1       5.093   5.200  -2.702  0.00  0.00    +0.022 A 
ATOM     15  C   UNL     1       5.638   4.477  -1.661  0.00  0.00    +0.025 A 
ATOM     16  C   UNL     1       5.164   3.200  -1.371  0.00  0.00    +0.036 A 
ATOM     17  N   UNL     1       5.546   2.287  -0.384  0.00  0.00    -0.286 N 
ATOM     18  C   UNL     1       4.831   1.147  -0.443  0.00  0.00    +0.211 C 
ATOM     19  O   UNL     1       4.944   0.184   0.285  0.00  0.00    -0.277 OA
ATOM     20 CL   UNL     1       3.390   5.577  -4.775  0.00  0.00    -0.084 Cl
ATOM     21  H   UNL     1       1.829   1.605  -1.814  0.00  0.00    -0.083 HD
ATOM     22  H   UNL     1       6.245   2.455   0.267  0.00  0.00    +0.155 HD
ATOM     23  H   UNL     1       2.334   1.589  -0.234  0.00  0.00    -0.083 HD
ENDROOT
BRANCH   1  24
ATOM     24  C   UNL     1       0.737  -0.607  -1.197  0.00  0.00    -0.012 C 
BRANCH  24  26
ATOM     25  C   UNL     1      -1.496  -0.251  -0.135  0.00  0.00    +0.007 C 
ATOM     26  C   UNL     1       0.012  -0.065   0.037  0.00  0.00    -0.019 C 
ATOM     27  C   UNL     1       0.481  -0.826   1.279  0.00  0.00    +0.007 C 
ENDBRANCH  24  26
ENDBRANCH   1  24
BRANCH   6  28
ATOM     28  C   UNL     1       1.885   0.346  -5.676  0.00  0.00    +0.143 C 
BRANCH  28  29
ATOM     29  C   UNL     1       2.452  -0.566  -6.733  0.00  0.00    -0.015 C 
ATOM     30  C   UNL     1       1.653  -1.331  -7.435  0.00  0.00    +0.005 C 
ENDBRANCH  28  29
ENDBRANCH   6  28
TORSDOF 4
