REMARK  Name = ZINC20745952
REMARK  9 active torsions:
REMARK  status: ('A' for Active; 'I' for Inactive)
REMARK    1  A    between atoms: C_1  and  O_2
REMARK    2  A    between atoms: O_2  and  C_3
REMARK    3  A    between atoms: C_3  and  C_5
REMARK    4  A    between atoms: C_5  and  C_7
REMARK    5  A    between atoms: C_5  and  N_11
REMARK    6  A    between atoms: C_7  and  C_8
REMARK    7  A    between atoms: C_8  and  S_9
REMARK    8  A    between atoms: S_9  and  C_10
REMARK    9  A    between atoms: C_23  and  C_25
REMARK                            x       y       z     vdW  Elec       q    Type
REMARK                         _______ _______ _______ _____ _____    ______ ____
ROOT
ATOM      1  N   UNL     1      -2.689  -2.357   2.447  0.00  0.00    -0.286 N 
ATOM      2  C   UNL     1      -3.263  -2.656   1.264  0.00  0.00    +0.304 C 
ATOM      3  O   UNL     1      -2.655  -2.465   0.228  0.00  0.00    -0.253 OA
ATOM      4  N   UNL     1      -4.509  -3.166   1.229  0.00  0.00    -0.273 N 
ATOM      5  C   UNL     1      -5.109  -3.607  -0.039  0.00  0.00    +0.116 C 
ATOM      6  C   UNL     1      -6.324  -2.726  -0.355  0.00  0.00    +0.076 C 
ATOM      7  C   UNL     1      -7.153  -2.573   0.896  0.00  0.00    +0.066 A 
ATOM      8  C   UNL     1      -6.703  -2.822   2.144  0.00  0.00    +0.064 A 
ATOM      9  N   UNL     1      -7.728  -2.569   3.001  0.00  0.00    -0.346 N 
ATOM     10  H   UNL     1      -7.708  -2.655   3.967  0.00  0.00    +0.167 HD
ATOM     11  C   UNL     1      -8.782  -2.174   2.250  0.00  0.00    +0.197 A 
ATOM     12  N   UNL     1      -8.428  -2.181   0.992  0.00  0.00    -0.240 NA
ATOM     13  C   UNL     1      -5.305  -3.304   2.463  0.00  0.00    +0.159 C 
ATOM     14  H   UNL     1      -3.198  -2.444   3.268  0.00  0.00    +0.151 HD
ENDROOT
BRANCH  13  15
ATOM     15  C   UNL     1      -5.340  -4.748   2.893  0.00  0.00    +0.017 A 
ATOM     16  C   UNL     1      -6.466  -5.513   2.653  0.00  0.00    +0.047 A 
ATOM     17  C   UNL     1      -6.499  -6.839   3.047  0.00  0.00    +0.124 A 
ATOM     18  C   UNL     1      -5.403  -7.400   3.682  0.00  0.00    +0.041 A 
ATOM     19  C   UNL     1      -4.278  -6.635   3.922  0.00  0.00    +0.041 A 
ATOM     20  C   UNL     1      -4.243  -5.309   3.523  0.00  0.00    +0.129 A 
ATOM     21  F   UNL     1      -3.141  -4.563   3.753  0.00  0.00    -0.205 F 
ATOM     22  F   UNL     1      -7.599  -7.587   2.813  0.00  0.00    -0.205 F 
ENDBRANCH  13  15
BRANCH   1  23
ATOM     23  C   UNL     1      -1.298  -1.900   2.492  0.00  0.00    +0.184 C 
BRANCH  23  24
ATOM     24  C   UNL     1      -0.378  -3.094   2.512  0.00  0.00    +0.327 C 
ATOM     25  O   UNL     1      -0.838  -4.211   2.490  0.00  0.00    -0.249 OA
BRANCH  24  27
ATOM     26  C   UNL     1       1.763  -4.091   2.570  0.00  0.00    +0.280 C 
ATOM     27  O   UNL     1       0.952  -2.915   2.553  0.00  0.00    -0.467 OA
ENDBRANCH  24  27
ENDBRANCH  23  24
BRANCH  23  28
ATOM     28  C   UNL     1      -1.076  -1.064   3.754  0.00  0.00    +0.044 C 
BRANCH  28  29
ATOM     29  C   UNL     1      -1.918   0.211   3.675  0.00  0.00    +0.071 C 
BRANCH  29  30
ATOM     30  S   UNL     1      -1.655   1.202   5.171  0.00  0.00    -0.164 S 
ATOM     31  C   UNL     1      -2.709   2.658   4.925  0.00  0.00    +0.084 C 
ENDBRANCH  29  30
ENDBRANCH  28  29
ENDBRANCH  23  28
ENDBRANCH   1  23
TORSDOF 7
