REMARK  Name = ZINC00627849
REMARK  3 active torsions:
REMARK  status: ('A' for Active; 'I' for Inactive)
REMARK    1  A    between atoms: C_1  and  C_2
REMARK    2  A    between atoms: C_7  and  C_16
REMARK    3  A    between atoms: C_21  and  O_22
REMARK                            x       y       z     vdW  Elec       q    Type
REMARK                         _______ _______ _______ _____ _____    ______ ____
ROOT
ATOM      1  C   UNL     1      -0.018   1.503   0.010  0.00  0.00    +0.067 C 
ATOM      2  C   UNL     1       0.002  -0.004   0.002  0.00  0.00    +0.061 A 
ATOM      3  C   UNL     1       0.008  -0.814  -1.140  0.00  0.00    +0.052 A 
ATOM      4  C   UNL     1       0.025  -2.100  -0.730  0.00  0.00    +0.073 A 
ATOM      5  N   UNL     1       0.039  -2.100   0.647  0.00  0.00    -0.238 N 
ATOM      6  N   UNL     1       0.023  -0.775   1.065  0.00  0.00    -0.174 NA
ATOM      7  C   UNL     1       0.079  -3.338   1.429  0.00  0.00    +0.226 C 
ATOM      8  N   UNL     1      -0.496  -4.429   0.631  0.00  0.00    -0.318 N 
ATOM      9  C   UNL     1      -0.236  -4.538  -0.734  0.00  0.00    +0.038 A 
ATOM     10  C   UNL     1       0.028  -3.371  -1.479  0.00  0.00    +0.021 A 
ATOM     11  C   UNL     1       0.273  -3.447  -2.840  0.00  0.00    +0.012 A 
ATOM     12  C   UNL     1       0.267  -4.682  -3.464  0.00  0.00    +0.001 A 
ATOM     13  C   UNL     1       0.018  -5.831  -2.734  0.00  0.00    +0.002 A 
ATOM     14  C   UNL     1      -0.234  -5.764  -1.376  0.00  0.00    +0.023 A 
ATOM     15  H   UNL     1      -1.067  -5.085   1.062  0.00  0.00    +0.148 HD
ENDROOT
BRANCH   7  16
ATOM     16  C   UNL     1       1.507  -3.666   1.780  0.00  0.00    +0.037 A 
ATOM     17  C   UNL     1       2.234  -4.530   0.983  0.00  0.00    +0.026 A 
ATOM     18  C   UNL     1       3.545  -4.831   1.304  0.00  0.00    +0.018 A 
ATOM     19  C   UNL     1       4.132  -4.269   2.424  0.00  0.00    +0.019 A 
ATOM     20  C   UNL     1       3.409  -3.405   3.223  0.00  0.00    +0.047 A 
ATOM     21  C   UNL     1       2.095  -3.097   2.900  0.00  0.00    +0.124 A 
ATOM     22 BR   UNL     1       4.537  -6.014   0.212  0.00  0.00    -0.050 Br
BRANCH  21  23
ATOM     23  O   UNL     1       1.384  -2.243   3.682  0.00  0.00    -0.506 OA
ATOM     24  H   UNL     1       0.902  -2.676   4.399  0.00  0.00    +0.292 HD
ENDBRANCH  21  23
ENDBRANCH   7  16
TORSDOF 2
