REMARK  Name = ZINC44713807
REMARK  13 active torsions:
REMARK  status: ('A' for Active; 'I' for Inactive)
REMARK    1  A    between atoms: C_1  and  C_2
REMARK    2  A    between atoms: C_3  and  C_9
REMARK    3  A    between atoms: C_4  and  C_8
REMARK    4  A    between atoms: C_9  and  C_11
REMARK    5  A    between atoms: C_9  and  N_12
REMARK    6  A    between atoms: C_13  and  C_15
REMARK    7  A    between atoms: C_26  and  C_28
REMARK    8  A    between atoms: C_30  and  O_38
REMARK    9  A    between atoms: C_31  and  O_36
REMARK   10  A    between atoms: C_32  and  O_34
REMARK   11  A    between atoms: O_34  and  C_35
REMARK   12  A    between atoms: O_36  and  C_37
REMARK   13  A    between atoms: O_38  and  C_39
REMARK                            x       y       z     vdW  Elec       q    Type
REMARK                         _______ _______ _______ _____ _____    ______ ____
ROOT
ATOM      1  C   UNL     1       3.321  -2.244  -6.727  0.00  0.00    +0.100 C 
ATOM      2  C   UNL     1       2.016  -2.971  -7.121  0.00  0.00    +0.121 C 
ATOM      3  N   UNL     1       1.348  -2.052  -8.072  0.00  0.00    -0.296 N 
ATOM      4  C   UNL     1       2.454  -1.503  -8.893  0.00  0.00    +0.115 C 
ATOM      5  C   UNL     1       3.607  -1.285  -7.894  0.00  0.00    -0.004 C 
ATOM      6  C   UNL     1       4.944  -1.628  -8.545  0.00  0.00    -0.010 C 
ATOM      7  C   UNL     1       5.234  -0.624  -9.665  0.00  0.00    -0.082 C 
ATOM      8  N   UNL     1       5.272   0.734  -9.109  0.00  0.00    +0.379 N 
ATOM      9  C   UNL     1       3.955   1.091  -8.567  0.00  0.00    -0.082 C 
ATOM     10  C   UNL     1       3.611   0.160  -7.401  0.00  0.00    -0.010 C 
ATOM     11  C   UNL     1       0.033  -1.776  -8.169  0.00  0.00    +0.247 C 
ATOM     12  O   UNL     1      -0.338  -0.776  -8.752  0.00  0.00    -0.270 OA
ATOM     13  H   UNL     1       5.960   0.775  -8.371  0.00  0.00    -0.086 HD
ATOM     14  H   UNL     1       5.523   1.387  -9.836  0.00  0.00    -0.086 HD
ENDROOT
BRANCH  11  15
ATOM     15  C   UNL     1      -0.959  -2.689  -7.566  0.00  0.00    +0.044 A 
ATOM     16  C   UNL     1      -0.748  -3.203  -6.284  0.00  0.00    +0.062 A 
ATOM     17  C   UNL     1      -1.679  -4.057  -5.722  0.00  0.00    +0.166 A 
ATOM     18  C   UNL     1      -2.824  -4.406  -6.433  0.00  0.00    +0.204 A 
ATOM     19  C   UNL     1      -3.036  -3.896  -7.711  0.00  0.00    +0.166 A 
ATOM     20  C   UNL     1      -2.112  -3.036  -8.275  0.00  0.00    +0.062 A 
BRANCH  19  21
ATOM     21  O   UNL     1      -4.155  -4.239  -8.402  0.00  0.00    -0.491 OA
ATOM     22  C   UNL     1      -4.308  -3.679  -9.708  0.00  0.00    +0.277 C 
ENDBRANCH  19  21
BRANCH  18  23
ATOM     23  O   UNL     1      -3.736  -5.246  -5.878  0.00  0.00    -0.488 OA
ATOM     24  C   UNL     1      -4.786  -4.651  -5.113  0.00  0.00    +0.277 C 
ENDBRANCH  18  23
BRANCH  17  25
ATOM     25  O   UNL     1      -1.474  -4.558  -4.474  0.00  0.00    -0.491 OA
ATOM     26  C   UNL     1      -0.335  -4.074  -3.760  0.00  0.00    +0.277 C 
ENDBRANCH  17  25
ENDBRANCH  11  15
BRANCH   1  28
ATOM     27  N   UNL     1       4.189  -1.151  -4.684  0.00  0.00    -0.308 N 
ATOM     28  C   UNL     1       3.125  -1.472  -5.448  0.00  0.00    +0.219 C 
ATOM     29  O   UNL     1       2.010  -1.139  -5.105  0.00  0.00    -0.275 OA
ATOM     30  H   UNL     1       5.071  -1.480  -4.918  0.00  0.00    +0.149 HD
BRANCH  27  31
ATOM     31  C   UNL     1       4.013  -0.304  -3.502  0.00  0.00    +0.104 C 
ATOM     32  C   UNL     1       3.660  -1.178  -2.297  0.00  0.00    +0.033 C 
BRANCH  31  35
ATOM     33  C   UNL     1       4.272   2.372  -1.903  0.00  0.00    +0.065 C 
ATOM     34  C   UNL     1       5.403   1.601  -2.532  0.00  0.00    +0.038 A 
ATOM     35  C   UNL     1       5.292   0.443  -3.224  0.00  0.00    +0.015 A 
ATOM     36  C   UNL     1       6.573   0.062  -3.636  0.00  0.00    +0.065 A 
ATOM     37  N   UNL     1       7.423   0.959  -3.206  0.00  0.00    -0.179 NA
ATOM     38  N   UNL     1       6.708   1.943  -2.511  0.00  0.00    -0.281 N 
ATOM     39  H   UNL     1       7.085   2.730  -2.088  0.00  0.00    +0.189 HD
ATOM     40  C   UNL     1       6.915  -1.168  -4.435  0.00  0.00    +0.068 C 
ENDBRANCH  31  35
ENDBRANCH  27  31
ENDBRANCH   1  28
TORSDOF 7
