REMARK  Name = ZINC47891566
REMARK  9 active torsions:
REMARK  status: ('A' for Active; 'I' for Inactive)
REMARK    1  A    between atoms: C_1  and  C_2
REMARK    2  A    between atoms: C_2  and  C_3
REMARK    3  A    between atoms: C_2  and  O_4
REMARK    4  A    between atoms: O_4  and  C_5
REMARK    5  A    between atoms: C_8  and  C_11
REMARK    6  A    between atoms: C_11  and  C_12
REMARK    7  A    between atoms: C_11  and  N_13
REMARK    8  A    between atoms: N_16  and  C_17
REMARK    9  A    between atoms: C_21  and  N_23
REMARK                            x       y       z     vdW  Elec       q    Type
REMARK                         _______ _______ _______ _____ _____    ______ ____
ROOT
ATOM      1  N   UNL     1       6.798  -1.906  -1.835  0.00  0.00    -0.293 N 
ATOM      2  C   UNL     1       7.979  -2.499  -1.572  0.00  0.00    +0.304 C 
ATOM      3  O   UNL     1       8.753  -1.989  -0.784  0.00  0.00    -0.252 OA
ATOM      4  N   UNL     1       8.304  -3.656  -2.182  0.00  0.00    -0.269 N 
ATOM      5  H   UNL     1       6.181  -2.313  -2.463  0.00  0.00    +0.151 HD
ATOM      6  H   UNL     1       7.722  -4.024  -2.865  0.00  0.00    +0.156 HD
ENDROOT
BRANCH   4   7
ATOM      7  C   UNL     1       9.480  -4.327  -1.829  0.00  0.00    +0.037 A 
ATOM      8  C   UNL     1       9.934  -4.293  -0.516  0.00  0.00    +0.023 A 
ATOM      9  C   UNL     1      11.095  -4.955  -0.168  0.00  0.00    +0.004 A 
ATOM     10  C   UNL     1      11.808  -5.654  -1.123  0.00  0.00    +0.024 A 
ATOM     11  C   UNL     1      11.360  -5.692  -2.437  0.00  0.00    +0.040 A 
ATOM     12  C   UNL     1      10.191  -5.032  -2.789  0.00  0.00    +0.047 A 
BRANCH  11  13
ATOM     13  N   UNL     1      12.084  -6.399  -3.403  0.00  0.00    -0.254 N 
ATOM     14  C   UNL     1      13.257  -7.246  -3.139  0.00  0.00    +0.134 C 
ATOM     15  C   UNL     1      13.652  -7.774  -4.532  0.00  0.00    +0.125 C 
ATOM     16  N   UNL     1      12.660  -7.170  -5.433  0.00  0.00    -0.297 N 
ATOM     17  C   UNL     1      11.814  -6.418  -4.715  0.00  0.00    +0.307 C 
ATOM     18  O   UNL     1      10.889  -5.805  -5.210  0.00  0.00    -0.252 OA
ATOM     19  H   UNL     1      12.621  -7.298  -6.393  0.00  0.00    +0.150 HD
ENDBRANCH  11  13
ENDBRANCH   4   7
BRANCH   1  20
ATOM     20  C   UNL     1       6.445  -0.648  -1.172  0.00  0.00    +0.102 C 
ATOM     21  C   UNL     1       7.041   0.524  -1.954  0.00  0.00    +0.033 C 
BRANCH  20  25
ATOM     22  C   UNL     1       2.192  -0.254  -1.032  0.00  0.00    +0.121 A 
ATOM     23  C   UNL     1       2.962   0.127   0.058  0.00  0.00    +0.046 A 
ATOM     24  C   UNL     1       4.337  -0.001   0.010  0.00  0.00    +0.009 A 
ATOM     25  C   UNL     1       4.946  -0.510  -1.122  0.00  0.00    -0.027 A 
ATOM     26  C   UNL     1       4.181  -0.890  -2.210  0.00  0.00    +0.009 A 
ATOM     27  C   UNL     1       2.806  -0.769  -2.164  0.00  0.00    +0.046 A 
BRANCH  22  28
ATOM     28  O   UNL     1       0.840  -0.129  -0.987  0.00  0.00    -0.489 OA
BRANCH  28  30
ATOM     29  C   UNL     1       0.328   1.977   0.082  0.00  0.00    +0.051 C 
ATOM     30  C   UNL     1       0.281   0.452   0.193  0.00  0.00    +0.167 C 
ATOM     31  C   UNL     1      -1.172  -0.004   0.347  0.00  0.00    +0.051 C 
ENDBRANCH  28  30
ENDBRANCH  22  28
ENDBRANCH  20  25
ENDBRANCH   1  20
TORSDOF 6
