REMARK  Name = ZINC09612740
REMARK  7 active torsions:
REMARK  status: ('A' for Active; 'I' for Inactive)
REMARK    1  A    between atoms: C_7  and  C_20
REMARK    2  A    between atoms: C_12  and  C_13
REMARK    3  A    between atoms: C_20  and  O_22
REMARK    4  A    between atoms: O_22  and  C_23
REMARK    5  A    between atoms: C_23  and  C_24
REMARK    6  A    between atoms: N_26  and  C_27
REMARK    7  A    between atoms: C_30  and  C_33
REMARK                            x       y       z     vdW  Elec       q    Type
REMARK                         _______ _______ _______ _____ _____    ______ ____
ROOT
ATOM      1  C   UNL     1      -0.440   2.138   0.287  0.00  0.00    +0.001 A 
ATOM      2  C   UNL     1       0.861   1.642   0.283  0.00  0.00    +0.002 A 
ATOM      3  C   UNL     1       1.932   2.479   0.209  0.00  0.00    +0.028 A 
ATOM      4  C   UNL     1       1.728   3.870   0.139  0.00  0.00    +0.072 A 
ATOM      5  C   UNL     1       0.401   4.368   0.148  0.00  0.00    +0.015 A 
ATOM      6  C   UNL     1      -0.676   3.480   0.225  0.00  0.00    +0.011 A 
ATOM      7  C   UNL     1       0.199   5.815   0.074  0.00  0.00    +0.073 A 
ATOM      8  C   UNL     1       1.327   6.618  -0.001  0.00  0.00    -0.007 A 
ATOM      9  C   UNL     1       2.605   6.032  -0.004  0.00  0.00    +0.072 A 
ATOM     10  N   UNL     1       2.756   4.712   0.064  0.00  0.00    -0.247 NA
ATOM     11  C   UNL     1       3.642   7.076  -0.090  0.00  0.00    -0.020 C 
ATOM     12  C   UNL     1       4.975   6.865  -0.115  0.00  0.00    +0.020 C 
ATOM     13  C   UNL     1       2.959   8.419  -0.146  0.00  0.00    +0.042 C 
ATOM     14  C   UNL     1       1.455   8.119  -0.087  0.00  0.00    +0.043 C 
ENDROOT
BRANCH  12  15
ATOM     15  C   UNL     1       5.893   8.001  -0.203  0.00  0.00    +0.013 A 
ATOM     16  C   UNL     1       7.279   8.003  -0.241  0.00  0.00    +0.015 A 
ATOM     17  C   UNL     1       7.927   9.212  -0.326  0.00  0.00    +0.008 A 
ATOM     18  C   UNL     1       7.197  10.358  -0.370  0.00  0.00    +0.046 A 
ATOM     19  S   UNL     1       5.522   9.745  -0.297  0.00  0.00    -0.097 S 
ENDBRANCH  12  15
BRANCH   7  20
ATOM     20  C   UNL     1      -1.158   6.401   0.079  0.00  0.00    +0.341 C 
ATOM     21  O   UNL     1      -1.745   6.583  -0.968  0.00  0.00    -0.245 OA
BRANCH  20  22
ATOM     22  O   UNL     1      -1.745   6.731   1.246  0.00  0.00    -0.452 OA
BRANCH  22  23
ATOM     23  C   UNL     1      -3.078   7.301   1.175  0.00  0.00    +0.328 C 
BRANCH  23  24
ATOM     24  C   UNL     1      -3.569   7.606   2.567  0.00  0.00    +0.255 C 
ATOM     25  O   UNL     1      -2.864   7.366   3.525  0.00  0.00    -0.272 OA
ATOM     26  N   UNL     1      -4.791   8.145   2.748  0.00  0.00    -0.283 N 
ATOM     27  H   UNL     1      -5.324   8.408   1.982  0.00  0.00    +0.155 HD
BRANCH  26  28
ATOM     28  C   UNL     1      -5.290   8.325   4.038  0.00  0.00    +0.034 A 
ATOM     29  C   UNL     1      -4.967   7.415   5.040  0.00  0.00    +0.024 A 
ATOM     30  C   UNL     1      -5.454   7.593   6.316  0.00  0.00    +0.015 A 
ATOM     31  C   UNL     1      -6.281   8.682   6.601  0.00  0.00    +0.037 A 
ATOM     32  C   UNL     1      -6.608   9.591   5.591  0.00  0.00    +0.015 A 
ATOM     33  C   UNL     1      -6.113   9.410   4.319  0.00  0.00    +0.024 A 
BRANCH  31  34
ATOM     34  C   UNL     1      -6.809   8.873   7.966  0.00  0.00    +0.242 C 
ATOM     35  O   UNL     1      -7.529   9.821   8.213  0.00  0.00    -0.270 OA
ATOM     36  N   UNL     1      -6.493   7.995   8.939  0.00  0.00    -0.325 N 
ATOM     37  H   UNL     1      -5.919   7.238   8.742  0.00  0.00    +0.145 HD
ATOM     38  H   UNL     1      -6.840   8.120   9.836  0.00  0.00    +0.145 HD
ENDBRANCH  31  34
ENDBRANCH  26  28
ENDBRANCH  23  24
ENDBRANCH  22  23
ENDBRANCH  20  22
ENDBRANCH   7  20
TORSDOF 7
