REMARK  Name = ZINC39675208
REMARK  10 active torsions:
REMARK  status: ('A' for Active; 'I' for Inactive)
REMARK    1  A    between atoms: C_1  and  C_2
REMARK    2  A    between atoms: C_2  and  C_4
REMARK    3  A    between atoms: C_2  and  N_14
REMARK    4  A    between atoms: C_4  and  C_5
REMARK    5  A    between atoms: C_5  and  C_6
REMARK    6  A    between atoms: C_9  and  O_12
REMARK    7  A    between atoms: O_12  and  C_13
REMARK    8  A    between atoms: C_15  and  C_17
REMARK    9  A    between atoms: C_28  and  C_30
REMARK   10  A    between atoms: C_35  and  C_36
REMARK                            x       y       z     vdW  Elec       q    Type
REMARK                         _______ _______ _______ _____ _____    ______ ____
ROOT
ATOM      1  C   UNL     1       0.206  -0.784   3.345  0.00  0.00    +0.100 C 
ATOM      2  C   UNL     1       1.545  -0.079   3.656  0.00  0.00    +0.121 C 
ATOM      3  N   UNL     1       1.242   0.808   4.804  0.00  0.00    -0.296 N 
ATOM      4  C   UNL     1       0.331   0.010   5.658  0.00  0.00    +0.115 C 
ATOM      5  C   UNL     1      -0.587  -0.727   4.662  0.00  0.00    -0.004 C 
ATOM      6  C   UNL     1      -0.883  -2.138   5.161  0.00  0.00    -0.010 C 
ATOM      7  C   UNL     1      -1.722  -2.056   6.440  0.00  0.00    -0.082 C 
ATOM      8  N   UNL     1      -2.973  -1.340   6.162  0.00  0.00    +0.379 N 
ATOM      9  C   UNL     1      -2.681   0.045   5.771  0.00  0.00    -0.082 C 
ATOM     10  C   UNL     1      -1.883   0.051   4.464  0.00  0.00    -0.010 C 
ATOM     11  C   UNL     1       1.694   2.059   5.022  0.00  0.00    +0.247 C 
ATOM     12  O   UNL     1       1.435   2.626   6.066  0.00  0.00    -0.270 OA
ATOM     13  H   UNL     1      -3.465  -1.803   5.412  0.00  0.00    -0.086 HD
ATOM     14  H   UNL     1      -3.550  -1.340   6.989  0.00  0.00    -0.086 HD
ENDROOT
BRANCH  11  15
ATOM     15  C   UNL     1       2.505   2.743   3.992  0.00  0.00    +0.049 A 
ATOM     16  C   UNL     1       3.424   2.020   3.230  0.00  0.00    +0.013 A 
ATOM     17  C   UNL     1       4.177   2.663   2.270  0.00  0.00    +0.001 A 
ATOM     18  C   UNL     1       4.023   4.023   2.062  0.00  0.00    +0.001 A 
ATOM     19  C   UNL     1       3.114   4.745   2.814  0.00  0.00    +0.013 A 
ATOM     20  C   UNL     1       2.350   4.112   3.773  0.00  0.00    +0.067 A 
BRANCH  20  21
ATOM     21  C   UNL     1       1.356   4.900   4.587  0.00  0.00    +0.418 C 
ATOM     22  F   UNL     1       1.383   6.240   4.188  0.00  0.00    -0.166 F 
ATOM     23  F   UNL     1       0.073   4.380   4.387  0.00  0.00    -0.166 F 
ATOM     24  F   UNL     1       1.689   4.811   5.943  0.00  0.00    -0.166 F 
ENDBRANCH  20  21
ENDBRANCH  11  15
BRANCH   1  26
ATOM     25  N   UNL     1      -1.390  -0.715   1.457  0.00  0.00    -0.312 N 
ATOM     26  C   UNL     1      -0.533  -0.050   2.256  0.00  0.00    +0.218 C 
ATOM     27  O   UNL     1      -0.355   1.139   2.098  0.00  0.00    -0.275 OA
ATOM     28  H   UNL     1      -1.532  -1.666   1.583  0.00  0.00    +0.149 HD
BRANCH  25  30
ATOM     29  C   UNL     1      -1.231   0.073  -0.853  0.00  0.00    +0.028 C 
ATOM     30  C   UNL     1      -2.108  -0.001   0.398  0.00  0.00    +0.070 C 
BRANCH  30  31
ATOM     31  C   UNL     1      -3.404  -0.746   0.068  0.00  0.00    +0.026 C 
BRANCH  31  32
ATOM     32  C   UNL     1      -4.334  -0.713   1.282  0.00  0.00    +0.037 C 
BRANCH  32  33
ATOM     33  C   UNL     1      -5.610  -1.446   0.958  0.00  0.00    -0.047 A 
ATOM     34  C   UNL     1      -6.677  -0.764   0.404  0.00  0.00    +0.007 A 
ATOM     35  C   UNL     1      -7.848  -1.434   0.105  0.00  0.00    +0.046 A 
ATOM     36  C   UNL     1      -7.952  -2.793   0.362  0.00  0.00    +0.120 A 
ATOM     37  C   UNL     1      -6.880  -3.476   0.917  0.00  0.00    +0.046 A 
ATOM     38  C   UNL     1      -5.709  -2.803   1.209  0.00  0.00    +0.007 A 
BRANCH  36  39
ATOM     39  O   UNL     1      -9.102  -3.455   0.070  0.00  0.00    -0.495 OA
ATOM     40  C   UNL     1      -9.138  -4.854   0.361  0.00  0.00    +0.277 C 
ENDBRANCH  36  39
ENDBRANCH  32  33
ENDBRANCH  31  32
ENDBRANCH  30  31
ENDBRANCH  25  30
ENDBRANCH   1  26
TORSDOF 8
