REMARK  Name = ZINC36726067
REMARK  8 active torsions:
REMARK  status: ('A' for Active; 'I' for Inactive)
REMARK    1  A    between atoms: C_1  and  C_2
REMARK    2  A    between atoms: C_2  and  N_3
REMARK    3  A    between atoms: N_3  and  C_4
REMARK    4  A    between atoms: N_3  and  C_16
REMARK    5  A    between atoms: C_4  and  C_5
REMARK    6  A    between atoms: C_16  and  C_17
REMARK    7  A    between atoms: N_22  and  C_25
REMARK    8  A    between atoms: C_29  and  C_31
REMARK                            x       y       z     vdW  Elec       q    Type
REMARK                         _______ _______ _______ _____ _____    ______ ____
ROOT
ATOM      1  C   UNL     1      -1.981   0.001  -1.093  0.00  0.00    +0.019 C 
ENDROOT
BRANCH   1   2
ATOM      2  C   UNL     1      -1.937   1.507  -1.131  0.00  0.00    +0.199 C 
ATOM      3  O   UNL     1      -1.440   2.123  -0.211  0.00  0.00    -0.278 OA
ATOM      4  N   UNL     1      -2.451   2.170  -2.186  0.00  0.00    -0.300 N 
ATOM      5  C   UNL     1      -3.062   1.438  -3.304  0.00  0.00    +0.126 C 
ATOM      6  C   UNL     1      -4.489   1.961  -3.511  0.00  0.00    +0.124 C 
ATOM      7  N   UNL     1      -4.448   3.429  -3.563  0.00  0.00    -0.327 N 
ATOM      8  C   UNL     1      -3.837   4.161  -2.445  0.00  0.00    +0.124 C 
ATOM      9  C   UNL     1      -2.415   3.639  -2.236  0.00  0.00    +0.126 C 
BRANCH   7  10
ATOM     10  C   UNL     1      -4.980   4.116  -4.657  0.00  0.00    +0.030 A 
ATOM     11  C   UNL     1      -5.673   3.425  -5.643  0.00  0.00    +0.023 A 
ATOM     12  C   UNL     1      -6.198   4.107  -6.723  0.00  0.00    +0.002 A 
ATOM     13  C   UNL     1      -6.035   5.477  -6.823  0.00  0.00    +0.003 A 
ATOM     14  C   UNL     1      -5.346   6.168  -5.843  0.00  0.00    -0.049 A 
ATOM     15  C   UNL     1      -4.823   5.492  -4.757  0.00  0.00    +0.026 A 
ATOM     16  C   UNL     1      -5.169   7.660  -5.957  0.00  0.00    +0.044 C 
ENDBRANCH   7  10
ENDBRANCH   1   2
BRANCH   1  17
ATOM     17  N   UNL     1      -1.293  -0.478   0.113  0.00  0.00    +0.388 N 
ATOM     18  H   UNL     1      -0.372  -0.069   0.161  0.00  0.00    -0.081 HD
BRANCH  17  20
ATOM     19  C   UNL     1      -0.263  -2.339  -1.101  0.00  0.00    -0.017 C 
ATOM     20  C   UNL     1      -1.177  -1.942   0.060  0.00  0.00    -0.081 C 
ENDBRANCH  17  20
BRANCH  17  21
ATOM     21  C   UNL     1      -2.063  -0.091   1.302  0.00  0.00    -0.030 C 
BRANCH  21  22
ATOM     22  C   UNL     1      -1.287  -0.481   2.562  0.00  0.00    +0.195 C 
ATOM     23  C   UNL     1      -2.134  -0.179   3.806  0.00  0.00    +0.271 C 
ATOM     24  O   UNL     1      -1.374  -0.542   4.964  0.00  0.00    -0.485 OA
ATOM     25  C   UNL     1      -0.077  -0.129   4.998  0.00  0.00    +0.162 A 
ATOM     26  C   UNL     1       0.603  -0.120   6.207  0.00  0.00    +0.049 A 
ATOM     27  C   UNL     1       1.921   0.293   6.257  0.00  0.00    +0.004 A 
ATOM     28  C   UNL     1       2.565   0.697   5.103  0.00  0.00    +0.004 A 
ATOM     29  C   UNL     1       1.893   0.691   3.895  0.00  0.00    +0.049 A 
ATOM     30  C   UNL     1       0.570   0.280   3.838  0.00  0.00    +0.162 A 
ATOM     31  O   UNL     1      -0.081   0.287   2.643  0.00  0.00    -0.484 OA
ENDBRANCH  21  22
ENDBRANCH  17  21
ENDBRANCH   1  17
TORSDOF 6
