REMARK  Name = ZINC57805765
REMARK  6 active torsions:
REMARK  status: ('A' for Active; 'I' for Inactive)
REMARK    1  A    between atoms: C_1  and  C_2
REMARK    2  A    between atoms: C_2  and  C_4
REMARK    3  A    between atoms: C_2  and  N_12
REMARK    4  A    between atoms: N_15  and  C_16
REMARK    5  A    between atoms: C_18  and  C_23
REMARK    6  A    between atoms: N_25  and  C_26
REMARK                            x       y       z     vdW  Elec       q    Type
REMARK                         _______ _______ _______ _____ _____    ______ ____
ROOT
ATOM      1  N   UNL     1       0.685  -0.492  -1.199  0.00  0.00    -0.293 N 
ATOM      2  C   UNL     1       0.006  -0.612  -2.357  0.00  0.00    +0.304 C 
ATOM      3  O   UNL     1      -1.177  -0.331  -2.401  0.00  0.00    -0.252 OA
ATOM      4  N   UNL     1       0.637  -1.043  -3.467  0.00  0.00    -0.268 N 
ATOM      5  H   UNL     1       1.628  -0.717  -1.165  0.00  0.00    +0.151 HD
ATOM      6  H   UNL     1       1.596  -1.189  -3.454  0.00  0.00    +0.156 HD
ENDROOT
BRANCH   4   7
ATOM      7  C   UNL     1      -0.091  -1.280  -4.640  0.00  0.00    +0.054 A 
ATOM      8  C   UNL     1      -1.442  -1.578  -4.568  0.00  0.00    +0.038 A 
ATOM      9  C   UNL     1      -2.164  -1.813  -5.739  0.00  0.00    +0.039 A 
ATOM     10  C   UNL     1      -1.520  -1.746  -6.976  0.00  0.00    +0.014 A 
ATOM     11  C   UNL     1      -0.174  -1.448  -7.038  0.00  0.00    +0.022 A 
ATOM     12  C   UNL     1       0.540  -1.210  -5.877  0.00  0.00    +0.062 A 
ATOM     13 CL   UNL     1       2.232  -0.829  -5.965  0.00  0.00    -0.082 Cl
BRANCH   9  14
ATOM     14  C   UNL     1      -3.605  -2.132  -5.670  0.00  0.00    +0.244 C 
ATOM     15  O   UNL     1      -4.164  -2.191  -4.592  0.00  0.00    -0.270 OA
ATOM     16  N   UNL     1      -4.300  -2.358  -6.802  0.00  0.00    -0.314 N 
ATOM     17  C   UNL     1      -5.729  -2.675  -6.734  0.00  0.00    +0.128 C 
ATOM     18  H   UNL     1      -3.854  -2.312  -7.663  0.00  0.00    +0.149 HD
ENDBRANCH   9  14
ENDBRANCH   4   7
BRANCH   1  20
ATOM     19  C   UNL     1      -0.013   1.506   0.026  0.00  0.00    +0.033 C 
ATOM     20  C   UNL     1      -0.002  -0.024   0.007  0.00  0.00    +0.103 C 
BRANCH  20  21
ATOM     21  C   UNL     1       0.720  -0.536   1.227  0.00  0.00    -0.009 A 
ATOM     22  C   UNL     1       2.065  -0.848   1.153  0.00  0.00    +0.008 A 
ATOM     23  C   UNL     1       2.728  -1.318   2.271  0.00  0.00    +0.020 A 
ATOM     24  C   UNL     1       2.046  -1.475   3.465  0.00  0.00    +0.042 A 
ATOM     25  C   UNL     1       0.701  -1.162   3.539  0.00  0.00    +0.040 A 
ATOM     26  C   UNL     1       0.039  -0.688   2.421  0.00  0.00    +0.047 A 
ATOM     27 CL   UNL     1      -1.648  -0.288   2.515  0.00  0.00    -0.083 Cl
ATOM     28 CL   UNL     1       2.879  -2.066   4.869  0.00  0.00    -0.083 Cl
ENDBRANCH  20  21
ENDBRANCH   1  20
TORSDOF 4
