REMARK  Name = ZINC12242928
REMARK  5 active torsions:
REMARK  status: ('A' for Active; 'I' for Inactive)
REMARK    1  A    between atoms: C_6  and  C_7
REMARK    2  A    between atoms: C_12  and  C_30
REMARK    3  A    between atoms: N_13  and  C_14
REMARK    4  A    between atoms: C_19  and  C_20
REMARK    5  A    between atoms: C_19  and  N_60
REMARK                            x       y       z     vdW  Elec       q    Type
REMARK                         _______ _______ _______ _____ _____    ______ ____
ROOT
ATOM      1  C   UNL     1       0.508  -1.368   6.286  0.00  0.00    +0.014 A 
ATOM      2  C   UNL     1       0.757  -0.181   5.629  0.00  0.00    +0.028 A 
ATOM      3  C   UNL     1       0.174   0.054   4.392  0.00  0.00    +0.069 A 
ATOM      4  C   UNL     1      -0.664  -0.917   3.818  0.00  0.00    +0.090 A 
ATOM      5  C   UNL     1      -0.901  -2.111   4.502  0.00  0.00    +0.042 A 
ATOM      6  C   UNL     1      -0.319  -2.326   5.719  0.00  0.00    +0.057 A 
ATOM      7  N   UNL     1      -1.084  -0.421   2.625  0.00  0.00    -0.230 NA
ATOM      8  C   UNL     1      -0.571   0.760   2.437  0.00  0.00    +0.140 A 
ATOM      9  N   UNL     1       0.217   1.100   3.492  0.00  0.00    -0.322 N 
ENDROOT
BRANCH   9  10
ATOM     10  C   UNL     1       0.970   2.348   3.646  0.00  0.00    +0.086 C 
ATOM     11  C   UNL     1       2.463   2.032   3.776  0.00  0.00    +0.006 C 
ATOM     12  C   UNL     1       3.237   3.333   3.999  0.00  0.00    -0.076 C 
ATOM     13  C   UNL     1       1.329   4.349   5.096  0.00  0.00    -0.076 C 
ATOM     14  C   UNL     1       0.498   3.078   4.907  0.00  0.00    +0.006 C 
ATOM     15  N   UNL     1       2.752   3.974   5.240  0.00  0.00    +0.383 N 
ATOM     16  H   UNL     1       2.844   3.309   6.016  0.00  0.00    -0.081 HD
BRANCH  15  17
ATOM     17  C   UNL     1       3.562   5.174   5.537  0.00  0.00    -0.041 C 
BRANCH  17  18
ATOM     18  C   UNL     1       5.023   4.827   5.413  0.00  0.00    -0.042 A 
ATOM     19  C   UNL     1       5.746   5.269   4.320  0.00  0.00    +0.052 A 
ATOM     20  C   UNL     1       7.090   4.955   4.206  0.00  0.00    +0.167 A 
ATOM     21  C   UNL     1       7.709   4.184   5.188  0.00  0.00    +0.168 A 
ATOM     22  C   UNL     1       6.978   3.741   6.277  0.00  0.00    +0.069 A 
ATOM     23  C   UNL     1       5.636   4.062   6.388  0.00  0.00    +0.046 A 
ATOM     24 CL   UNL     1       4.722   3.504   7.754  0.00  0.00    -0.083 Cl
ATOM     25  O   UNL     1       9.019   4.010   4.846  0.00  0.00    -0.453 OA
ATOM     26  C   UNL     1       9.295   5.020   3.857  0.00  0.00    +0.466 C 
ATOM     27  O   UNL     1       8.013   5.263   3.248  0.00  0.00    -0.453 OA
ENDBRANCH  17  18
ENDBRANCH  15  17
ENDBRANCH   9  10
BRANCH   8  28
ATOM     28  C   UNL     1      -0.810   1.621   1.224  0.00  0.00    +0.184 C 
ATOM     29  C   UNL     1      -0.013   1.086   0.008  0.00  0.00    +0.042 C 
ATOM     30  C   UNL     1      -0.833   1.634  -1.185  0.00  0.00    +0.031 C 
ATOM     31  C   UNL     1      -2.223   1.924  -0.587  0.00  0.00    +0.161 C 
ATOM     32  O   UNL     1      -2.186   1.524   0.793  0.00  0.00    -0.369 OA
ENDBRANCH   8  28
BRANCH   6  33
ATOM     33  C   UNL     1      -0.578  -3.617   6.452  0.00  0.00    +0.417 C 
ATOM     34  F   UNL     1       0.385  -4.563   6.084  0.00  0.00    -0.166 F 
ATOM     35  F   UNL     1      -0.507  -3.392   7.832  0.00  0.00    -0.166 F 
ATOM     36  F   UNL     1      -1.851  -4.094   6.123  0.00  0.00    -0.166 F 
ENDBRANCH   6  33
TORSDOF 5
