REMARK  Name = ZINC66122706
REMARK  15 active torsions:
REMARK  status: ('A' for Active; 'I' for Inactive)
REMARK    1  A    between atoms: C_1  and  C_2
REMARK    2  A    between atoms: C_2  and  C_4
REMARK    3  A    between atoms: C_2  and  N_20
REMARK    4  A    between atoms: N_6  and  N_7
REMARK    5  A    between atoms: N_7  and  C_8
REMARK    6  A    between atoms: C_8  and  N_10
REMARK    7  A    between atoms: N_10  and  C_11
REMARK    8  A    between atoms: C_16  and  C_17
REMARK    9  A    between atoms: C_17  and  C_18
REMARK   10  A    between atoms: C_17  and  C_19
REMARK   11  A    between atoms: C_21  and  O_23
REMARK   12  A    between atoms: O_23  and  C_24
REMARK   13  A    between atoms: C_24  and  C_25
REMARK   14  A    between atoms: C_24  and  C_26
REMARK   15  A    between atoms: C_24  and  C_27
REMARK                            x       y       z     vdW  Elec       q    Type
REMARK                         _______ _______ _______ _____ _____    ______ ____
ROOT
ATOM      1  C   UNL     1      -1.442   0.084  -0.178  0.00  0.00    +0.249 C 
ATOM      2  O   UNL     1      -1.689  -0.798  -0.974  0.00  0.00    -0.272 OA
ATOM      3  N   UNL     1      -2.250   0.279   0.883  0.00  0.00    -0.234 N 
ATOM      4  H   UNL     1      -2.053   0.984   1.519  0.00  0.00    +0.173 HD
ENDROOT
BRANCH   1   6
ATOM      5  C   UNL     1      -0.677   2.419  -0.513  0.00  0.00    +0.038 C 
ATOM      6  C   UNL     1      -0.233   0.961  -0.376  0.00  0.00    +0.160 C 
BRANCH   6   7
ATOM      7  N   UNL     1       0.475   0.550  -1.591  0.00  0.00    -0.270 N 
ATOM      8  C   UNL     1       1.792   0.804  -1.723  0.00  0.00    +0.401 C 
ATOM      9  O   UNL     1       2.392   1.374  -0.834  0.00  0.00    -0.226 OA
ATOM     10  H   UNL     1      -0.005   0.095  -2.301  0.00  0.00    +0.153 HD
BRANCH   8  11
ATOM     11  O   UNL     1       2.442   0.426  -2.840  0.00  0.00    -0.445 OA
BRANCH  11  12
ATOM     12  C   UNL     1       3.837   0.727  -2.911  0.00  0.00    +0.107 C 
ATOM     13  C   UNL     1       4.568   0.038  -1.757  0.00  0.00    +0.055 C 
ATOM     14  C   UNL     1       4.399   0.226  -4.243  0.00  0.00    +0.055 C 
ATOM     15  C   UNL     1       4.038   2.241  -2.811  0.00  0.00    +0.055 C 
ENDBRANCH  11  12
ENDBRANCH   8  11
ENDBRANCH   6   7
ENDBRANCH   1   6
BRANCH   3  16
ATOM     16  N   UNL     1      -3.374  -0.536   1.067  0.00  0.00    -0.246 N 
ATOM     17  H   UNL     1      -3.571  -1.242   0.431  0.00  0.00    +0.172 HD
BRANCH  16  18
ATOM     18  C   UNL     1      -4.182  -0.341   2.128  0.00  0.00    +0.151 C 
ATOM     19  S   UNL     1      -5.555  -1.338   2.353  0.00  0.00    -0.017 S 
BRANCH  18  20
ATOM     20  N   UNL     1      -3.908   0.639   3.012  0.00  0.00    -0.296 N 
ATOM     21  H   UNL     1      -3.088   1.151   2.930  0.00  0.00    +0.154 HD
BRANCH  20  22
ATOM     22  C   UNL     1      -4.805   0.917   4.048  0.00  0.00    +0.036 A 
ATOM     23  C   UNL     1      -6.168   0.994   3.788  0.00  0.00    +0.023 A 
ATOM     24  C   UNL     1      -7.051   1.268   4.813  0.00  0.00    +0.002 A 
ATOM     25  C   UNL     1      -6.581   1.468   6.098  0.00  0.00    +0.000 A 
ATOM     26  C   UNL     1      -5.226   1.393   6.361  0.00  0.00    +0.006 A 
ATOM     27  C   UNL     1      -4.337   1.111   5.341  0.00  0.00    -0.024 A 
BRANCH  27  28
ATOM     28  C   UNL     1      -2.861   1.023   5.630  0.00  0.00    +0.015 C 
ATOM     29  C   UNL     1      -2.365   2.367   6.167  0.00  0.00    +0.012 C 
ATOM     30  C   UNL     1      -2.610  -0.067   6.674  0.00  0.00    +0.012 C 
ENDBRANCH  27  28
ENDBRANCH  20  22
ENDBRANCH  18  20
ENDBRANCH  16  18
ENDBRANCH   3  16
TORSDOF 9
