REMARK  Name = ZINC27523213
REMARK  12 active torsions:
REMARK  status: ('A' for Active; 'I' for Inactive)
REMARK    1  A    between atoms: C_6  and  C_7
REMARK    2  A    between atoms: C_7  and  N_8
REMARK    3  A    between atoms: N_8  and  C_9
REMARK    4  A    between atoms: C_9  and  C_10
REMARK    5  A    between atoms: C_10  and  N_11
REMARK    6  A    between atoms: N_11  and  C_12
REMARK    7  A    between atoms: C_12  and  N_13
REMARK    8  A    between atoms: N_13  and  C_14
REMARK    9  A    between atoms: C_14  and  C_15
REMARK   10  A    between atoms: C_15  and  C_16
REMARK   11  A    between atoms: C_16  and  C_17
REMARK   12  A    between atoms: C_27  and  N_30
REMARK                            x       y       z     vdW  Elec       q    Type
REMARK                         _______ _______ _______ _____ _____    ______ ____
ROOT
ATOM      1  N   UNL     1      -1.726  -1.017  -1.368  0.00  0.00    -0.309 N 
ATOM      2  C   UNL     1      -2.547  -0.098  -2.010  0.00  0.00    +0.122 A 
ATOM      3  C   UNL     1      -2.865   1.102  -1.380  0.00  0.00    +0.046 A 
ATOM      4  C   UNL     1      -3.682   2.007  -2.030  0.00  0.00    +0.037 A 
ATOM      5  C   UNL     1      -4.157   1.683  -3.294  0.00  0.00    +0.144 A 
ATOM      6  C   UNL     1      -3.803   0.475  -3.860  0.00  0.00    +0.145 A 
ATOM      7  N   UNL     1      -3.016  -0.369  -3.218  0.00  0.00    -0.238 NA
ENDROOT
BRANCH   5   8
ATOM      8  N   UNL     1      -5.035   2.622  -4.027  0.00  0.00    +0.058 N 
ATOM      9  O   UNL     1      -5.343   3.678  -3.526  0.00  0.00    -0.126 OA
ATOM     10  O   UNL     1      -5.446   2.333  -5.127  0.00  0.00    -0.126 OA
ENDBRANCH   5   8
BRANCH   1  11
ATOM     11  C   UNL     1      -1.293  -0.775   0.011  0.00  0.00    +0.141 C 
BRANCH  11  17
ATOM     12  C   UNL     1      -0.017   1.378   0.010  0.00  0.00    +0.007 A 
ATOM     13  C   UNL     1       1.171   2.086   0.002  0.00  0.00    +0.022 A 
ATOM     14  C   UNL     1       2.378   1.412  -0.013  0.00  0.00    +0.059 A 
ATOM     15  C   UNL     1       2.397   0.027  -0.021  0.00  0.00    +0.060 A 
ATOM     16  C   UNL     1       1.208  -0.680  -0.013  0.00  0.00    +0.026 A 
ATOM     17  C   UNL     1       0.002  -0.004   0.002  0.00  0.00    -0.029 A 
ATOM     18 CL   UNL     1       3.912  -0.821  -0.040  0.00  0.00    -0.082 Cl
ATOM     19 CL   UNL     1       3.869   2.301  -0.023  0.00  0.00    -0.082 Cl
ENDBRANCH  11  17
ENDBRANCH   1  11
BRANCH   1  20
ATOM     20  C   UNL     1      -1.294  -2.229  -2.069  0.00  0.00    +0.125 C 
BRANCH  20  21
ATOM     21  C   UNL     1      -2.307  -3.348  -1.825  0.00  0.00    +0.122 C 
BRANCH  21  22
ATOM     22  N   UNL     1      -1.875  -4.560  -2.526  0.00  0.00    -0.325 N 
ATOM     23  H   UNL     1      -1.054  -4.554  -3.043  0.00  0.00    +0.148 HD
BRANCH  22  24
ATOM     24  C   UNL     1      -2.618  -5.682  -2.453  0.00  0.00    +0.130 C 
ATOM     25  S   UNL     1      -4.067  -5.692  -1.541  0.00  0.00    -0.019 S 
BRANCH  24  26
ATOM     26  N   UNL     1      -2.221  -6.796  -3.099  0.00  0.00    -0.327 N 
ATOM     27  H   UNL     1      -1.400  -6.791  -3.615  0.00  0.00    +0.148 HD
BRANCH  26  28
ATOM     28  C   UNL     1      -3.028  -8.016  -3.019  0.00  0.00    +0.103 C 
BRANCH  28  29
ATOM     29  C   UNL     1      -2.359  -9.125  -3.834  0.00  0.00    +0.025 C 
BRANCH  29  30
ATOM     30  C   UNL     1      -3.202 -10.399  -3.752  0.00  0.00    +0.056 C 
BRANCH  30  31
ATOM     31  C   UNL     1      -2.543 -11.490  -4.555  0.00  0.00    +0.033 A 
ATOM     32  C   UNL     1      -1.571 -12.321  -4.133  0.00  0.00    +0.105 A 
ATOM     33  N   UNL     1      -1.261 -13.145  -5.145  0.00  0.00    -0.352 N 
ATOM     34  H   UNL     1      -3.481 -11.415  -6.427  0.00  0.00    +0.166 HD
ATOM     35  C   UNL     1      -2.003 -12.855  -6.178  0.00  0.00    +0.171 A 
ATOM     36  N   UNL     1      -2.821 -11.832  -5.851  0.00  0.00    -0.350 N 
ATOM     37  H   UNL     1      -0.590 -13.845  -5.114  0.00  0.00    +0.166 HD
ENDBRANCH  30  31
ENDBRANCH  29  30
ENDBRANCH  28  29
ENDBRANCH  26  28
ENDBRANCH  24  26
ENDBRANCH  22  24
ENDBRANCH  21  22
ENDBRANCH  20  21
ENDBRANCH   1  20
TORSDOF 12
