REMARK  Name = ZINC19809867
REMARK  13 active torsions:
REMARK  status: ('A' for Active; 'I' for Inactive)
REMARK    1  A    between atoms: C_1  and  C_2
REMARK    2  A    between atoms: C_2  and  C_3
REMARK    3  A    between atoms: C_3  and  C_4
REMARK    4  A    between atoms: C_4  and  O_5
REMARK    5  A    between atoms: O_5  and  C_6
REMARK    6  A    between atoms: C_6  and  C_8
REMARK    7  A    between atoms: C_11  and  N_14
REMARK    8  A    between atoms: C_18  and  N_22
REMARK    9  A    between atoms: N_22  and  C_23
REMARK   10  A    between atoms: C_23  and  C_24
REMARK   11  A    between atoms: C_24  and  C_25
REMARK   12  A    between atoms: C_28  and  S_31
REMARK   13  A    between atoms: S_31  and  N_34
REMARK                            x       y       z     vdW  Elec       q    Type
REMARK                         _______ _______ _______ _____ _____    ______ ____
ROOT
ATOM      1  N   UNL     1      -2.602   2.873   7.194  0.00  0.00    -0.212 N 
ATOM      2  C   UNL     1      -2.187   2.463   8.398  0.00  0.00    +0.225 C 
ATOM      3  O   UNL     1      -1.264   1.703   8.602  0.00  0.00    -0.275 OA
ATOM      4  C   UNL     1      -3.049   3.101   9.466  0.00  0.00    +0.090 C 
ATOM      5  C   UNL     1      -4.051   3.952   8.660  0.00  0.00    +0.026 C 
ATOM      6  C   UNL     1      -3.647   3.709   7.222  0.00  0.00    +0.213 C 
ATOM      7  O   UNL     1      -4.184   4.196   6.250  0.00  0.00    -0.277 OA
ENDROOT
BRANCH   1  11
ATOM      8  C   UNL     1      -0.801   1.632   3.644  0.00  0.00    +0.059 A 
ATOM      9  C   UNL     1      -2.107   1.233   3.944  0.00  0.00    +0.017 A 
ATOM     10  C   UNL     1      -2.696   1.640   5.120  0.00  0.00    +0.025 A 
ATOM     11  C   UNL     1      -1.998   2.457   6.003  0.00  0.00    +0.044 A 
ATOM     12  C   UNL     1      -0.701   2.860   5.706  0.00  0.00    +0.025 A 
ATOM     13  C   UNL     1      -0.103   2.452   4.535  0.00  0.00    +0.017 A 
BRANCH   8  14
ATOM     14  C   UNL     1      -0.164   1.193   2.388  0.00  0.00    +0.339 C 
ATOM     15  O   UNL     1       0.969   1.544   2.127  0.00  0.00    -0.245 OA
BRANCH  14  16
ATOM     16  O   UNL     1      -0.839   0.402   1.531  0.00  0.00    -0.461 OA
BRANCH  16  17
ATOM     17  C   UNL     1      -0.150   0.009   0.315  0.00  0.00    +0.232 C 
BRANCH  17  18
ATOM     18  C   UNL     1      -1.067  -0.881  -0.526  0.00  0.00    +0.041 C 
BRANCH  18  20
ATOM     19  C   UNL     1      -1.258  -2.185  -2.649  0.00  0.00    +0.004 C 
ATOM     20  C   UNL     1      -0.341  -1.295  -1.808  0.00  0.00    -0.000 C 
ENDBRANCH  18  20
ENDBRANCH  17  18
ENDBRANCH  16  17
ENDBRANCH  14  16
ENDBRANCH   8  14
ENDBRANCH   1  11
BRANCH   5  21
ATOM     21  N   UNL     1      -5.426   3.491   8.894  0.00  0.00    +0.387 N 
ATOM     22  H   UNL     1      -5.629   2.608   8.270  0.00  0.00    -0.085 HD
ATOM     23  H   UNL     1      -5.549   3.226   9.955  0.00  0.00    -0.085 HD
BRANCH  21  24
ATOM     24  C   UNL     1      -6.398   4.539   8.555  0.00  0.00    -0.077 C 
BRANCH  24  25
ATOM     25  C   UNL     1      -7.815   4.023   8.812  0.00  0.00    +0.016 C 
BRANCH  25  26
ATOM     26  C   UNL     1      -8.812   5.099   8.465  0.00  0.00    -0.049 A 
ATOM     27  C   UNL     1      -9.220   6.001   9.429  0.00  0.00    +0.005 A 
ATOM     28  C   UNL     1     -10.131   6.990   9.110  0.00  0.00    +0.029 A 
ATOM     29  C   UNL     1     -10.641   7.072   7.827  0.00  0.00    +0.105 A 
ATOM     30  C   UNL     1     -10.237   6.167   6.864  0.00  0.00    +0.029 A 
ATOM     31  C   UNL     1      -9.323   5.180   7.183  0.00  0.00    +0.005 A 
BRANCH  29  32
ATOM     32  S   UNL     1     -11.805   8.330   7.420  0.00  0.00    +0.056 S 
ATOM     33  O   UNL     1     -11.606   9.384   8.352  0.00  0.00    -0.153 OA
ATOM     34  O   UNL     1     -11.716   8.528   6.016  0.00  0.00    -0.153 OA
BRANCH  32  35
ATOM     35  N   UNL     1     -13.314   7.715   7.717  0.00  0.00    -0.204 NA
ATOM     36  H   UNL     1     -14.073   8.473   7.474  0.00  0.00    +0.144 HD
ATOM     37  H   UNL     1     -13.396   7.441   8.779  0.00  0.00    +0.144 HD
ENDBRANCH  32  35
ENDBRANCH  29  32
ENDBRANCH  25  26
ENDBRANCH  24  25
ENDBRANCH  21  24
ENDBRANCH   5  21
TORSDOF 12
