REMARK  Name = ZINC12470413
REMARK  7 active torsions:
REMARK  status: ('A' for Active; 'I' for Inactive)
REMARK    1  A    between atoms: C_1  and  O_2
REMARK    2  A    between atoms: O_2  and  C_3
REMARK    3  A    between atoms: C_3  and  C_5
REMARK    4  A    between atoms: C_6  and  N_27
REMARK    5  A    between atoms: C_10  and  C_14
REMARK    6  A    between atoms: C_14  and  N_60
REMARK    7  A    between atoms: C_28  and  C_30
REMARK                            x       y       z     vdW  Elec       q    Type
REMARK                         _______ _______ _______ _____ _____    ______ ____
ROOT
ATOM      1  C   UNL     1       1.553  -2.306  -1.960  0.00  0.00    +0.120 A 
ATOM      2  C   UNL     1       1.218  -3.051  -3.070  0.00  0.00    +0.064 A 
ATOM      3  C   UNL     1       0.469  -4.283  -2.874  0.00  0.00    +0.030 A 
ATOM      4  C   UNL     1       0.018  -5.209  -3.848  0.00  0.00    +0.014 A 
ATOM      5  C   UNL     1      -0.685  -6.317  -3.439  0.00  0.00    +0.022 A 
ATOM      6  C   UNL     1      -0.949  -6.523  -2.092  0.00  0.00    +0.026 A 
ATOM      7  N   UNL     1      -0.527  -5.660  -1.189  0.00  0.00    -0.246 NA
ATOM      8  C   UNL     1       0.150  -4.584  -1.531  0.00  0.00    +0.111 A 
ATOM      9  S   UNL     1       0.856  -3.239  -0.611  0.00  0.00    -0.060 S 
ENDROOT
BRANCH   2  10
ATOM     10  N   UNL     1       1.589  -2.638  -4.344  0.00  0.00    -0.280 N 
ATOM     11  C   UNL     1       2.078  -3.532  -5.226  0.00  0.00    +0.251 C 
ATOM     12  O   UNL     1       2.105  -4.715  -4.942  0.00  0.00    -0.270 OA
ATOM     13  H   UNL     1       1.497  -1.707  -4.598  0.00  0.00    +0.155 HD
BRANCH  11  14
ATOM     14  C   UNL     1       2.580  -3.077  -6.535  0.00  0.00    +0.075 A 
ATOM     15  C   UNL     1       3.149  -3.908  -7.607  0.00  0.00    +0.054 A 
ATOM     16  C   UNL     1       3.462  -3.063  -8.601  0.00  0.00    +0.195 A 
ATOM     17  O   UNL     1       3.147  -1.812  -8.231  0.00  0.00    -0.470 OA
ATOM     18  C   UNL     1       2.620  -1.796  -7.003  0.00  0.00    +0.207 A 
ENDBRANCH  11  14
ENDBRANCH   2  10
BRANCH   1  19
ATOM     19  C   UNL     1       2.273  -1.087  -1.905  0.00  0.00    +0.348 C 
ATOM     20  O   UNL     1       2.761  -0.623  -2.919  0.00  0.00    -0.244 OA
BRANCH  19  22
ATOM     21  C   UNL     1       3.156   0.782  -0.748  0.00  0.00    +0.280 C 
ATOM     22  O   UNL     1       2.418  -0.441  -0.729  0.00  0.00    -0.464 OA
ENDBRANCH  19  22
ENDBRANCH   1  19
BRANCH   6  23
ATOM     23  C   UNL     1      -1.721  -7.742  -1.659  0.00  0.00    -0.022 C 
BRANCH  23  34
ATOM     24  C   UNL     1      -0.193  -8.541  -0.002  0.00  0.00    -0.074 C 
ATOM     25  C   UNL     1      -0.898  -9.157   1.167  0.00  0.00    -0.027 C 
ATOM     26  C   UNL     1      -0.414 -10.541   1.531  0.00  0.00    +0.005 C 
ATOM     27  C   UNL     1      -1.033 -11.567   0.597  0.00  0.00    -0.012 C 
ATOM     28  C   UNL     1      -2.548 -11.549   0.807  0.00  0.00    +0.007 C 
ATOM     29  C   UNL     1      -3.072 -10.188   0.341  0.00  0.00    -0.012 C 
ATOM     30  C   UNL     1      -2.408  -9.059   1.109  0.00  0.00    +0.005 C 
ATOM     31  C   UNL     1      -2.849 -10.079  -1.163  0.00  0.00    -0.012 C 
ATOM     32  C   UNL     1      -1.370 -10.109  -1.483  0.00  0.00    -0.068 C 
ATOM     33  C   UNL     1      -0.663 -11.251  -0.836  0.00  0.00    -0.012 C 
ATOM     34  N   UNL     1      -0.744  -8.770  -1.343  0.00  0.00    +0.385 N 
ATOM     35  H   UNL     1       0.027  -8.707  -2.018  0.00  0.00    -0.081 HD
ENDBRANCH  23  34
ENDBRANCH   6  23
TORSDOF 6
