REMARK  Name = ZINC07674349
REMARK  6 active torsions:
REMARK  status: ('A' for Active; 'I' for Inactive)
REMARK    1  A    between atoms: C_1  and  N_39
REMARK    2  A    between atoms: C_2  and  C_3
REMARK    3  A    between atoms: C_2  and  N_39
REMARK    4  A    between atoms: C_9  and  C_10
REMARK    5  A    between atoms: C_9  and  N_39
REMARK    6  A    between atoms: C_16  and  C_21
REMARK                            x       y       z     vdW  Elec       q    Type
REMARK                         _______ _______ _______ _____ _____    ______ ____
ROOT
ATOM      1  C   UNL     1       1.136   3.271   0.008  0.00  0.00    +0.094 A 
ATOM      2  N   UNL     1       1.136   1.914   0.002  0.00  0.00    -0.312 N 
ATOM      3  H   UNL     1       2.007   1.423  -0.009  0.00  0.00    +0.170 HD
ATOM      4  C   UNL     1      -0.015   1.215   0.009  0.00  0.00    +0.260 A 
ATOM      5  O   UNL     1       0.002  -0.004   0.002  0.00  0.00    -0.267 OA
ATOM      6  C   UNL     1      -1.257   1.924   0.018  0.00  0.00    +0.083 A 
ATOM      7  C   UNL     1      -2.619   1.401   0.035  0.00  0.00    +0.039 A 
ATOM      8  C   UNL     1      -3.654   2.278   0.049  0.00  0.00    +0.059 A 
ATOM      9  S   UNL     1      -2.847   3.868   0.048  0.00  0.00    -0.076 S 
ATOM     10  C   UNL     1      -1.158   3.325   0.029  0.00  0.00    +0.116 A 
ATOM     11  N   UNL     1       0.018   3.947   0.021  0.00  0.00    -0.229 NA
ENDROOT
BRANCH   7  12
ATOM     12  C   UNL     1      -2.866  -0.056   0.031  0.00  0.00    +0.136 A 
ATOM     13  C   UNL     1      -3.685  -0.729   0.884  0.00  0.00    +0.050 A 
ATOM     14  C   UNL     1      -3.622  -2.089   0.518  0.00  0.00    +0.042 A 
ATOM     15  C   UNL     1      -2.770  -2.179  -0.521  0.00  0.00    +0.196 A 
ATOM     16  O   UNL     1      -2.315  -0.948  -0.813  0.00  0.00    -0.463 OA
ENDBRANCH   7  12
BRANCH   1  17
ATOM     17  C   UNL     1       2.449   4.012  -0.001  0.00  0.00    -0.003 C 
BRANCH  17  19
ATOM     18  C   UNL     1       1.544   5.887  -1.237  0.00  0.00    -0.095 C 
ATOM     19  N   UNL     1       2.177   5.464   0.030  0.00  0.00    +0.386 N 
ATOM     20  H   UNL     1       1.537   5.667   0.807  0.00  0.00    -0.081 HD
BRANCH  19  21
ATOM     21  C   UNL     1       3.437   6.209   0.238  0.00  0.00    -0.035 C 
BRANCH  21  22
ATOM     22  C   UNL     1       3.108   7.659   0.485  0.00  0.00    -0.025 A 
ATOM     23  C   UNL     1       2.848   8.287   1.657  0.00  0.00    +0.011 A 
ATOM     24  C   UNL     1       2.569   9.641   1.646  0.00  0.00    +0.028 A 
ATOM     25  C   UNL     1       2.564  10.301   0.460  0.00  0.00    +0.078 A 
ATOM     26  S   UNL     1       2.969   8.996  -0.690  0.00  0.00    -0.084 S 
ATOM     27 CL   UNL     1       2.252  11.979   0.144  0.00  0.00    -0.076 Cl
ENDBRANCH  21  22
ENDBRANCH  19  21
ENDBRANCH  17  19
ENDBRANCH   1  17
TORSDOF 5
