REMARK  Name = ZINC50604430
REMARK  8 active torsions:
REMARK  status: ('A' for Active; 'I' for Inactive)
REMARK    1  A    between atoms: C_1  and  C_2
REMARK    2  A    between atoms: C_2  and  C_3
REMARK    3  A    between atoms: C_2  and  C_4
REMARK    4  A    between atoms: C_4  and  C_6
REMARK    5  A    between atoms: C_4  and  C_10
REMARK    6  A    between atoms: N_7  and  O_8
REMARK    7  A    between atoms: N_12  and  C_13
REMARK    8  A    between atoms: C_13  and  C_14
REMARK                            x       y       z     vdW  Elec       q    Type
REMARK                         _______ _______ _______ _____ _____    ______ ____
ROOT
ATOM      1  C   UNL     1      -2.230   0.317  -1.394  0.00  0.00    +0.224 C 
ATOM      2  O   UNL     1      -2.788  -0.353  -2.237  0.00  0.00    -0.275 OA
ATOM      3  N   UNL     1      -2.220   1.660  -1.498  0.00  0.00    -0.314 N 
ATOM      4  H   UNL     1      -1.709   2.192  -0.867  0.00  0.00    +0.149 HD
ENDROOT
BRANCH   1   5
ATOM      5  C   UNL     1      -1.548  -0.354  -0.229  0.00  0.00    +0.144 C 
BRANCH   5   6
ATOM      6  C   UNL     1      -1.987  -1.793  -0.150  0.00  0.00    +0.144 C 
ATOM      7  N   UNL     1      -1.284  -2.716  -0.720  0.00  0.00    -0.076 NA
ATOM      8  N   UNL     1      -3.138  -2.126   0.528  0.00  0.00    -0.343 N 
ATOM      9  H   UNL     1      -3.666  -1.433   0.956  0.00  0.00    +0.144 HD
ATOM     10  H   UNL     1      -3.421  -3.052   0.579  0.00  0.00    +0.144 HD
BRANCH   7  11
ATOM     11  O   UNL     1      -1.697  -4.068  -0.646  0.00  0.00    -0.408 OA
ATOM     12  H   UNL     1      -1.108  -4.685  -1.101  0.00  0.00    +0.328 HD
ENDBRANCH   7  11
ENDBRANCH   5   6
BRANCH   5  14
ATOM     13  C   UNL     1       0.657  -1.090   0.687  0.00  0.00    +0.008 C 
ATOM     14  C   UNL     1      -0.031  -0.294  -0.423  0.00  0.00    +0.002 C 
ATOM     15  C   UNL     1       0.334  -0.894  -1.782  0.00  0.00    +0.008 C 
ENDBRANCH   5  14
ENDBRANCH   1   5
BRANCH   3  16
ATOM     16  C   UNL     1      -2.980   2.318  -2.564  0.00  0.00    +0.109 C 
BRANCH  16  17
ATOM     17  C   UNL     1      -2.800   3.834  -2.458  0.00  0.00    +0.029 C 
ATOM     18  C   UNL     1      -1.331   4.194  -2.737  0.00  0.00    +0.029 C 
ATOM     19  C   UNL     1      -1.240   5.734  -2.933  0.00  0.00    +0.166 C 
ATOM     20  S   UNL     1      -2.759   6.038  -3.929  0.00  0.00    -0.031 S 
ATOM     21  O   UNL     1      -2.426   5.985  -5.309  0.00  0.00    -0.174 OA
ATOM     22  O   UNL     1      -3.428   7.182  -3.415  0.00  0.00    -0.174 OA
ATOM     23  C   UNL     1      -3.719   4.534  -3.488  0.00  0.00    +0.171 C 
ENDBRANCH  16  17
ENDBRANCH   3  16
TORSDOF 6
