REMARK  Name = ZINC05594170
REMARK  3 active torsions:
REMARK  status: ('A' for Active; 'I' for Inactive)
REMARK    1  A    between atoms: C_7  and  C_11
REMARK    2  A    between atoms: N_17  and  C_18
REMARK    3  A    between atoms: C_23  and  N_24
REMARK                            x       y       z     vdW  Elec       q    Type
REMARK                         _______ _______ _______ _____ _____    ______ ____
ROOT
ATOM      1  C   UNL     1      -0.008   1.075  -0.020  0.00  0.00    +0.177 C 
ATOM      2  C   UNL     1      -0.210   1.703  -1.382  0.00  0.00    +0.193 C 
ATOM      3  O   UNL     1      -1.135   2.066  -2.067  0.00  0.00    -0.292 OA
ATOM      4  C   UNL     1       1.299   1.659  -1.476  0.00  0.00    +0.236 C 
ATOM      5  N   UNL     1       1.332   1.693  -0.002  0.00  0.00    -0.292 N 
ATOM      6 CL   UNL     1       2.015   3.123  -2.246  0.00  0.00    -0.092 Cl
ENDROOT
BRANCH   1  13
ATOM      7  C   UNL     1      -3.807  -0.658   2.110  0.00  0.00    +0.001 A 
ATOM      8  C   UNL     1      -4.351   0.216   3.041  0.00  0.00    +0.002 A 
ATOM      9  C   UNL     1      -3.781   1.450   3.263  0.00  0.00    +0.026 A 
ATOM     10  C   UNL     1      -2.648   1.826   2.549  0.00  0.00    +0.047 A 
ATOM     11  C   UNL     1      -2.103   0.939   1.603  0.00  0.00    +0.005 A 
ATOM     12  C   UNL     1      -2.694  -0.309   1.398  0.00  0.00    +0.010 A 
ATOM     13  C   UNL     1      -0.935   1.618   1.037  0.00  0.00    +0.005 A 
ATOM     14  C   UNL     1      -0.850   2.817   1.635  0.00  0.00    +0.089 A 
ATOM     15  N   UNL     1      -1.865   2.959   2.542  0.00  0.00    -0.360 N 
ATOM     16  H   UNL     1      -2.011   3.741   3.097  0.00  0.00    +0.165 HD
ENDBRANCH   1  13
BRANCH   5  17
ATOM     17  C   UNL     1       2.286   0.804   0.499  0.00  0.00    +0.062 A 
ATOM     18  C   UNL     1       2.421  -0.460  -0.060  0.00  0.00    +0.025 A 
ATOM     19  C   UNL     1       3.369  -1.335   0.433  0.00  0.00    +0.002 A 
ATOM     20  C   UNL     1       4.176  -0.956   1.491  0.00  0.00    +0.002 A 
ATOM     21  C   UNL     1       4.041   0.299   2.053  0.00  0.00    +0.034 A 
ATOM     22  C   UNL     1       3.099   1.181   1.561  0.00  0.00    +0.147 A 
BRANCH  22  23
ATOM     23  N   UNL     1       2.955   2.525   2.163  0.00  0.00    +0.058 N 
ATOM     24  O   UNL     1       3.668   2.854   3.094  0.00  0.00    -0.126 OA
ATOM     25  O   UNL     1       2.124   3.302   1.728  0.00  0.00    -0.126 OA
ENDBRANCH  22  23
ENDBRANCH   5  17
TORSDOF 3
