REMARK  Name = ZINC43741219
REMARK  7 active torsions:
REMARK  status: ('A' for Active; 'I' for Inactive)
REMARK    1  A    between atoms: C_4  and  C_7
REMARK    2  A    between atoms: C_7  and  C_8
REMARK    3  A    between atoms: C_8  and  C_9
REMARK    4  A    between atoms: N_28  and  C_31
REMARK    5  A    between atoms: C_31  and  C_32
REMARK    6  A    between atoms: C_32  and  C_34
REMARK    7  A    between atoms: C_32  and  O_40
REMARK                            x       y       z     vdW  Elec       q    Type
REMARK                         _______ _______ _______ _____ _____    ______ ____
ROOT
ATOM      1  C   UNL     1       5.536  -1.644   1.278  0.00  0.00    +0.124 C 
ATOM      2  C   UNL     1       6.012  -2.087   2.643  0.00  0.00    +0.041 A 
ATOM      3  C   UNL     1       7.250  -1.832   3.120  0.00  0.00    -0.015 A 
ATOM      4  C   UNL     1       7.322  -2.415   4.445  0.00  0.00    +0.003 A 
ATOM      5  C   UNL     1       8.339  -2.470   5.403  0.00  0.00    +0.010 A 
ATOM      6  C   UNL     1       8.050  -3.120   6.577  0.00  0.00    +0.001 A 
ATOM      7  C   UNL     1       6.814  -3.698   6.814  0.00  0.00    +0.002 A 
ATOM      8  C   UNL     1       5.790  -3.660   5.884  0.00  0.00    +0.026 A 
ATOM      9  C   UNL     1       6.054  -3.006   4.682  0.00  0.00    +0.047 A 
ATOM     10  N   UNL     1       5.290  -2.788   3.572  0.00  0.00    -0.356 N 
ATOM     11  H   UNL     1       4.373  -3.084   3.458  0.00  0.00    +0.166 HD
ATOM     12  C   UNL     1       8.318  -1.073   2.375  0.00  0.00    +0.069 C 
ATOM     13  C   UNL     1       7.947  -1.028   0.886  0.00  0.00    +0.167 C 
ATOM     14  N   UNL     1       6.531  -0.685   0.751  0.00  0.00    -0.280 N 
ATOM     15  C   UNL     1       6.104   0.444   0.184  0.00  0.00    +0.234 C 
ATOM     16  O   UNL     1       4.911   0.662   0.186  0.00  0.00    -0.274 OA
ATOM     17  C   UNL     1       6.996   1.459  -0.454  0.00  0.00    +0.203 C 
ATOM     18  N   UNL     1       8.393   1.058  -0.417  0.00  0.00    -0.288 N 
ATOM     19  C   UNL     1       8.818  -0.038   0.181  0.00  0.00    +0.237 C 
ATOM     20  O   UNL     1      10.010  -0.258   0.142  0.00  0.00    -0.274 OA
ENDROOT
BRANCH   1  21
ATOM     21  C   UNL     1       4.171  -0.963   1.399  0.00  0.00    +0.033 C 
BRANCH  21  22
ATOM     22  C   UNL     1       4.271   0.211   2.375  0.00  0.00    +0.037 C 
BRANCH  22  26
ATOM     23  C   UNL     1       0.568   2.339   2.429  0.00  0.00    +0.000 A 
ATOM     24  C   UNL     1       0.776   1.291   3.306  0.00  0.00    +0.000 A 
ATOM     25  C   UNL     1       1.974   0.602   3.288  0.00  0.00    +0.003 A 
ATOM     26  C   UNL     1       2.965   0.961   2.393  0.00  0.00    -0.047 A 
ATOM     27  C   UNL     1       2.756   2.009   1.516  0.00  0.00    +0.003 A 
ATOM     28  C   UNL     1       1.559   2.699   1.534  0.00  0.00    +0.000 A 
ENDBRANCH  22  26
ENDBRANCH  21  22
ENDBRANCH   1  21
BRANCH  18  29
ATOM     29  C   UNL     1       9.377   1.925  -1.069  0.00  0.00    +0.144 C 
BRANCH  29  30
ATOM     30  C   UNL     1       9.896   2.954  -0.062  0.00  0.00    +0.162 C 
BRANCH  30  31
ATOM     31  C   UNL     1      10.816   3.922  -0.761  0.00  0.00    -0.018 A 
ATOM     32  C   UNL     1      12.124   3.564  -1.026  0.00  0.00    +0.006 A 
ATOM     33  C   UNL     1      12.967   4.452  -1.667  0.00  0.00    +0.000 A 
ATOM     34  C   UNL     1      12.502   5.697  -2.045  0.00  0.00    +0.000 A 
ATOM     35  C   UNL     1      11.193   6.055  -1.781  0.00  0.00    +0.000 A 
ATOM     36  C   UNL     1      10.348   5.165  -1.143  0.00  0.00    +0.006 A 
ENDBRANCH  30  31
BRANCH  30  37
ATOM     37  O   UNL     1      10.612   2.284   0.978  0.00  0.00    -0.386 OA
ATOM     38  H   UNL     1      11.376   1.778   0.667  0.00  0.00    +0.210 HD
ENDBRANCH  30  37
ENDBRANCH  29  30
ENDBRANCH  18  29
TORSDOF 7
