REMARK  Name = ZINC35934079
REMARK  10 active torsions:
REMARK  status: ('A' for Active; 'I' for Inactive)
REMARK    1  A    between atoms: C_1  and  C_2
REMARK    2  A    between atoms: C_8  and  C_10
REMARK    3  A    between atoms: C_10  and  C_12
REMARK    4  A    between atoms: C_10  and  N_16
REMARK    5  A    between atoms: C_12  and  C_13
REMARK    6  A    between atoms: C_13  and  C_14
REMARK    7  A    between atoms: C_13  and  C_15
REMARK    8  A    between atoms: C_22  and  C_29
REMARK    9  A    between atoms: N_27  and  C_28
REMARK   10  A    between atoms: C_34  and  C_35
REMARK                            x       y       z     vdW  Elec       q    Type
REMARK                         _______ _______ _______ _____ _____    ______ ____
ROOT
ATOM      1  N   UNL     1       4.206  -3.023   1.557  0.00  0.00    -0.281 N 
ATOM      2  C   UNL     1       4.632  -4.426   1.667  0.00  0.00    +0.160 C 
ATOM      3  C   UNL     1       5.510  -4.663   0.459  0.00  0.00    +0.042 C 
ATOM      4  C   UNL     1       5.542  -3.498  -0.220  0.00  0.00    +0.058 C 
ATOM      5  C   UNL     1       4.760  -2.526   0.436  0.00  0.00    +0.247 C 
ATOM      6  O   UNL     1       4.607  -1.384   0.041  0.00  0.00    -0.270 OA
ATOM      7  C   UNL     1       6.362  -3.448  -1.494  0.00  0.00    +0.142 C 
ATOM      8  N   UNL     1       7.059  -4.684  -1.887  0.00  0.00    -0.288 N 
ATOM      9  C   UNL     1       6.930  -5.771  -1.102  0.00  0.00    +0.307 C 
ATOM     10  O   UNL     1       7.502  -6.796  -1.418  0.00  0.00    -0.252 OA
ATOM     11  N   UNL     1       6.191  -5.760   0.015  0.00  0.00    -0.260 N 
ATOM     12  C   UNL     1       6.110  -6.991   0.804  0.00  0.00    +0.139 C 
ATOM     13  H   UNL     1       7.599  -4.714  -2.692  0.00  0.00    +0.151 HD
ENDROOT
BRANCH   7  14
ATOM     14  C   UNL     1       5.443  -3.054  -2.622  0.00  0.00    -0.011 A 
ATOM     15  C   UNL     1       4.493  -3.946  -3.083  0.00  0.00    +0.006 A 
ATOM     16  C   UNL     1       3.651  -3.586  -4.118  0.00  0.00    +0.000 A 
ATOM     17  C   UNL     1       3.758  -2.332  -4.692  0.00  0.00    +0.001 A 
ATOM     18  C   UNL     1       4.708  -1.440  -4.230  0.00  0.00    +0.013 A 
ATOM     19  C   UNL     1       5.547  -1.800  -3.192  0.00  0.00    +0.060 A 
BRANCH  19  20
ATOM     20  C   UNL     1       6.579  -0.825  -2.686  0.00  0.00    +0.418 C 
ATOM     21  F   UNL     1       6.493   0.366  -3.415  0.00  0.00    -0.166 F 
ATOM     22  F   UNL     1       6.346  -0.561  -1.332  0.00  0.00    -0.166 F 
ATOM     23  F   UNL     1       7.856  -1.375  -2.841  0.00  0.00    -0.166 F 
ENDBRANCH  19  20
ENDBRANCH   7  14
BRANCH   1  24
ATOM     24  C   UNL     1       3.336  -2.303   2.490  0.00  0.00    +0.163 C 
BRANCH  24  32
ATOM     25  C   UNL     1      -0.884   2.079   3.990  0.00  0.00    +0.007 C 
ATOM     26  C   UNL     1      -0.543   0.620   3.680  0.00  0.00    -0.011 C 
ATOM     27  C   UNL     1      -0.547   0.406   2.165  0.00  0.00    +0.022 C 
ATOM     28  C   UNL     1      -0.240  -1.064   1.860  0.00  0.00    +0.108 C 
ATOM     29  N   UNL     1       1.022  -1.429   2.517  0.00  0.00    -0.300 N 
ATOM     30  C   UNL     1       1.166  -1.181   3.958  0.00  0.00    +0.108 C 
ATOM     31  C   UNL     1       0.843   0.290   4.240  0.00  0.00    +0.022 C 
ATOM     32  C   UNL     1       2.029  -1.982   1.812  0.00  0.00    +0.236 C 
ATOM     33  O   UNL     1       1.883  -2.221   0.632  0.00  0.00    -0.274 OA
ENDBRANCH  24  32
BRANCH  24  34
ATOM     34  C   UNL     1       4.018  -1.004   2.923  0.00  0.00    +0.035 C 
BRANCH  34  35
ATOM     35  C   UNL     1       5.181  -1.327   3.864  0.00  0.00    -0.015 C 
ATOM     36  C   UNL     1       6.285  -2.043   3.083  0.00  0.00    +0.007 C 
ATOM     37  C   UNL     1       5.734  -0.030   4.456  0.00  0.00    +0.007 C 
ENDBRANCH  34  35
ENDBRANCH  24  34
ENDBRANCH   1  24
TORSDOF 6
