REMARK  Name = ZINC19853962
REMARK  5 active torsions:
REMARK  status: ('A' for Active; 'I' for Inactive)
REMARK    1  A    between atoms: C_1  and  C_2
REMARK    2  A    between atoms: C_6  and  C_8
REMARK    3  A    between atoms: C_8  and  N_9
REMARK    4  A    between atoms: C_11  and  C_18
REMARK    5  A    between atoms: C_28  and  C_30
REMARK                            x       y       z     vdW  Elec       q    Type
REMARK                         _______ _______ _______ _____ _____    ______ ____
ROOT
ATOM      1  C   UNL     1       4.453  -5.031   3.106  0.00  0.00    +0.026 C 
ATOM      2  C   UNL     1       4.154  -6.381   3.154  0.00  0.00    +0.079 C 
ATOM      3  C   UNL     1       5.220  -7.418   3.206  0.00  0.00    +0.132 C 
ATOM      4  N   UNL     1       6.367  -7.239   3.808  0.00  0.00    -0.385 N 
ATOM      5  N   UNL     1       4.871  -8.613   2.541  0.00  0.00    -0.153 N 
ATOM      6  C   UNL     1       3.529  -8.884   2.381  0.00  0.00    +0.181 C 
ATOM      7  N   UNL     1       2.518  -8.113   2.691  0.00  0.00    -0.152 NA
ATOM      8  C   UNL     1       2.756  -6.870   3.162  0.00  0.00    +0.273 C 
ATOM      9  O   UNL     1       1.847  -6.168   3.578  0.00  0.00    -0.268 OA
ATOM     10  S   UNL     1       3.557 -10.498   1.646  0.00  0.00    -0.033 S 
ATOM     11  C   UNL     1       5.331 -10.663   1.507  0.00  0.00    +0.131 C 
ATOM     12  N   UNL     1       5.757  -9.545   2.043  0.00  0.00    -0.164 NA
ATOM     13  H   UNL     1       6.556  -6.397   4.251  0.00  0.00    +0.157 HD
ATOM     14  H   UNL     1       7.028  -7.949   3.813  0.00  0.00    +0.157 HD
ENDROOT
BRANCH   1  17
ATOM     15  N   UNL     1       1.554  -3.128   2.142  0.00  0.00    -0.342 N 
ATOM     16  C   UNL     1       2.302  -4.248   2.099  0.00  0.00    +0.095 A 
ATOM     17  C   UNL     1       3.424  -4.087   2.888  0.00  0.00    +0.001 A 
ATOM     18  C   UNL     1       3.332  -2.728   3.460  0.00  0.00    +0.007 A 
ATOM     19  C   UNL     1       2.144  -2.178   2.952  0.00  0.00    +0.050 A 
ATOM     20  C   UNL     1       1.783  -0.885   3.315  0.00  0.00    +0.026 A 
ATOM     21  C   UNL     1       2.591  -0.157   4.162  0.00  0.00    +0.002 A 
ATOM     22  C   UNL     1       3.765  -0.702   4.660  0.00  0.00    +0.001 A 
ATOM     23  C   UNL     1       4.136  -1.985   4.318  0.00  0.00    +0.010 A 
BRANCH  15  24
ATOM     24  C   UNL     1       0.291  -2.942   1.424  0.00  0.00    +0.157 C 
BRANCH  24  30
ATOM     25  C   UNL     1       0.755   1.263  -1.251  0.00  0.00    +0.044 C 
ATOM     26  C   UNL     1       0.779  -0.242  -1.170  0.00  0.00    -0.050 A 
ATOM     27  C   UNL     1       1.045  -0.991  -2.301  0.00  0.00    +0.003 A 
ATOM     28  C   UNL     1       1.067  -2.371  -2.227  0.00  0.00    +0.001 A 
ATOM     29  C   UNL     1       0.823  -3.002  -1.021  0.00  0.00    +0.005 A 
ATOM     30  C   UNL     1       0.558  -2.253   0.110  0.00  0.00    -0.028 A 
ATOM     31  C   UNL     1       0.540  -0.873   0.036  0.00  0.00    +0.008 A 
ENDBRANCH  24  30
ENDBRANCH  15  24
ENDBRANCH   1  17
BRANCH  11  32
ATOM     32  C   UNL     1       6.118 -11.777   0.934  0.00  0.00    +0.027 A 
ATOM     33  C   UNL     1       5.470 -12.891   0.401  0.00  0.00    +0.012 A 
ATOM     34  C   UNL     1       6.209 -13.927  -0.132  0.00  0.00    +0.001 A 
ATOM     35  C   UNL     1       7.591 -13.863  -0.139  0.00  0.00    +0.001 A 
ATOM     36  C   UNL     1       8.241 -12.762   0.388  0.00  0.00    +0.020 A 
ATOM     37  C   UNL     1       7.513 -11.715   0.919  0.00  0.00    +0.051 A 
ATOM     38 CL   UNL     1       8.329 -10.331   1.574  0.00  0.00    -0.083 Cl
ENDBRANCH  11  32
TORSDOF 4
