REMARK  Name = ZINC57933002
REMARK  10 active torsions:
REMARK  status: ('A' for Active; 'I' for Inactive)
REMARK    1  A    between atoms: C_1  and  C_2
REMARK    2  A    between atoms: C_2  and  C_4
REMARK    3  A    between atoms: C_2  and  N_13
REMARK    4  A    between atoms: N_9  and  C_10
REMARK    5  A    between atoms: C_10  and  C_11
REMARK    6  A    between atoms: C_10  and  C_12
REMARK    7  A    between atoms: N_13  and  C_14
REMARK    8  A    between atoms: C_17  and  C_20
REMARK    9  A    between atoms: C_20  and  C_21
REMARK   10  A    between atoms: C_21  and  N_22
REMARK                            x       y       z     vdW  Elec       q    Type
REMARK                         _______ _______ _______ _____ _____    ______ ____
ROOT
ATOM      1  N   UNL     1       0.700  -0.428  -1.161  0.00  0.00    -0.333 N 
ATOM      2  H   UNL     1       0.198  -0.606  -1.971  0.00  0.00    +0.147 HD
ENDROOT
BRANCH   1   3
ATOM      3  C   UNL     1       2.092  -0.547  -1.161  0.00  0.00    +0.028 A 
ATOM      4  C   UNL     1       2.812  -0.299   0.001  0.00  0.00    +0.023 A 
ATOM      5  C   UNL     1       4.188  -0.418  -0.003  0.00  0.00    +0.005 A 
ATOM      6  C   UNL     1       4.849  -0.784  -1.162  0.00  0.00    -0.049 A 
ATOM      7  C   UNL     1       4.135  -1.032  -2.320  0.00  0.00    +0.005 A 
ATOM      8  C   UNL     1       2.758  -0.920  -2.321  0.00  0.00    +0.023 A 
BRANCH   6   9
ATOM      9  C   UNL     1       6.350  -0.912  -1.162  0.00  0.00    +0.016 C 
BRANCH   9  10
ATOM     10  C   UNL     1       6.740  -2.344  -0.791  0.00  0.00    -0.074 C 
BRANCH  10  11
ATOM     11  N   UNL     1       8.195  -2.504  -0.918  0.00  0.00    +0.381 N 
ATOM     12  C   UNL     1       8.539  -3.917  -0.748  0.00  0.00    -0.068 C 
ATOM     13  C   UNL     1       9.970  -4.167  -1.237  0.00  0.00    +0.050 C 
ATOM     14  S   UNL     1      11.105  -3.181  -0.211  0.00  0.00    -0.164 S 
ATOM     15  C   UNL     1      10.346  -1.527  -0.255  0.00  0.00    +0.050 C 
ATOM     16  C   UNL     1       8.858  -1.672   0.088  0.00  0.00    -0.068 C 
ATOM     17  H   UNL     1       8.482  -2.203  -1.837  0.00  0.00    -0.082 HD
ENDBRANCH  10  11
ENDBRANCH   9  10
ENDBRANCH   6   9
ENDBRANCH   1   3
BRANCH   1  19
ATOM     18  C   UNL     1      -0.017   1.491   0.175  0.00  0.00    +0.038 C 
ATOM     19  C   UNL     1      -0.001  -0.035   0.064  0.00  0.00    +0.154 C 
BRANCH  19  20
ATOM     20  C   UNL     1      -1.416  -0.550   0.020  0.00  0.00    +0.240 C 
ATOM     21  O   UNL     1      -1.801  -1.183  -0.939  0.00  0.00    -0.273 OA
ATOM     22  N   UNL     1      -2.254  -0.307   1.048  0.00  0.00    -0.239 N 
ATOM     23  C   UNL     1      -3.520  -0.768   1.008  0.00  0.00    +0.306 C 
ATOM     24  O   UNL     1      -3.906  -1.402   0.047  0.00  0.00    -0.252 OA
ATOM     25  N   UNL     1      -4.358  -0.524   2.036  0.00  0.00    -0.297 N 
ATOM     26  H   UNL     1      -1.946   0.200   1.815  0.00  0.00    +0.159 HD
ATOM     27  H   UNL     1      -4.050  -0.018   2.804  0.00  0.00    +0.151 HD
BRANCH  25  28
ATOM     28  C   UNL     1      -5.734  -1.026   1.993  0.00  0.00    +0.068 C 
ATOM     29  C   UNL     1      -5.767  -2.469   2.499  0.00  0.00    +0.027 C 
ATOM     30  C   UNL     1      -6.622  -0.153   2.882  0.00  0.00    +0.027 C 
ENDBRANCH  25  28
ENDBRANCH  19  20
ENDBRANCH   1  19
TORSDOF 7
