REMARK  Name = ZINC01782129
REMARK  3 active torsions:
REMARK  status: ('A' for Active; 'I' for Inactive)
REMARK    1  A    between atoms: C_1  and  C_2
REMARK    2  A    between atoms: C_5  and  C_8
REMARK    3  A    between atoms: C_19  and  C_23
REMARK                            x       y       z     vdW  Elec       q    Type
REMARK                         _______ _______ _______ _____ _____    ______ ____
ROOT
ATOM      1  C   UNL     1      -1.092   1.892   0.017  0.00  0.00    +0.047 C 
ATOM      2  C   UNL     1      -0.013   1.076   0.008  0.00  0.00    +0.023 C 
ATOM      3  C   UNL     1       1.162   2.016   0.002  0.00  0.00    +0.138 C 
ATOM      4  C   UNL     1       2.336   1.637   0.843  0.00  0.00    +0.017 A 
ATOM      5  C   UNL     1       2.762   0.332   0.949  0.00  0.00    +0.009 A 
ATOM      6  C   UNL     1       3.861   0.021   1.730  0.00  0.00    +0.001 A 
ATOM      7  C   UNL     1       4.531   1.025   2.404  0.00  0.00    +0.004 A 
ATOM      8  C   UNL     1       4.106   2.333   2.305  0.00  0.00    +0.046 A 
ATOM      9  C   UNL     1       2.999   2.655   1.527  0.00  0.00    +0.128 A 
ATOM     10  O   UNL     1       2.593   3.951   1.464  0.00  0.00    -0.468 OA
ATOM     11  C   UNL     1       1.488   4.301   0.611  0.00  0.00    +0.295 C 
ATOM     12  N   UNL     1       0.543   3.211   0.655  0.00  0.00    -0.175 NA
ATOM     13  N   UNL     1      -0.662   3.241   0.041  0.00  0.00    -0.273 N 
ATOM     14  H   UNL     1      -1.128   4.016  -0.311  0.00  0.00    +0.167 HD
ENDROOT
BRANCH   1  19
ATOM     15  C   UNL     1      -6.580   0.152  -0.027  0.00  0.00    +0.044 C 
ATOM     16  C   UNL     1      -5.143   0.607  -0.015  0.00  0.00    -0.050 A 
ATOM     17  C   UNL     1      -4.849   1.959   0.006  0.00  0.00    +0.004 A 
ATOM     18  C   UNL     1      -3.536   2.382   0.017  0.00  0.00    +0.010 A 
ATOM     19  C   UNL     1      -2.504   1.445   0.006  0.00  0.00    -0.003 A 
ATOM     20  C   UNL     1      -2.807   0.084  -0.020  0.00  0.00    +0.010 A 
ATOM     21  C   UNL     1      -4.124  -0.328  -0.025  0.00  0.00    +0.004 A 
ENDBRANCH   1  19
BRANCH  11  22
ATOM     22  C   UNL     1       0.836   5.566   1.107  0.00  0.00    +0.027 A 
ATOM     23  C   UNL     1      -0.378   5.506   1.765  0.00  0.00    +0.010 A 
ATOM     24  C   UNL     1      -0.977   6.666   2.220  0.00  0.00    +0.001 A 
ATOM     25  C   UNL     1      -0.361   7.887   2.018  0.00  0.00    +0.001 A 
ATOM     26  C   UNL     1       0.853   7.949   1.360  0.00  0.00    +0.020 A 
ATOM     27  C   UNL     1       1.455   6.787   0.909  0.00  0.00    +0.049 A 
ATOM     28 CL   UNL     1       2.983   6.863   0.089  0.00  0.00    -0.083 Cl
ENDBRANCH  11  22
TORSDOF 2
