REMARK  Name = ZINC31609076
REMARK  7 active torsions:
REMARK  status: ('A' for Active; 'I' for Inactive)
REMARK    1  A    between atoms: C_1  and  C_2
REMARK    2  A    between atoms: C_12  and  C_16
REMARK    3  A    between atoms: N_18  and  C_19
REMARK    4  A    between atoms: C_23  and  N_25
REMARK    5  A    between atoms: C_26  and  C_28
REMARK    6  A    between atoms: C_28  and  C_30
REMARK    7  A    between atoms: C_28  and  N_31
REMARK                            x       y       z     vdW  Elec       q    Type
REMARK                         _______ _______ _______ _____ _____    ______ ____
ROOT
ATOM      1  C   UNL     1       3.047   3.700  -0.155  0.00  0.00    +0.250 C 
ATOM      2  O   UNL     1       3.939   2.889  -0.314  0.00  0.00    -0.270 OA
ATOM      3  N   UNL     1       3.342   5.006  -0.000  0.00  0.00    -0.281 N 
ATOM      4  H   UNL     1       2.534   5.750   0.060  0.00  0.00    +0.155 HD
ENDROOT
BRANCH   1  15
ATOM      5  C   UNL     1      -1.804  -3.278  -0.969  0.00  0.00    +0.008 C 
ATOM      6  C   UNL     1      -0.710  -2.221  -1.135  0.00  0.00    -0.009 C 
ATOM      7  C   UNL     1       0.564  -2.688  -0.424  0.00  0.00    +0.009 C 
ATOM      8  C   UNL     1       1.726  -1.760  -0.794  0.00  0.00    +0.054 C 
ATOM      9  C   UNL     1       1.284  -0.330  -0.580  0.00  0.00    +0.020 A 
ATOM     10  C   UNL     1      -0.004   0.043  -0.457  0.00  0.00    -0.019 A 
ATOM     11  C   UNL     1      -0.019   1.490  -0.264  0.00  0.00    +0.004 A 
ATOM     12  C   UNL     1      -1.028   2.437  -0.074  0.00  0.00    +0.010 A 
ATOM     13  C   UNL     1      -0.705   3.768   0.078  0.00  0.00    +0.001 A 
ATOM     14  C   UNL     1       0.616   4.180   0.054  0.00  0.00    +0.015 A 
ATOM     15  C   UNL     1       1.641   3.255  -0.130  0.00  0.00    +0.061 A 
ATOM     16  C   UNL     1       1.328   1.895  -0.290  0.00  0.00    +0.059 A 
ATOM     17  N   UNL     1       2.090   0.769  -0.482  0.00  0.00    -0.357 N 
ATOM     18  H   UNL     1       3.182   0.660  -0.560  0.00  0.00    +0.166 HD
ATOM     19  C   UNL     1      -1.179  -0.898  -0.517  0.00  0.00    +0.040 C 
ENDBRANCH   1  15
BRANCH   3  20
ATOM     20  C   UNL     1       4.677   5.416   0.083  0.00  0.00    +0.035 A 
ATOM     21  C   UNL     1       5.060   6.647  -0.435  0.00  0.00    +0.023 A 
ATOM     22  C   UNL     1       6.378   7.052  -0.354  0.00  0.00    +0.004 A 
ATOM     23  C   UNL     1       7.320   6.235   0.242  0.00  0.00    +0.023 A 
ATOM     24  C   UNL     1       6.943   5.003   0.762  0.00  0.00    +0.035 A 
ATOM     25  C   UNL     1       5.619   4.596   0.687  0.00  0.00    +0.046 A 
BRANCH  24  26
ATOM     26  N   UNL     1       7.897   4.176   1.365  0.00  0.00    -0.284 N 
ATOM     27  C   UNL     1       8.901   4.718   2.084  0.00  0.00    +0.242 C 
ATOM     28  O   UNL     1       9.026   5.923   2.138  0.00  0.00    -0.273 OA
ATOM     29  H   UNL     1       7.828   3.084   1.253  0.00  0.00    +0.155 HD
BRANCH  27  30
ATOM     30  C   UNL     1       9.867   3.826   2.819  0.00  0.00    +0.190 C 
ATOM     31  C   UNL     1       9.104   2.974   3.835  0.00  0.00    +0.042 C 
BRANCH  30  32
ATOM     32  N   UNL     1      10.857   4.650   3.519  0.00  0.00    -0.260 N 
ATOM     33  C   UNL     1      10.706   5.206   4.739  0.00  0.00    +0.109 A 
ATOM     34  C   UNL     1      11.842   5.883   5.026  0.00  0.00    +0.041 A 
ATOM     35  C   UNL     1      12.713   5.743   3.941  0.00  0.00    +0.134 A 
ATOM     36  N   UNL     1      12.123   5.004   3.036  0.00  0.00    -0.179 NA
ENDBRANCH  30  32
ENDBRANCH  27  30
ENDBRANCH  24  26
ENDBRANCH   3  20
TORSDOF 5
