REMARK  Name = ZINC19940367
REMARK  9 active torsions:
REMARK  status: ('A' for Active; 'I' for Inactive)
REMARK    1  A    between atoms: C_1  and  C_2
REMARK    2  A    between atoms: C_2  and  O_3
REMARK    3  A    between atoms: O_3  and  C_4
REMARK    4  A    between atoms: C_11  and  C_16
REMARK    5  A    between atoms: C_16  and  C_18
REMARK    6  A    between atoms: C_16  and  N_30
REMARK    7  A    between atoms: N_22  and  C_23
REMARK    8  A    between atoms: C_23  and  C_24
REMARK    9  A    between atoms: N_33  and  C_36
REMARK                            x       y       z     vdW  Elec       q    Type
REMARK                         _______ _______ _______ _____ _____    ______ ____
ROOT
ATOM      1  C   UNL     1       2.936  -6.255  -5.079  0.00  0.00    +0.162 C 
ENDROOT
BRANCH   1   9
ATOM      2  C   UNL     1       2.057  -4.564   0.819  0.00  0.00    +0.121 A 
ATOM      3  C   UNL     1       0.831  -3.935   0.614  0.00  0.00    +0.047 A 
ATOM      4  C   UNL     1       0.274  -3.878  -0.645  0.00  0.00    +0.030 A 
ATOM      5  C   UNL     1       0.931  -4.462  -1.723  0.00  0.00    +0.049 A 
ATOM      6  C   UNL     1       2.167  -5.103  -1.518  0.00  0.00    +0.002 A 
ATOM      7  C   UNL     1       2.725  -5.150  -0.236  0.00  0.00    +0.055 A 
ATOM      8  C   UNL     1       2.848  -5.713  -2.662  0.00  0.00    +0.021 A 
ATOM      9  C   UNL     1       2.261  -5.638  -3.882  0.00  0.00    +0.042 A 
ATOM     10  C   UNL     1       1.020  -4.983  -4.034  0.00  0.00    +0.254 A 
ATOM     11  O   UNL     1       0.510  -4.926  -5.140  0.00  0.00    -0.268 OA
ATOM     12  N   UNL     1       0.387  -4.420  -2.990  0.00  0.00    -0.322 N 
ATOM     13  H   UNL     1      -0.579  -3.920  -3.158  0.00  0.00    +0.169 HD
BRANCH   2  14
ATOM     14  O   UNL     1       2.594  -4.606   2.067  0.00  0.00    -0.492 OA
BRANCH  14  16
ATOM     15  C   UNL     1       2.608  -4.129   4.436  0.00  0.00    +0.048 C 
ATOM     16  C   UNL     1       1.851  -3.981   3.115  0.00  0.00    +0.225 C 
ENDBRANCH  14  16
ENDBRANCH   2  14
ENDBRANCH   1   9
BRANCH   1  17
ATOM     17  N   UNL     1       2.057  -7.278  -5.663  0.00  0.00    -0.286 NA
ATOM     18  C   UNL     1       1.683  -8.285  -4.661  0.00  0.00    +0.104 C 
ATOM     19  C   UNL     1       0.707  -9.285  -5.286  0.00  0.00    +0.120 C 
ATOM     20  N   UNL     1       1.337  -9.916  -6.454  0.00  0.00    -0.327 N 
ATOM     21  C   UNL     1       1.712  -8.909  -7.456  0.00  0.00    +0.120 C 
ATOM     22  C   UNL     1       2.688  -7.910  -6.830  0.00  0.00    +0.104 C 
BRANCH  20  23
ATOM     23  C   UNL     1       0.502 -10.889  -7.009  0.00  0.00    +0.030 A 
ATOM     24  C   UNL     1       0.134 -10.809  -8.346  0.00  0.00    +0.023 A 
ATOM     25  C   UNL     1      -0.688 -11.774  -8.893  0.00  0.00    +0.002 A 
ATOM     26  C   UNL     1      -1.153 -12.814  -8.109  0.00  0.00    +0.000 A 
ATOM     27  C   UNL     1      -0.792 -12.894  -6.776  0.00  0.00    +0.002 A 
ATOM     28  C   UNL     1       0.034 -11.935  -6.224  0.00  0.00    +0.023 A 
ENDBRANCH  20  23
ENDBRANCH   1  17
BRANCH   1  29
ATOM     29  C   UNL     1       4.233  -6.892  -4.652  0.00  0.00    +0.173 A 
ATOM     30  N   UNL     1       4.373  -8.016  -3.992  0.00  0.00    -0.111 NA
ATOM     31  N   UNL     1       5.633  -8.222  -3.820  0.00  0.00    -0.023 NA
ATOM     32  N   UNL     1       6.300  -7.255  -4.345  0.00  0.00    -0.044 NA
ATOM     33  N   UNL     1       5.473  -6.414  -4.868  0.00  0.00    -0.225 N 
BRANCH  33  34
ATOM     34  C   UNL     1       5.817  -5.174  -5.567  0.00  0.00    +0.179 C 
BRANCH  34  35
ATOM     35  C   UNL     1       5.878  -4.022  -4.562  0.00  0.00    +0.140 C 
ATOM     36  C   UNL     1       6.126  -2.691  -5.304  0.00  0.00    +0.035 C 
ATOM     37  C   UNL     1       7.106  -1.958  -4.347  0.00  0.00    +0.031 C 
ATOM     38  C   UNL     1       7.918  -3.153  -3.786  0.00  0.00    +0.160 C 
ATOM     39  O   UNL     1       6.970  -4.224  -3.657  0.00  0.00    -0.375 OA
ENDBRANCH  34  35
ENDBRANCH  33  34
ENDBRANCH   1  29
TORSDOF 8
