REMARK  Name = ZINC37122740
REMARK  7 active torsions:
REMARK  status: ('A' for Active; 'I' for Inactive)
REMARK    1  A    between atoms: C_1  and  C_2
REMARK    2  A    between atoms: C_3  and  C_21
REMARK    3  A    between atoms: C_7  and  N_8
REMARK    4  A    between atoms: N_8  and  C_9
REMARK    5  A    between atoms: C_12  and  C_20
REMARK    6  A    between atoms: N_14  and  C_19
REMARK    7  A    between atoms: C_16  and  C_18
REMARK                            x       y       z     vdW  Elec       q    Type
REMARK                         _______ _______ _______ _____ _____    ______ ____
ROOT
ATOM      1  N   UNL     1       0.271  -0.013   2.397  0.00  0.00    -0.341 N 
ATOM      2  H   UNL     1       0.270   0.957   2.404  0.00  0.00    +0.146 HD
ENDROOT
BRANCH   1   3
ATOM      3  C   UNL     1       0.403  -0.754   3.655  0.00  0.00    +0.070 C 
ATOM      4  C   UNL     1      -0.987  -1.119   4.182  0.00  0.00    +0.007 C 
ATOM      5  C   UNL     1      -1.762   0.163   4.494  0.00  0.00    -0.070 C 
ATOM      6  N   UNL     1      -1.041   0.940   5.509  0.00  0.00    +0.380 N 
ATOM      7  C   UNL     1       0.265   1.355   4.983  0.00  0.00    -0.074 C 
ATOM      8  C   UNL     1       1.120   0.118   4.690  0.00  0.00    -0.011 C 
ATOM      9  C   UNL     1       2.479   0.552   4.138  0.00  0.00    +0.007 C 
ATOM     10  C   UNL     1      -1.826   2.130   5.862  0.00  0.00    -0.096 C 
ATOM     11  C   UNL     1      -3.152  -0.198   5.022  0.00  0.00    -0.013 C 
ATOM     12  H   UNL     1      -0.906   0.373   6.332  0.00  0.00    -0.082 HD
ENDBRANCH   1   3
BRANCH   1  19
ATOM     13  C   UNL     1       0.019   1.503   0.007  0.00  0.00    +0.046 C 
ATOM     14  C   UNL     1       0.020  -0.004   0.000  0.00  0.00    -0.016 A 
ATOM     15  C   UNL     1      -0.099  -0.700  -1.205  0.00  0.00    +0.068 A 
ATOM     16  C   UNL     1      -0.097  -2.097  -1.202  0.00  0.00    +0.015 A 
ATOM     17  C   UNL     1       0.023  -2.784  -0.011  0.00  0.00    +0.003 A 
ATOM     18  C   UNL     1       0.141  -2.095   1.181  0.00  0.00    +0.023 A 
ATOM     19  C   UNL     1       0.145  -0.704   1.190  0.00  0.00    +0.031 A 
BRANCH  15  20
ATOM     20  C   UNL     1      -0.228   0.038  -2.476  0.00  0.00    +0.387 C 
ATOM     21  O   UNL     1      -1.165  -0.195  -3.226  0.00  0.00    -0.241 OA
ATOM     22  O   UNL     1       0.603   0.882  -2.780  0.00  0.00    -0.241 OA
ENDBRANCH  15  20
ENDBRANCH   1  19
TORSDOF 3
