REMARK  Name = ZINC36740765
REMARK  6 active torsions:
REMARK  status: ('A' for Active; 'I' for Inactive)
REMARK    1  A    between atoms: C_1  and  C_2
REMARK    2  A    between atoms: N_11  and  C_15
REMARK    3  A    between atoms: C_15  and  C_16
REMARK    4  A    between atoms: N_18  and  C_19
REMARK    5  A    between atoms: C_20  and  C_28
REMARK    6  A    between atoms: C_28  and  C_30
REMARK                            x       y       z     vdW  Elec       q    Type
REMARK                         _______ _______ _______ _____ _____    ______ ____
ROOT
ATOM      1  C   UNL     1       1.140   0.517   5.537  0.00  0.00    +0.236 C 
ATOM      2  O   UNL     1       1.571  -0.594   5.309  0.00  0.00    -0.274 OA
ATOM      3  N   UNL     1       1.010   0.941   6.810  0.00  0.00    -0.278 N 
ATOM      4  H   UNL     1       0.666   1.829   6.992  0.00  0.00    +0.155 HD
ENDROOT
BRANCH   3   5
ATOM      5  C   UNL     1       1.369   0.109   7.857  0.00  0.00    +0.083 A 
ATOM      6  C   UNL     1       1.405   0.409   9.213  0.00  0.00    +0.054 A 
ATOM      7  C   UNL     1       1.821  -0.651  10.115  0.00  0.00    -0.024 A 
ATOM      8  C   UNL     1       2.124  -1.814   9.500  0.00  0.00    -0.005 A 
ATOM      9  S   UNL     1       1.853  -1.497   7.781  0.00  0.00    -0.077 S 
ATOM     10  C   UNL     1       2.583  -3.083  10.150  0.00  0.00    +0.043 C 
ATOM     11  C   UNL     1       3.021  -2.758  11.585  0.00  0.00    +0.005 C 
ATOM     12  C   UNL     1       1.940  -1.903  12.252  0.00  0.00    +0.005 C 
ATOM     13  C   UNL     1       1.920  -0.507  11.627  0.00  0.00    +0.037 C 
BRANCH   6  14
ATOM     14  C   UNL     1       1.041   1.737   9.711  0.00  0.00    +0.196 C 
ATOM     15  O   UNL     1      -0.096   1.955  10.089  0.00  0.00    -0.287 OA
BRANCH  14  16
ATOM     16  C   UNL     1       2.054   2.814   9.755  0.00  0.00    +0.022 A 
ATOM     17  C   UNL     1       3.325   2.603   9.219  0.00  0.00    +0.012 A 
ATOM     18  C   UNL     1       4.265   3.612   9.263  0.00  0.00    +0.001 A 
ATOM     19  C   UNL     1       3.950   4.831   9.836  0.00  0.00    +0.000 A 
ATOM     20  C   UNL     1       2.691   5.047  10.369  0.00  0.00    +0.001 A 
ATOM     21  C   UNL     1       1.740   4.048  10.327  0.00  0.00    +0.012 A 
ENDBRANCH  14  16
ENDBRANCH   6  14
ENDBRANCH   3   5
BRANCH   1  22
ATOM     22  C   UNL     1       0.750   1.422   4.397  0.00  0.00    +0.214 C 
BRANCH  22  32
ATOM     23  C   UNL     1      -0.043   1.498   0.013  0.00  0.00    +0.010 C 
ATOM     24  C   UNL     1       0.001  -0.031   0.004  0.00  0.00    +0.018 C 
ATOM     25  C   UNL     1       0.726  -0.513  -1.255  0.00  0.00    +0.006 C 
ATOM     26  C   UNL     1       0.787  -2.042  -1.252  0.00  0.00    +0.000 C 
ATOM     27  C   UNL     1       1.554  -2.522  -0.018  0.00  0.00    +0.003 C 
ATOM     28  C   UNL     1       0.832  -2.047   1.246  0.00  0.00    +0.035 C 
ATOM     29  C   UNL     1       0.745  -0.524   1.240  0.00  0.00    +0.115 C 
ATOM     30  C   UNL     1       0.066  -0.030   2.497  0.00  0.00    +0.247 C 
ATOM     31  O   UNL     1      -1.064  -0.271   2.864  0.00  0.00    -0.273 OA
ATOM     32  N   UNL     1       0.983   0.735   3.125  0.00  0.00    -0.215 N 
ATOM     33  C   UNL     1       2.132   0.787   2.441  0.00  0.00    +0.310 C 
ATOM     34  O   UNL     1       3.108   1.414   2.806  0.00  0.00    -0.252 OA
ATOM     35  N   UNL     1       2.087   0.068   1.304  0.00  0.00    -0.285 N 
ATOM     36  H   UNL     1       2.800  -0.038   0.654  0.00  0.00    +0.151 HD
ENDBRANCH  22  32
ENDBRANCH   1  22
TORSDOF 5
