REMARK  Name = ZINC13064180
REMARK  12 active torsions:
REMARK  status: ('A' for Active; 'I' for Inactive)
REMARK    1  A    between atoms: C_1  and  C_2
REMARK    2  A    between atoms: C_2  and  C_3
REMARK    3  A    between atoms: C_3  and  C_5
REMARK    4  A    between atoms: C_3  and  N_61
REMARK    5  A    between atoms: N_9  and  C_10
REMARK    6  A    between atoms: C_10  and  C_11
REMARK    7  A    between atoms: C_16  and  C_17
REMARK    8  A    between atoms: C_16  and  N_61
REMARK    9  A    between atoms: C_22  and  C_23
REMARK   10  A    between atoms: C_22  and  N_61
REMARK   11  A    between atoms: C_27  and  O_35
REMARK   12  A    between atoms: O_35  and  C_36
REMARK                            x       y       z     vdW  Elec       q    Type
REMARK                         _______ _______ _______ _____ _____    ______ ____
ROOT
ATOM      1  N   UNL     1      -2.702   1.744   0.172  0.00  0.00    +0.394 N 
ATOM      2  H   UNL     1      -3.709   1.543   0.183  0.00  0.00    -0.080 HD
ENDROOT
BRANCH   1   3
ATOM      3  C   UNL     1      -2.139   1.448   1.507  0.00  0.00    +0.003 C 
BRANCH   3   4
ATOM      4  C   UNL     1      -3.025   2.070   2.555  0.00  0.00    +0.139 A 
ATOM      5  N   UNL     1      -3.304   3.344   2.689  0.00  0.00    -0.115 NA
ATOM      6  N   UNL     1      -4.094   3.474   3.699  0.00  0.00    -0.023 NA
ATOM      7  N   UNL     1      -4.326   2.317   4.213  0.00  0.00    -0.044 NA
ATOM      8  N   UNL     1      -3.689   1.424   3.532  0.00  0.00    -0.223 N 
BRANCH   8   9
ATOM      9  C   UNL     1      -3.686  -0.020   3.779  0.00  0.00    +0.221 C 
BRANCH   9  10
ATOM     10  C   UNL     1      -2.659  -0.348   4.831  0.00  0.00    +0.126 A 
ATOM     11  C   UNL     1      -2.883  -0.414   6.156  0.00  0.00    +0.046 A 
ATOM     12  C   UNL     1      -1.652  -0.752   6.763  0.00  0.00    +0.041 A 
ATOM     13  C   UNL     1      -0.747  -0.864   5.774  0.00  0.00    +0.195 A 
ATOM     14  O   UNL     1      -1.363  -0.618   4.606  0.00  0.00    -0.466 OA
ENDBRANCH   9  10
ENDBRANCH   8   9
ENDBRANCH   3   4
BRANCH   3  16
ATOM     15  C   UNL     1      -0.108   1.571   2.957  0.00  0.00    +0.002 C 
ATOM     16  C   UNL     1      -0.725   2.019   1.631  0.00  0.00    -0.011 C 
ENDBRANCH   3  16
ENDBRANCH   1   3
BRANCH   1  17
ATOM     17  C   UNL     1      -2.501   3.171  -0.156  0.00  0.00    -0.002 C 
BRANCH  17  18
ATOM     18  C   UNL     1      -3.380   3.527  -1.327  0.00  0.00    +0.089 A 
ATOM     19  C   UNL     1      -4.620   4.043  -1.251  0.00  0.00    +0.042 A 
ATOM     20  C   UNL     1      -5.071   4.221  -2.579  0.00  0.00    +0.041 A 
ATOM     21  C   UNL     1      -4.080   3.803  -3.387  0.00  0.00    +0.195 A 
ATOM     22  O   UNL     1      -3.056   3.389  -2.623  0.00  0.00    -0.470 OA
ENDBRANCH  17  18
ENDBRANCH   1  17
BRANCH   1  23
ATOM     23  C   UNL     1      -2.054   0.895  -0.849  0.00  0.00    -0.036 C 
BRANCH  23  24
ATOM     24  C   UNL     1      -2.644  -0.490  -0.771  0.00  0.00    +0.001 A 
ATOM     25  C   UNL     1      -3.692  -0.823  -1.565  0.00  0.00    +0.017 A 
ATOM     26  C   UNL     1      -4.242  -2.176  -1.465  0.00  0.00    +0.002 A 
ATOM     27  C   UNL     1      -5.322  -2.576  -2.259  0.00  0.00    +0.055 A 
ATOM     28  C   UNL     1      -5.817  -3.859  -2.140  0.00  0.00    +0.121 A 
ATOM     29  C   UNL     1      -5.246  -4.752  -1.236  0.00  0.00    +0.047 A 
ATOM     30  C   UNL     1      -4.182  -4.370  -0.449  0.00  0.00    +0.030 A 
ATOM     31  C   UNL     1      -3.669  -3.081  -0.553  0.00  0.00    +0.049 A 
ATOM     32  N   UNL     1      -2.603  -2.679   0.227  0.00  0.00    -0.322 N 
ATOM     33  H   UNL     1      -2.208  -3.304   0.855  0.00  0.00    +0.169 HD
ATOM     34  C   UNL     1      -2.101  -1.436   0.124  0.00  0.00    +0.251 A 
ATOM     35  O   UNL     1      -1.155  -1.118   0.824  0.00  0.00    -0.268 OA
BRANCH  28  36
ATOM     36  O   UNL     1      -6.867  -4.253  -2.909  0.00  0.00    -0.495 OA
ATOM     37  C   UNL     1      -7.330  -5.594  -2.736  0.00  0.00    +0.277 C 
ENDBRANCH  28  36
ENDBRANCH  23  24
ENDBRANCH   1  23
TORSDOF 10
