REMARK  Name = ZINC60512001
REMARK  14 active torsions:
REMARK  status: ('A' for Active; 'I' for Inactive)
REMARK    1  A    between atoms: C_1  and  C_2
REMARK    2  A    between atoms: C_2  and  C_3
REMARK    3  A    between atoms: C_7  and  C_28
REMARK    4  A    between atoms: C_8  and  N_9
REMARK    5  A    between atoms: C_10  and  C_12
REMARK    6  A    between atoms: C_12  and  C_13
REMARK    7  A    between atoms: C_12  and  N_14
REMARK    8  A    between atoms: N_14  and  C_15
REMARK    9  A    between atoms: C_19  and  N_22
REMARK   10  A    between atoms: C_20  and  C_21
REMARK   11  A    between atoms: C_23  and  O_25
REMARK   12  A    between atoms: O_25  and  C_26
REMARK   13  A    between atoms: C_26  and  C_27
REMARK   14  A    between atoms: C_28  and  C_29
REMARK                            x       y       z     vdW  Elec       q    Type
REMARK                         _______ _______ _______ _____ _____    ______ ____
ROOT
ATOM      1  C   UNL     1       0.038   4.128   3.990  0.00  0.00    +0.154 C 
ATOM      2  C   UNL     1      -0.041   4.961   2.709  0.00  0.00    +0.038 C 
ENDROOT
BRANCH   1   4
ATOM      3  N   UNL     1       1.153   2.215   2.889  0.00  0.00    -0.284 N 
ATOM      4  C   UNL     1       0.125   2.666   3.635  0.00  0.00    +0.237 C 
ATOM      5  O   UNL     1      -0.729   1.896   4.020  0.00  0.00    -0.273 OA
ATOM      6  H   UNL     1       1.875   2.814   2.643  0.00  0.00    +0.155 HD
BRANCH   3  12
ATOM      7  C   UNL     1       0.940   0.565   1.138  0.00  0.00    -0.026 A 
ATOM      8  C   UNL     1       0.972  -0.753   0.725  0.00  0.00    +0.005 A 
ATOM      9  C   UNL     1       1.237  -1.758   1.637  0.00  0.00    +0.001 A 
ATOM     10  C   UNL     1       1.470  -1.448   2.964  0.00  0.00    +0.005 A 
ATOM     11  C   UNL     1       1.439  -0.132   3.383  0.00  0.00    -0.026 A 
ATOM     12  C   UNL     1       1.179   0.880   2.469  0.00  0.00    +0.040 A 
BRANCH   7  14
ATOM     13  C   UNL     1       1.970   2.232  -0.382  0.00  0.00    +0.009 C 
ATOM     14  C   UNL     1       0.651   1.660   0.143  0.00  0.00    +0.033 C 
ENDBRANCH   7  14
BRANCH  11  15
ATOM     15  C   UNL     1       1.692   0.205   4.830  0.00  0.00    +0.033 C 
ATOM     16  C   UNL     1       1.733  -1.084   5.654  0.00  0.00    +0.009 C 
ENDBRANCH  11  15
ENDBRANCH   3  12
ENDBRANCH   1   4
BRANCH   1  17
ATOM     17  N   UNL     1      -1.160   4.363   4.800  0.00  0.00    -0.333 N 
ATOM     18  H   UNL     1      -1.918   3.761   4.731  0.00  0.00    +0.147 HD
BRANCH  17  19
ATOM     19  C   UNL     1      -1.212   5.454   5.671  0.00  0.00    +0.032 A 
ATOM     20  C   UNL     1      -0.129   6.320   5.766  0.00  0.00    +0.023 A 
ATOM     21  C   UNL     1      -0.180   7.399   6.627  0.00  0.00    +0.004 A 
ATOM     22  C   UNL     1      -1.306   7.620   7.397  0.00  0.00    +0.024 A 
ATOM     23  C   UNL     1      -2.391   6.758   7.307  0.00  0.00    +0.041 A 
ATOM     24  C   UNL     1      -2.346   5.677   6.438  0.00  0.00    -0.008 A 
ATOM     25  C   UNL     1      -3.525   4.743   6.333  0.00  0.00    +0.047 C 
BRANCH  23  26
ATOM     26  N   UNL     1      -3.531   6.983   8.087  0.00  0.00    -0.251 N 
ATOM     27  C   UNL     1      -3.805   8.223   8.539  0.00  0.00    +0.405 C 
ATOM     28  O   UNL     1      -3.112   9.161   8.197  0.00  0.00    -0.226 OA
ATOM     29  H   UNL     1      -4.124   6.246   8.303  0.00  0.00    +0.158 HD
BRANCH  27  30
ATOM     30  O   UNL     1      -4.846   8.422   9.369  0.00  0.00    -0.450 OA
BRANCH  30  31
ATOM     31  C   UNL     1      -5.077   9.762   9.809  0.00  0.00    +0.230 C 
ATOM     32  C   UNL     1      -6.293   9.791  10.737  0.00  0.00    +0.048 C 
ENDBRANCH  30  31
ENDBRANCH  27  30
ENDBRANCH  23  26
ENDBRANCH  17  19
ENDBRANCH   1  17
TORSDOF 9
