REMARK  Name = ZINC39631932
REMARK  13 active torsions:
REMARK  status: ('A' for Active; 'I' for Inactive)
REMARK    1  A    between atoms: C_1  and  C_2
REMARK    2  A    between atoms: C_2  and  C_4
REMARK    3  A    between atoms: C_2  and  N_11
REMARK    4  A    between atoms: C_4  and  C_5
REMARK    5  A    between atoms: C_5  and  C_6
REMARK    6  A    between atoms: C_6  and  C_7
REMARK    7  A    between atoms: C_7  and  C_8
REMARK    8  A    between atoms: C_7  and  C_9
REMARK    9  A    between atoms: C_7  and  O_10
REMARK   10  A    between atoms: C_12  and  C_14
REMARK   11  A    between atoms: C_25  and  C_27
REMARK   12  A    between atoms: C_30  and  O_33
REMARK   13  A    between atoms: O_33  and  C_34
REMARK                            x       y       z     vdW  Elec       q    Type
REMARK                         _______ _______ _______ _____ _____    ______ ____
ROOT
ATOM      1  C   UNL     1      -4.586  -0.828  -0.666  0.00  0.00    +0.100 C 
ATOM      2  C   UNL     1      -4.156  -2.309  -0.751  0.00  0.00    +0.121 C 
ATOM      3  N   UNL     1      -4.803  -2.954   0.415  0.00  0.00    -0.296 N 
ATOM      4  C   UNL     1      -6.142  -2.323   0.490  0.00  0.00    +0.115 C 
ATOM      5  C   UNL     1      -5.892  -0.842   0.146  0.00  0.00    -0.004 C 
ATOM      6  C   UNL     1      -5.728  -0.025   1.424  0.00  0.00    -0.010 C 
ATOM      7  C   UNL     1      -7.056  -0.007   2.187  0.00  0.00    -0.082 C 
ATOM      8  N   UNL     1      -8.101   0.579   1.339  0.00  0.00    +0.379 N 
ATOM      9  C   UNL     1      -8.317  -0.263   0.156  0.00  0.00    -0.082 C 
ATOM     10  C   UNL     1      -7.042  -0.292  -0.692  0.00  0.00    -0.010 C 
ATOM     11  C   UNL     1      -4.289  -3.901   1.226  0.00  0.00    +0.248 C 
ATOM     12  O   UNL     1      -4.675  -3.992   2.375  0.00  0.00    -0.270 OA
ATOM     13  H   UNL     1      -8.960   0.646   1.864  0.00  0.00    -0.086 HD
ATOM     14  H   UNL     1      -7.816   1.502   1.045  0.00  0.00    -0.086 HD
ENDROOT
BRANCH  11  15
ATOM     15  C   UNL     1      -3.258  -4.827   0.718  0.00  0.00    +0.055 A 
ATOM     16  C   UNL     1      -2.904  -5.969   1.452  0.00  0.00    +0.020 A 
ATOM     17  C   UNL     1      -1.935  -6.805   0.936  0.00  0.00    +0.068 A 
ATOM     18  C   UNL     1      -1.345  -6.491  -0.285  0.00  0.00    +0.220 A 
ATOM     19  N   UNL     1      -1.702  -5.405  -0.954  0.00  0.00    -0.220 NA
ATOM     20  C   UNL     1      -2.626  -4.584  -0.502  0.00  0.00    +0.127 A 
BRANCH  18  21
ATOM     21  O   UNL     1      -0.393  -7.308  -0.797  0.00  0.00    -0.438 OA
BRANCH  21  22
ATOM     22  C   UNL     1       0.739  -6.738  -1.289  0.00  0.00    +0.130 A 
ATOM     23  C   UNL     1       0.951  -5.375  -1.142  0.00  0.00    +0.046 A 
ATOM     24  C   UNL     1       2.103  -4.799  -1.642  0.00  0.00    +0.004 A 
ATOM     25  C   UNL     1       3.043  -5.580  -2.289  0.00  0.00    +0.000 A 
ATOM     26  C   UNL     1       2.833  -6.938  -2.438  0.00  0.00    +0.004 A 
ATOM     27  C   UNL     1       1.686  -7.520  -1.934  0.00  0.00    +0.046 A 
ENDBRANCH  21  22
ENDBRANCH  18  21
ENDBRANCH  11  15
BRANCH   1  29
ATOM     28  N   UNL     1      -3.471   1.318  -0.143  0.00  0.00    -0.312 N 
ATOM     29  C   UNL     1      -3.535  -0.015   0.045  0.00  0.00    +0.218 C 
ATOM     30  O   UNL     1      -2.745  -0.562   0.786  0.00  0.00    -0.275 OA
ATOM     31  H   UNL     1      -4.146   1.765  -0.678  0.00  0.00    +0.149 HD
BRANCH  28  33
ATOM     32  C   UNL     1      -2.719   2.387   1.924  0.00  0.00    +0.028 C 
ATOM     33  C   UNL     1      -2.384   2.092   0.460  0.00  0.00    +0.070 C 
BRANCH  33  34
ATOM     34  C   UNL     1      -2.213   3.409  -0.299  0.00  0.00    +0.022 C 
BRANCH  34  35
ATOM     35  C   UNL     1      -1.805   3.115  -1.744  0.00  0.00    +0.005 C 
BRANCH  35  36
ATOM     36  C   UNL     1      -1.513   4.430  -2.469  0.00  0.00    +0.034 C 
BRANCH  36  37
ATOM     37  C   UNL     1      -1.015   4.132  -3.885  0.00  0.00    +0.061 C 
ATOM     38  C   UNL     1      -0.726   5.448  -4.611  0.00  0.00    +0.041 C 
ATOM     39  C   UNL     1       0.266   3.299  -3.810  0.00  0.00    +0.041 C 
BRANCH  37  40
ATOM     40  O   UNL     1      -2.016   3.404  -4.599  0.00  0.00    -0.389 OA
ATOM     41  H   UNL     1      -2.831   3.902  -4.752  0.00  0.00    +0.210 HD
ENDBRANCH  37  40
ENDBRANCH  36  37
ENDBRANCH  35  36
ENDBRANCH  34  35
ENDBRANCH  33  34
ENDBRANCH  28  33
ENDBRANCH   1  29
TORSDOF 10
