REMARK  Name = ZINC41424322
REMARK  4 active torsions:
REMARK  status: ('A' for Active; 'I' for Inactive)
REMARK    1  A    between atoms: C_1  and  C_2
REMARK    2  A    between atoms: C_6  and  C_21
REMARK    3  A    between atoms: N_9  and  S_10
REMARK    4  A    between atoms: S_10  and  C_13
REMARK                            x       y       z     vdW  Elec       q    Type
REMARK                         _______ _______ _______ _____ _____    ______ ____
ROOT
ATOM      1  C   UNL     1      -0.019   1.526   0.010  0.00  0.00    +0.028 C 
ATOM      2  C   UNL     1       0.002  -0.004   0.002  0.00  0.00    +0.102 C 
ATOM      3  C   UNL     1      -1.434  -0.540   0.026  0.00  0.00    +0.181 C 
ATOM      4  O   UNL     1      -2.033  -0.226   1.285  0.00  0.00    -0.369 OA
ATOM      5  C   UNL     1      -1.388  -0.832   2.408  0.00  0.00    +0.164 C 
ATOM      6  C   UNL     1       0.050  -0.311   2.506  0.00  0.00    +0.146 C 
ATOM      7  N   UNL     1       0.702  -0.497   1.199  0.00  0.00    -0.169 NA
ENDROOT
BRANCH   5   8
ATOM      8  C   UNL     1      -2.138  -0.484   3.668  0.00  0.00    -0.018 A 
ATOM      9  C   UNL     1      -2.738   0.755   3.795  0.00  0.00    +0.006 A 
ATOM     10  C   UNL     1      -3.425   1.074   4.951  0.00  0.00    +0.000 A 
ATOM     11  C   UNL     1      -3.513   0.155   5.979  0.00  0.00    +0.000 A 
ATOM     12  C   UNL     1      -2.914  -1.084   5.852  0.00  0.00    +0.000 A 
ATOM     13  C   UNL     1      -2.230  -1.405   4.694  0.00  0.00    +0.006 A 
ENDBRANCH   5   8
BRANCH   7  14
ATOM     14  S   UNL     1       2.178  -1.239   1.079  0.00  0.00    +0.061 S 
ATOM     15  O   UNL     1       2.315  -2.060   2.230  0.00  0.00    -0.153 OA
ATOM     16  O   UNL     1       2.265  -1.757  -0.242  0.00  0.00    -0.153 OA
BRANCH  14  17
ATOM     17  C   UNL     1       3.405   0.019   1.208  0.00  0.00    +0.107 A 
ATOM     18  C   UNL     1       3.858   0.662   0.071  0.00  0.00    +0.030 A 
ATOM     19  C   UNL     1       4.822   1.648   0.171  0.00  0.00    +0.023 A 
ATOM     20  C   UNL     1       5.332   1.993   1.410  0.00  0.00    +0.059 A 
ATOM     21  C   UNL     1       4.878   1.350   2.548  0.00  0.00    +0.061 A 
ATOM     22  C   UNL     1       3.910   0.366   2.447  0.00  0.00    +0.050 A 
ATOM     23 CL   UNL     1       5.518   1.781   4.103  0.00  0.00    -0.082 Cl
ATOM     24 CL   UNL     1       6.542   3.231   1.536  0.00  0.00    -0.082 Cl
ENDBRANCH  14  17
ENDBRANCH   7  14
TORSDOF 3
