REMARK  Name = ZINC63280739
REMARK  10 active torsions:
REMARK  status: ('A' for Active; 'I' for Inactive)
REMARK    1  A    between atoms: C_1  and  C_2
REMARK    2  A    between atoms: N_4  and  C_5
REMARK    3  A    between atoms: C_8  and  S_11
REMARK    4  A    between atoms: S_11  and  N_14
REMARK    5  A    between atoms: C_17  and  C_20
REMARK    6  A    between atoms: N_22  and  C_23
REMARK    7  A    between atoms: C_23  and  C_24
REMARK    8  A    between atoms: C_24  and  C_25
REMARK    9  A    between atoms: C_28  and  O_34
REMARK   10  A    between atoms: O_34  and  C_35
REMARK                            x       y       z     vdW  Elec       q    Type
REMARK                         _______ _______ _______ _____ _____    ______ ____
ROOT
ATOM      1  N   UNL     1      -1.903  -7.000  -1.012  0.00  0.00    -0.177 NA
ATOM      2  C   UNL     1      -2.678  -7.133   0.230  0.00  0.00    +0.110 C 
ATOM      3  C   UNL     1      -3.926  -6.250   0.130  0.00  0.00    +0.030 C 
ATOM      4  C   UNL     1      -4.703  -6.612  -1.138  0.00  0.00    +0.077 C 
ATOM      5  C   UNL     1      -3.828  -6.352  -2.366  0.00  0.00    +0.030 C 
ATOM      6  C   UNL     1      -2.580  -7.231  -2.295  0.00  0.00    +0.110 C 
ENDROOT
BRANCH   4   7
ATOM      7  C   UNL     1      -5.949  -5.769  -1.221  0.00  0.00    +0.216 C 
ATOM      8  O   UNL     1      -6.191  -4.958  -0.353  0.00  0.00    -0.276 OA
ATOM      9  N   UNL     1      -6.793  -5.915  -2.261  0.00  0.00    -0.315 N 
ATOM     10  H   UNL     1      -6.599  -6.564  -2.956  0.00  0.00    +0.149 HD
BRANCH   9  11
ATOM     11  C   UNL     1      -8.004  -5.095  -2.342  0.00  0.00    +0.108 C 
BRANCH  11  12
ATOM     12  C   UNL     1      -8.781  -5.457  -3.610  0.00  0.00    +0.052 C 
BRANCH  12  13
ATOM     13  C   UNL     1     -10.027  -4.614  -3.693  0.00  0.00    -0.040 C 
ATOM     14  C   UNL     1     -10.180  -3.454  -4.372  0.00  0.00    +0.002 A 
ATOM     15  C   UNL     1      -9.268  -2.659  -5.202  0.00  0.00    +0.055 A 
ATOM     16  C   UNL     1      -9.711  -1.511  -5.768  0.00  0.00    +0.121 A 
ATOM     17  C   UNL     1     -11.025  -1.044  -5.588  0.00  0.00    +0.047 A 
ATOM     18  C   UNL     1     -11.936  -1.704  -4.842  0.00  0.00    +0.029 A 
ATOM     19  C   UNL     1     -11.564  -2.961  -4.184  0.00  0.00    +0.043 A 
ATOM     20  N   UNL     1     -12.239  -3.783  -3.420  0.00  0.00    -0.380 N 
ATOM     21  C   UNL     1     -11.362  -4.896  -3.041  0.00  0.00    +0.144 C 
ATOM     22  H   UNL     1     -13.166  -3.676  -3.153  0.00  0.00    +0.160 HD
BRANCH  16  23
ATOM     23  O   UNL     1      -8.855  -0.784  -6.534  0.00  0.00    -0.495 OA
ATOM     24  C   UNL     1      -9.364   0.420  -7.111  0.00  0.00    +0.277 C 
ENDBRANCH  16  23
ENDBRANCH  12  13
ENDBRANCH  11  12
ENDBRANCH   9  11
ENDBRANCH   4   7
BRANCH   1  25
ATOM     25  S   UNL     1      -0.300  -6.589  -0.966  0.00  0.00    +0.061 S 
ATOM     26  O   UNL     1       0.277  -7.066  -2.173  0.00  0.00    -0.153 OA
ATOM     27  O   UNL     1       0.182  -6.976   0.314  0.00  0.00    -0.153 OA
BRANCH  25  31
ATOM     28  C   UNL     1      -0.071  -2.068  -1.121  0.00  0.00    +0.033 A 
ATOM     29  C   UNL     1      -0.152  -2.719   0.103  0.00  0.00    +0.025 A 
ATOM     30  C   UNL     1      -0.222  -4.098   0.147  0.00  0.00    +0.030 A 
ATOM     31  C   UNL     1      -0.211  -4.830  -1.026  0.00  0.00    +0.106 A 
ATOM     32  C   UNL     1      -0.130  -4.185  -2.246  0.00  0.00    +0.030 A 
ATOM     33  C   UNL     1      -0.066  -2.806  -2.297  0.00  0.00    +0.025 A 
BRANCH  28  37
ATOM     34  C   UNL     1      -0.617   1.507  -2.165  0.00  0.00    +0.109 C 
ATOM     35  C   UNL     1      -0.604  -0.000  -2.169  0.00  0.00    +0.214 C 
ATOM     36  O   UNL     1      -1.137  -0.609  -3.073  0.00  0.00    -0.276 OA
ATOM     37  N   UNL     1       0.000  -0.672  -1.169  0.00  0.00    -0.286 N 
ATOM     38  H   UNL     1       0.484  -0.187  -0.482  0.00  0.00    +0.155 HD
ENDBRANCH  28  37
ENDBRANCH  25  31
ENDBRANCH   1  25
TORSDOF 8
