REMARK  Name = ZINC66599602
REMARK  13 active torsions:
REMARK  status: ('A' for Active; 'I' for Inactive)
REMARK    1  A    between atoms: C_1  and  C_2
REMARK    2  A    between atoms: C_2  and  C_3
REMARK    3  A    between atoms: C_2  and  C_4
REMARK    4  A    between atoms: C_2  and  C_5
REMARK    5  A    between atoms: C_10  and  O_11
REMARK    6  A    between atoms: O_11  and  C_12
REMARK    7  A    between atoms: C_12  and  C_13
REMARK    8  A    between atoms: C_13  and  N_14
REMARK    9  A    between atoms: N_17  and  C_18
REMARK   10  A    between atoms: N_17  and  C_19
REMARK   11  A    between atoms: C_19  and  C_20
REMARK   12  A    between atoms: C_23  and  C_25
REMARK   13  A    between atoms: N_27  and  C_28
REMARK                            x       y       z     vdW  Elec       q    Type
REMARK                         _______ _______ _______ _____ _____    ______ ____
ROOT
ATOM      1  N   UNL     1      -1.529  -4.779   0.258  0.00  0.00    -0.296 N 
ATOM      2  C   UNL     1      -2.288  -5.430   1.162  0.00  0.00    +0.302 C 
ATOM      3  O   UNL     1      -1.769  -6.186   1.960  0.00  0.00    -0.253 OA
ATOM      4  N   UNL     1      -3.623  -5.244   1.180  0.00  0.00    -0.281 N 
ATOM      5  C   UNL     1      -4.248  -4.333   0.218  0.00  0.00    +0.134 C 
ATOM      6  H   UNL     1      -1.943  -4.176  -0.379  0.00  0.00    +0.150 HD
ENDROOT
BRANCH   1   7
ATOM      7  C   UNL     1      -0.078  -4.982   0.238  0.00  0.00    +0.146 C 
BRANCH   7   8
ATOM      8  C   UNL     1       0.540  -4.132  -0.874  0.00  0.00    +0.248 C 
BRANCH   8   9
ATOM      9  O   UNL     1       0.356  -2.747  -0.573  0.00  0.00    -0.490 OA
BRANCH   9  15
ATOM     10  C   UNL     1       0.707  -0.490  -1.238  0.00  0.00    -0.000 A 
ATOM     11  C   UNL     1       1.217   0.419  -2.145  0.00  0.00    +0.008 A 
ATOM     12  C   UNL     1       1.863  -0.026  -3.283  0.00  0.00    +0.001 A 
ATOM     13  C   UNL     1       2.003  -1.382  -3.516  0.00  0.00    +0.004 A 
ATOM     14  C   UNL     1       1.496  -2.295  -2.612  0.00  0.00    +0.046 A 
ATOM     15  C   UNL     1       0.851  -1.851  -1.467  0.00  0.00    +0.124 A 
BRANCH  10  17
ATOM     16  C   UNL     1      -0.019   1.526   0.010  0.00  0.00    +0.015 C 
ATOM     17  C   UNL     1       0.002  -0.004   0.002  0.00  0.00    -0.009 C 
ATOM     18  C   UNL     1       0.742  -0.511   1.242  0.00  0.00    +0.015 C 
ATOM     19  C   UNL     1      -1.433  -0.534   0.013  0.00  0.00    +0.015 C 
ENDBRANCH  10  17
ENDBRANCH   9  15
ENDBRANCH   8   9
ENDBRANCH   7   8
ENDBRANCH   1   7
BRANCH   4  20
ATOM     20  C   UNL     1      -4.448  -5.952   2.162  0.00  0.00    +0.183 C 
BRANCH  20  21
ATOM     21  C   UNL     1      -4.568  -5.119   3.412  0.00  0.00    +0.123 A 
ATOM     22  C   UNL     1      -5.533  -4.205   3.659  0.00  0.00    +0.047 A 
ATOM     23  C   UNL     1      -5.273  -3.663   4.927  0.00  0.00    +0.055 A 
ATOM     24  C   UNL     1      -4.150  -4.282   5.396  0.00  0.00    +0.189 A 
ATOM     25  O   UNL     1      -3.739  -5.165   4.463  0.00  0.00    -0.453 OA
BRANCH  24  26
ATOM     26  C   UNL     1      -3.504  -4.032   6.689  0.00  0.00    +0.279 C 
ATOM     27  O   UNL     1      -3.972  -3.208   7.453  0.00  0.00    -0.267 OA
ATOM     28  N   UNL     1      -2.394  -4.714   7.031  0.00  0.00    -0.312 N 
ATOM     29  C   UNL     1      -1.749  -4.465   8.322  0.00  0.00    +0.128 C 
ATOM     30  H   UNL     1      -2.021  -5.371   6.422  0.00  0.00    +0.149 HD
ENDBRANCH  24  26
ENDBRANCH  20  21
ENDBRANCH   4  20
TORSDOF 8
