REMARK  Name = ZINC24709199
REMARK  6 active torsions:
REMARK  status: ('A' for Active; 'I' for Inactive)
REMARK    1  A    between atoms: C_4  and  C_7
REMARK    2  A    between atoms: C_7  and  C_9
REMARK    3  A    between atoms: C_7  and  N_18
REMARK    4  A    between atoms: C_19  and  C_21
REMARK    5  A    between atoms: C_21  and  N_22
REMARK    6  A    between atoms: C_31  and  C_33
REMARK                            x       y       z     vdW  Elec       q    Type
REMARK                         _______ _______ _______ _____ _____    ______ ____
ROOT
ATOM      1  N   UNL     1      -0.721   1.571  -1.179  0.00  0.00    -0.300 N 
ATOM      2  C   UNL     1      -1.773   0.883  -1.664  0.00  0.00    +0.235 C 
ATOM      3  O   UNL     1      -2.134  -0.139  -1.118  0.00  0.00    -0.274 OA
ATOM      4  H   UNL     1      -0.395   2.497  -1.674  0.00  0.00    +0.150 HD
ENDROOT
BRANCH   1   5
ATOM      5  C   UNL     1      -0.013   1.086   0.008  0.00  0.00    +0.169 C 
BRANCH   5   6
ATOM      6  C   UNL     1       1.401   1.607  -0.003  0.00  0.00    +0.131 A 
ATOM      7  C   UNL     1       2.481   0.904   0.364  0.00  0.00    +0.055 A 
ATOM      8  C   UNL     1       3.631   1.800   0.192  0.00  0.00    +0.020 A 
ATOM      9  C   UNL     1       5.004   1.673   0.394  0.00  0.00    +0.011 A 
ATOM     10  C   UNL     1       5.828   2.733   0.134  0.00  0.00    +0.001 A 
ATOM     11  C   UNL     1       5.306   3.933  -0.328  0.00  0.00    +0.004 A 
ATOM     12  C   UNL     1       3.950   4.077  -0.533  0.00  0.00    +0.047 A 
ATOM     13  C   UNL     1       3.095   3.012  -0.276  0.00  0.00    +0.135 A 
ATOM     14  O   UNL     1       1.761   2.848  -0.376  0.00  0.00    -0.457 OA
ENDBRANCH   5   6
BRANCH   5  18
ATOM     15  C   UNL     1      -2.011   2.464   3.523  0.00  0.00    +0.000 A 
ATOM     16  C   UNL     1      -1.502   1.179   3.476  0.00  0.00    +0.000 A 
ATOM     17  C   UNL     1      -0.855   0.734   2.339  0.00  0.00    +0.006 A 
ATOM     18  C   UNL     1      -0.718   1.572   1.248  0.00  0.00    -0.020 A 
ATOM     19  C   UNL     1      -1.223   2.858   1.297  0.00  0.00    +0.006 A 
ATOM     20  C   UNL     1      -1.874   3.302   2.432  0.00  0.00    +0.000 A 
ENDBRANCH   5  18
ENDBRANCH   1   5
BRANCH   2  21
ATOM     21  C   UNL     1      -2.502   1.382  -2.885  0.00  0.00    +0.243 C 
BRANCH  21  22
ATOM     22  N   UNL     1      -3.598   0.465  -3.209  0.00  0.00    -0.219 N 
ATOM     23  C   UNL     1      -4.805   0.691  -2.651  0.00  0.00    +0.275 A 
ATOM     24  O   UNL     1      -4.978   1.633  -1.900  0.00  0.00    -0.266 OA
ATOM     25  C   UNL     1      -5.909  -0.223  -2.977  0.00  0.00    +0.050 A 
ATOM     26  C   UNL     1      -7.192  -0.074  -2.459  0.00  0.00    +0.014 A 
ATOM     27  C   UNL     1      -8.171  -0.979  -2.810  0.00  0.00    +0.001 A 
ATOM     28  C   UNL     1      -7.890  -2.031  -3.672  0.00  0.00    +0.001 A 
ATOM     29  C   UNL     1      -6.625  -2.196  -4.195  0.00  0.00    +0.011 A 
ATOM     30  C   UNL     1      -5.622  -1.295  -3.854  0.00  0.00    +0.020 A 
ATOM     31  C   UNL     1      -4.247  -1.400  -4.369  0.00  0.00    +0.153 A 
ATOM     32  N   UNL     1      -3.357  -0.511  -4.000  0.00  0.00    -0.162 NA
BRANCH  31  33
ATOM     33  C   UNL     1      -3.875  -2.493  -5.289  0.00  0.00    +0.262 C 
ATOM     34  O   UNL     1      -4.707  -3.313  -5.626  0.00  0.00    -0.269 OA
ATOM     35  N   UNL     1      -2.614  -2.581  -5.756  0.00  0.00    -0.324 N 
ATOM     36  H   UNL     1      -2.337  -3.395  -6.441  0.00  0.00    +0.145 HD
ATOM     37  H   UNL     1      -1.862  -1.838  -5.451  0.00  0.00    +0.145 HD
ENDBRANCH  31  33
ENDBRANCH  21  22
ENDBRANCH   2  21
TORSDOF 6
