REMARK  Name = ZINC49988287
REMARK  4 active torsions:
REMARK  status: ('A' for Active; 'I' for Inactive)
REMARK    1  A    between atoms: C_1  and  C_2
REMARK    2  A    between atoms: C_7  and  N_8
REMARK    3  A    between atoms: N_8  and  C_9
REMARK    4  A    between atoms: N_14  and  C_15
REMARK                            x       y       z     vdW  Elec       q    Type
REMARK                         _______ _______ _______ _____ _____    ______ ____
ROOT
ATOM      1  N   UNL     1      -0.136   0.769   2.034  0.00  0.00    -0.273 N 
ATOM      2  C   UNL     1      -0.265   0.403   0.622  0.00  0.00    +0.138 C 
ATOM      3  C   UNL     1      -1.235   0.678   2.878  0.00  0.00    +0.222 A 
ATOM      4  N   UNL     1      -2.399   0.192   2.558  0.00  0.00    -0.137 NA
ATOM      5  N   UNL     1      -3.230   0.279   3.683  0.00  0.00    -0.253 N 
ATOM      6  C   UNL     1      -2.507   0.836   4.676  0.00  0.00    +0.177 A 
ATOM      7  N   UNL     1      -1.272   1.081   4.192  0.00  0.00    -0.288 N 
ATOM      8  S   UNL     1      -3.054   1.166   6.264  0.00  0.00    -0.011 S 
ATOM      9  H   UNL     1      -4.155  -0.008   3.738  0.00  0.00    +0.191 HD
ENDROOT
BRANCH   1  16
ATOM     10  C   UNL     1       1.668  -1.171   3.071  0.00  0.00    +0.045 C 
ATOM     11  C   UNL     1       2.004   0.298   3.048  0.00  0.00    -0.029 A 
ATOM     12  C   UNL     1       3.219   0.738   3.534  0.00  0.00    +0.005 A 
ATOM     13  C   UNL     1       3.528   2.086   3.514  0.00  0.00    +0.000 A 
ATOM     14  C   UNL     1       2.620   2.998   3.007  0.00  0.00    +0.002 A 
ATOM     15  C   UNL     1       1.403   2.566   2.519  0.00  0.00    +0.024 A 
ATOM     16  C   UNL     1       1.092   1.211   2.533  0.00  0.00    +0.039 A 
ENDBRANCH   1  16
BRANCH   7  17
ATOM     17  C   UNL     1      -0.162   1.678   4.939  0.00  0.00    +0.092 C 
ATOM     18  C   UNL     1      -0.416   3.185   5.148  0.00  0.00    +0.025 C 
ATOM     19  C   UNL     1      -1.053   3.271   6.557  0.00  0.00    +0.002 C 
ATOM     20  C   UNL     1      -0.271   2.196   7.352  0.00  0.00    +0.002 C 
ATOM     21  C   UNL     1      -0.070   1.049   6.340  0.00  0.00    +0.025 C 
ENDBRANCH   7  17
TORSDOF 2
