REMARK  Name = ZINC39487872
REMARK  9 active torsions:
REMARK  status: ('A' for Active; 'I' for Inactive)
REMARK    1  A    between atoms: C_1  and  C_2
REMARK    2  A    between atoms: C_2  and  C_30
REMARK    3  A    between atoms: N_4  and  S_28
REMARK    4  A    between atoms: N_7  and  C_8
REMARK    5  A    between atoms: C_8  and  C_9
REMARK    6  A    between atoms: C_9  and  C_22
REMARK    7  A    between atoms: N_12  and  C_15
REMARK    8  A    between atoms: C_15  and  C_16
REMARK    9  A    between atoms: S_28  and  C_29
REMARK                            x       y       z     vdW  Elec       q    Type
REMARK                         _______ _______ _______ _____ _____    ______ ____
ROOT
ATOM      1  C   UNL     1      -0.833  -1.133   3.654  0.00  0.00    -0.014 C 
ATOM      2  C   UNL     1      -2.194  -0.835   3.020  0.00  0.00    -0.010 C 
ATOM      3  C   UNL     1      -2.180  -1.287   1.558  0.00  0.00    -0.078 C 
ATOM      4  N   UNL     1      -1.912  -2.729   1.491  0.00  0.00    +0.382 N 
ATOM      5  C   UNL     1      -0.578  -3.013   2.032  0.00  0.00    -0.078 C 
ATOM      6  C   UNL     1      -0.530  -2.627   3.512  0.00  0.00    -0.010 C 
ATOM      7  H   UNL     1      -2.605  -3.224   2.031  0.00  0.00    -0.081 HD
ENDROOT
BRANCH   1   8
ATOM      8  C   UNL     1      -0.863  -0.756   5.137  0.00  0.00    -0.003 C 
ATOM      9  C   UNL     1      -1.384   0.675   5.289  0.00  0.00    +0.004 C 
ATOM     10  C   UNL     1      -1.415   1.052   6.771  0.00  0.00    +0.000 C 
ATOM     11  C   UNL     1      -2.337   0.090   7.523  0.00  0.00    +0.000 C 
ATOM     12  C   UNL     1      -1.816  -1.340   7.371  0.00  0.00    +0.000 C 
ATOM     13  C   UNL     1      -1.786  -1.717   5.888  0.00  0.00    +0.004 C 
ENDBRANCH   1   8
BRANCH   1  14
ATOM     14  C   UNL     1       0.252  -0.321   2.942  0.00  0.00    +0.117 C 
BRANCH  14  21
ATOM     15  C   UNL     1       1.655   0.325   5.702  0.00  0.00    +0.038 C 
ATOM     16  C   UNL     1       2.388   0.103   4.378  0.00  0.00    +0.078 C 
ATOM     17  C   UNL     1       3.649  -0.756   4.595  0.00  0.00    +0.153 C 
ATOM     18  N   UNL     1       3.405  -1.954   3.779  0.00  0.00    -0.227 N 
ATOM     19  C   UNL     1       2.214  -1.841   3.177  0.00  0.00    +0.315 C 
ATOM     20  O   UNL     1       1.760  -2.694   2.438  0.00  0.00    -0.252 OA
ATOM     21  N   UNL     1       1.567  -0.703   3.461  0.00  0.00    -0.273 N 
BRANCH  16  22
ATOM     22  C   UNL     1       2.746   1.423   3.745  0.00  0.00    -0.023 A 
ATOM     23  C   UNL     1       2.380   1.685   2.438  0.00  0.00    +0.006 A 
ATOM     24  C   UNL     1       2.708   2.896   1.858  0.00  0.00    +0.000 A 
ATOM     25  C   UNL     1       3.403   3.845   2.585  0.00  0.00    +0.000 A 
ATOM     26  C   UNL     1       3.769   3.583   3.892  0.00  0.00    +0.000 A 
ATOM     27  C   UNL     1       3.436   2.374   4.473  0.00  0.00    +0.006 A 
ENDBRANCH  16  22
BRANCH  18  28
ATOM     28  S   UNL     1       4.438  -3.239   3.627  0.00  0.00    -0.059 S 
ATOM     29  C   UNL     1       3.942  -4.361   4.963  0.00  0.00    +0.107 C 
ENDBRANCH  18  28
ENDBRANCH  14  21
ENDBRANCH   1  14
BRANCH   4  30
ATOM     30  C   UNL     1      -1.976  -3.172   0.092  0.00  0.00    -0.043 C 
BRANCH  30  31
ATOM     31  C   UNL     1      -1.891  -4.676   0.038  0.00  0.00    -0.064 A 
ATOM     32  C   UNL     1      -0.660  -5.295  -0.059  0.00  0.00    +0.002 A 
ATOM     33  C   UNL     1      -0.582  -6.675  -0.109  0.00  0.00    +0.000 A 
ATOM     34  C   UNL     1      -1.736  -7.434  -0.062  0.00  0.00    +0.000 A 
ATOM     35  C   UNL     1      -2.967  -6.815   0.035  0.00  0.00    +0.000 A 
ATOM     36  C   UNL     1      -3.045  -5.436   0.090  0.00  0.00    +0.002 A 
ENDBRANCH  30  31
ENDBRANCH   4  30
TORSDOF 7
