REMARK  Name = ZINC41085233
REMARK  11 active torsions:
REMARK  status: ('A' for Active; 'I' for Inactive)
REMARK    1  A    between atoms: C_1  and  C_2
REMARK    2  A    between atoms: C_2  and  O_3
REMARK    3  A    between atoms: O_3  and  C_4
REMARK    4  A    between atoms: C_4  and  C_6
REMARK    5  A    between atoms: C_10  and  C_12
REMARK    6  A    between atoms: C_15  and  C_17
REMARK    7  A    between atoms: C_27  and  S_29
REMARK    8  A    between atoms: S_29  and  C_32
REMARK    9  A    between atoms: C_32  and  C_33
REMARK   10  A    between atoms: C_33  and  C_34
REMARK   11  A    between atoms: C_33  and  C_35
REMARK                            x       y       z     vdW  Elec       q    Type
REMARK                         _______ _______ _______ _____ _____    ______ ____
ROOT
ATOM      1  C   UNL     1       1.791  -9.085  -3.079  0.00  0.00    +0.063 C 
ATOM      2  C   UNL     1       1.194  -9.109  -1.827  0.00  0.00    +0.084 C 
ATOM      3  C   UNL     1       0.926 -10.384  -1.111  0.00  0.00    +0.153 C 
ATOM      4  N   UNL     1       1.696 -11.438  -1.208  0.00  0.00    -0.283 NA
ATOM      5  N   UNL     1      -0.239 -10.347  -0.315  0.00  0.00    -0.150 N 
ATOM      6  C   UNL     1      -0.683  -9.111   0.104  0.00  0.00    +0.182 C 
ATOM      7  N   UNL     1      -0.205  -7.938  -0.226  0.00  0.00    -0.152 NA
ATOM      8  C   UNL     1       0.796  -7.864  -1.130  0.00  0.00    +0.273 C 
ATOM      9  O   UNL     1       1.353  -6.804  -1.370  0.00  0.00    -0.268 OA
ATOM     10  S   UNL     1      -2.045  -9.543   1.154  0.00  0.00    -0.015 S 
ATOM     11  C   UNL     1      -1.995 -11.310   0.888  0.00  0.00    +0.235 C 
ATOM     12  N   UNL     1      -0.972 -11.441   0.093  0.00  0.00    -0.145 NA
ATOM     13  H   UNL     1       1.476 -12.246  -0.719  0.00  0.00    +0.188 HD
ENDROOT
BRANCH   1  17
ATOM     14  C   UNL     1       1.425  -5.822  -4.447  0.00  0.00    +0.136 A 
ATOM     15  C   UNL     1       2.248  -6.377  -5.403  0.00  0.00    +0.050 A 
ATOM     16  C   UNL     1       2.499  -7.692  -5.013  0.00  0.00    +0.050 A 
ATOM     17  C   UNL     1       1.815  -7.894  -3.823  0.00  0.00    +0.129 A 
ATOM     18  O   UNL     1       1.180  -6.747  -3.502  0.00  0.00    -0.455 OA
BRANCH  14  23
ATOM     19  C   UNL     1      -0.406  -2.692  -3.437  0.00  0.00    +0.060 A 
ATOM     20  C   UNL     1      -0.066  -1.837  -4.488  0.00  0.00    +0.015 A 
ATOM     21  C   UNL     1       0.750  -2.282  -5.509  0.00  0.00    +0.001 A 
ATOM     22  C   UNL     1       1.236  -3.574  -5.500  0.00  0.00    +0.011 A 
ATOM     23  C   UNL     1       0.905  -4.441  -4.455  0.00  0.00    +0.018 A 
ATOM     24  C   UNL     1       0.086  -3.996  -3.417  0.00  0.00    +0.026 A 
BRANCH  19  25
ATOM     25  C   UNL     1      -1.279  -2.214  -2.345  0.00  0.00    +0.339 C 
ATOM     26  O   UNL     1      -1.569  -2.958  -1.430  0.00  0.00    -0.245 OA
BRANCH  25  27
ATOM     27  O   UNL     1      -1.754  -0.954  -2.366  0.00  0.00    -0.461 OA
BRANCH  27  29
ATOM     28  C   UNL     1      -3.031   0.894  -1.474  0.00  0.00    +0.048 C 
ATOM     29  C   UNL     1      -2.592  -0.558  -1.278  0.00  0.00    +0.229 C 
ENDBRANCH  27  29
ENDBRANCH  25  27
ENDBRANCH  19  25
ENDBRANCH  14  23
ENDBRANCH   1  17
BRANCH  11  30
ATOM     30  S   UNL     1      -3.059 -12.556   1.535  0.00  0.00    +0.022 S 
ATOM     31  O   UNL     1      -4.320 -11.917   1.682  0.00  0.00    -0.167 OA
ATOM     32  O   UNL     1      -2.905 -13.659   0.653  0.00  0.00    -0.167 OA
BRANCH  30  33
ATOM     33  C   UNL     1      -2.369 -12.958   3.164  0.00  0.00    +0.177 C 
BRANCH  33  34
ATOM     34  C   UNL     1      -3.222 -14.042   3.826  0.00  0.00    +0.004 C 
ATOM     35  C   UNL     1      -3.123 -15.335   3.015  0.00  0.00    +0.009 C 
ATOM     36  C   UNL     1      -2.715 -14.292   5.248  0.00  0.00    +0.009 C 
ENDBRANCH  33  34
ENDBRANCH  30  33
ENDBRANCH  11  30
TORSDOF 8
