REMARK  Name = ZINC38739209
REMARK  10 active torsions:
REMARK  status: ('A' for Active; 'I' for Inactive)
REMARK    1  A    between atoms: C_1  and  O_2
REMARK    2  A    between atoms: O_2  and  C_3
REMARK    3  A    between atoms: C_3  and  C_5
REMARK    4  A    between atoms: C_5  and  C_7
REMARK    5  A    between atoms: C_5  and  N_18
REMARK    6  A    between atoms: C_7  and  C_8
REMARK    7  A    between atoms: C_19  and  C_21
REMARK    8  A    between atoms: C_27  and  C_29
REMARK    9  A    between atoms: N_34  and  C_37
REMARK   10  A    between atoms: C_37  and  C_38
REMARK                            x       y       z     vdW  Elec       q    Type
REMARK                         _______ _______ _______ _____ _____    ______ ____
ROOT
ATOM      1  C   UNL     1       1.482  -3.064   4.714  0.00  0.00    +0.091 C 
ATOM      2  C   UNL     1       1.972  -4.505   4.556  0.00  0.00    +0.040 C 
ATOM      3  C   UNL     1       0.808  -5.452   4.590  0.00  0.00    -0.030 C 
ATOM      4  C   UNL     1      -0.365  -5.144   5.042  0.00  0.00    -0.030 C 
ATOM      5  C   UNL     1      -0.729  -3.793   5.585  0.00  0.00    +0.040 C 
ATOM      6  C   UNL     1       0.538  -2.997   5.921  0.00  0.00    +0.091 C 
ENDROOT
BRANCH   6   7
ATOM      7  C   UNL     1       0.182  -1.560   6.206  0.00  0.00    +0.220 C 
ATOM      8  O   UNL     1      -0.838  -1.087   5.752  0.00  0.00    -0.275 OA
ATOM      9  N   UNL     1       0.997  -0.802   6.966  0.00  0.00    -0.299 N 
ATOM     10  C   UNL     1       2.294  -1.319   7.429  0.00  0.00    +0.123 C 
ATOM     11  C   UNL     1       3.380  -0.296   7.075  0.00  0.00    +0.103 C 
ATOM     12  N   UNL     1       3.006   1.017   7.616  0.00  0.00    -0.295 NA
ATOM     13  C   UNL     1       1.765   1.512   7.003  0.00  0.00    +0.103 C 
ATOM     14  C   UNL     1       0.616   0.566   7.350  0.00  0.00    +0.123 C 
BRANCH  12  15
ATOM     15  C   UNL     1       4.097   1.986   7.448  0.00  0.00    +0.119 C 
BRANCH  15  16
ATOM     16  C   UNL     1       3.781   3.239   8.223  0.00  0.00    -0.033 A 
ATOM     17  C   UNL     1       3.080   4.266   7.620  0.00  0.00    +0.005 A 
ATOM     18  C   UNL     1       2.789   5.415   8.331  0.00  0.00    +0.000 A 
ATOM     19  C   UNL     1       3.200   5.537   9.645  0.00  0.00    +0.000 A 
ATOM     20  C   UNL     1       3.900   4.510  10.249  0.00  0.00    +0.000 A 
ATOM     21  C   UNL     1       4.187   3.359   9.539  0.00  0.00    +0.005 A 
ENDBRANCH  15  16
ENDBRANCH  12  15
ENDBRANCH   6   7
BRANCH   1  23
ATOM     22  N   UNL     1       0.647  -1.333   3.157  0.00  0.00    -0.302 N 
ATOM     23  C   UNL     1       0.745  -2.640   3.470  0.00  0.00    +0.218 C 
ATOM     24  O   UNL     1       0.240  -3.475   2.750  0.00  0.00    -0.275 OA
ATOM     25  H   UNL     1       1.051  -0.664   3.733  0.00  0.00    +0.150 HD
BRANCH  22  26
ATOM     26  C   UNL     1      -0.069  -0.920   1.948  0.00  0.00    +0.186 C 
BRANCH  26  27
ATOM     27  C   UNL     1      -1.542  -0.810   2.249  0.00  0.00    +0.328 C 
ATOM     28  O   UNL     1      -1.950  -1.051   3.361  0.00  0.00    -0.249 OA
BRANCH  27  30
ATOM     29  C   UNL     1      -3.780  -0.360   1.640  0.00  0.00    +0.280 C 
ATOM     30  O   UNL     1      -2.399  -0.444   1.283  0.00  0.00    -0.467 OA
ENDBRANCH  27  30
ENDBRANCH  26  27
BRANCH  26  31
ATOM     31  C   UNL     1       0.458   0.437   1.480  0.00  0.00    +0.071 C 
BRANCH  31  32
ATOM     32  C   UNL     1       1.900   0.299   1.061  0.00  0.00    -0.020 A 
ATOM     33  C   UNL     1       2.979   0.536   1.824  0.00  0.00    +0.087 A 
ATOM     34  N   UNL     1       4.119   0.303   1.104  0.00  0.00    -0.360 N 
ATOM     35  H   UNL     1       5.022   0.407   1.442  0.00  0.00    +0.165 HD
ATOM     36  C   UNL     1       3.793  -0.099  -0.172  0.00  0.00    +0.047 A 
ATOM     37  C   UNL     1       2.389  -0.126  -0.253  0.00  0.00    +0.003 A 
ATOM     38  C   UNL     1       1.767  -0.508  -1.442  0.00  0.00    +0.010 A 
ATOM     39  C   UNL     1       2.526  -0.857  -2.523  0.00  0.00    +0.001 A 
ATOM     40  C   UNL     1       3.912  -0.837  -2.447  0.00  0.00    +0.002 A 
ATOM     41  C   UNL     1       4.546  -0.454  -1.286  0.00  0.00    +0.026 A 
ENDBRANCH  31  32
ENDBRANCH  26  31
ENDBRANCH  22  26
ENDBRANCH   1  23
TORSDOF 9
