REMARK  Name = ZINC39354219
REMARK  6 active torsions:
REMARK  status: ('A' for Active; 'I' for Inactive)
REMARK    1  A    between atoms: C_1  and  C_2
REMARK    2  A    between atoms: C_2  and  C_3
REMARK    3  A    between atoms: C_8  and  C_12
REMARK    4  A    between atoms: C_12  and  C_14
REMARK    5  A    between atoms: N_16  and  C_17
REMARK    6  A    between atoms: C_19  and  C_30
REMARK                            x       y       z     vdW  Elec       q    Type
REMARK                         _______ _______ _______ _____ _____    ______ ____
ROOT
ATOM      1  C   UNL     1      -0.767  -1.709   7.120  0.00  0.00    +0.285 C 
ATOM      2  O   UNL     1      -1.903  -1.366   6.862  0.00  0.00    -0.267 OA
ATOM      3  N   UNL     1      -0.454  -2.116   8.366  0.00  0.00    -0.296 N 
ATOM      4  H   UNL     1       0.454  -2.390   8.572  0.00  0.00    +0.150 HD
ENDROOT
BRANCH   3   5
ATOM      5  C   UNL     1      -1.483  -2.145   9.408  0.00  0.00    +0.149 C 
ATOM      6  C   UNL     1      -1.371  -3.435  10.248  0.00  0.00    +0.126 C 
ATOM      7  C   UNL     1      -0.550  -3.203  11.513  0.00  0.00    +0.021 C 
ATOM      8  C   UNL     1      -0.645  -4.354  12.477  0.00  0.00    +0.006 C 
ATOM      9  C   UNL     1      -1.873  -4.332  13.364  0.00  0.00    +0.000 C 
ATOM     10  C   UNL     1      -2.070  -2.963  14.008  0.00  0.00    +0.001 C 
ATOM     11  C   UNL     1      -2.191  -1.905  12.911  0.00  0.00    +0.014 C 
ATOM     12  C   UNL     1      -0.890  -1.845  12.142  0.00  0.00    +0.053 C 
ATOM     13  S   UNL     1      -1.196  -0.812  10.641  0.00  0.00    -0.134 S 
BRANCH   6  14
ATOM     14  C   UNL     1      -2.722  -3.882  10.628  0.00  0.00    +0.069 C 
ATOM     15  N   UNL     1      -3.764  -4.226  10.921  0.00  0.00    -0.196 NA
ENDBRANCH   6  14
ENDBRANCH   3   5
BRANCH   1  16
ATOM     16  C   UNL     1       0.279  -1.679   6.060  0.00  0.00    +0.246 C 
ATOM     17  O   UNL     1       1.417  -2.023   6.319  0.00  0.00    -0.282 OA
BRANCH  16  23
ATOM     18  C   UNL     1       0.731  -0.503   1.223  0.00  0.00    -0.024 A 
ATOM     19  C   UNL     1       2.047  -0.804   1.160  0.00  0.00    +0.005 A 
ATOM     20  C   UNL     1       2.755  -1.271   2.277  0.00  0.00    +0.001 A 
ATOM     21  C   UNL     1       2.170  -1.451   3.486  0.00  0.00    +0.010 A 
ATOM     22  C   UNL     1       0.798  -1.167   3.662  0.00  0.00    +0.007 A 
ATOM     23  C   UNL     1      -0.050  -1.253   4.756  0.00  0.00    +0.033 C 
ATOM     24  C   UNL     1      -1.402  -0.794   4.256  0.00  0.00    +0.153 C 
ATOM     25  N   UNL     1      -1.221  -0.461   2.840  0.00  0.00    -0.380 N 
ATOM     26  C   UNL     1       0.021  -0.665   2.503  0.00  0.00    +0.046 A 
ATOM     27  H   UNL     1      -1.916  -0.136   2.247  0.00  0.00    +0.160 HD
BRANCH  18  29
ATOM     28  C   UNL     1      -0.019   1.526   0.010  0.00  0.00    +0.009 C 
ATOM     29  C   UNL     1       0.002  -0.004   0.002  0.00  0.00    +0.034 C 
ENDBRANCH  18  29
ENDBRANCH  16  23
ENDBRANCH   1  16
TORSDOF 5
