REMARK  Name = ZINC21237415
REMARK  6 active torsions:
REMARK  status: ('A' for Active; 'I' for Inactive)
REMARK    1  A    between atoms: C_1  and  C_2
REMARK    2  A    between atoms: N_11  and  C_15
REMARK    3  A    between atoms: C_15  and  C_16
REMARK    4  A    between atoms: N_18  and  C_19
REMARK    5  A    between atoms: C_19  and  C_20
REMARK    6  A    between atoms: C_23  and  C_25
REMARK                            x       y       z     vdW  Elec       q    Type
REMARK                         _______ _______ _______ _____ _____    ______ ____
ROOT
ATOM      1  C   UNL     1      -0.268   1.258  -2.409  0.00  0.00    +0.231 C 
ATOM      2  O   UNL     1       0.726   0.575  -2.534  0.00  0.00    -0.274 OA
ATOM      3  N   UNL     1      -0.721   1.571  -1.179  0.00  0.00    -0.307 N 
ATOM      4  H   UNL     1      -1.623   2.191  -1.066  0.00  0.00    +0.149 HD
ENDROOT
BRANCH   1   5
ATOM      5  C   UNL     1      -0.997   1.758  -3.630  0.00  0.00    +0.213 C 
BRANCH   5  15
ATOM      6  C   UNL     1      -0.636   2.285  -8.017  0.00  0.00    +0.010 C 
ATOM      7  C   UNL     1       0.827   1.844  -7.947  0.00  0.00    +0.018 C 
ATOM      8  C   UNL     1       1.735   3.074  -8.014  0.00  0.00    +0.006 C 
ATOM      9  C   UNL     1       3.197   2.633  -7.922  0.00  0.00    +0.000 C 
ATOM     10  C   UNL     1       3.431   1.911  -6.594  0.00  0.00    +0.003 C 
ATOM     11  C   UNL     1       2.530   0.675  -6.521  0.00  0.00    +0.035 C 
ATOM     12  C   UNL     1       1.070   1.100  -6.638  0.00  0.00    +0.115 C 
ATOM     13  C   UNL     1       0.672   1.963  -5.463  0.00  0.00    +0.247 C 
ATOM     14  O   UNL     1       1.139   3.037  -5.150  0.00  0.00    -0.273 OA
ATOM     15  N   UNL     1      -0.311   1.285  -4.835  0.00  0.00    -0.215 N 
ATOM     16  C   UNL     1      -0.586   0.130  -5.453  0.00  0.00    +0.310 C 
ATOM     17  O   UNL     1      -1.437  -0.652  -5.077  0.00  0.00    -0.252 OA
ATOM     18  N   UNL     1       0.186  -0.068  -6.539  0.00  0.00    -0.285 N 
ATOM     19  H   UNL     1       0.255  -0.875  -7.283  0.00  0.00    +0.151 HD
ENDBRANCH   5  15
ENDBRANCH   1   5
BRANCH   3  20
ATOM     20  C   UNL     1      -0.013   1.086   0.008  0.00  0.00    +0.178 C 
BRANCH  20  21
ATOM     21  C   UNL     1      -0.718   1.572   1.248  0.00  0.00    +0.123 A 
ATOM     22  C   UNL     1      -1.706   0.923   1.895  0.00  0.00    +0.047 A 
ATOM     23  C   UNL     1      -2.076   1.725   2.994  0.00  0.00    +0.050 A 
ATOM     24  C   UNL     1      -1.285   2.830   2.955  0.00  0.00    +0.135 A 
ATOM     25  O   UNL     1      -0.463   2.721   1.894  0.00  0.00    -0.458 OA
BRANCH  24  26
ATOM     26  C   UNL     1      -1.319   3.954   3.915  0.00  0.00    +0.017 A 
ATOM     27  C   UNL     1      -2.225   3.942   4.977  0.00  0.00    +0.013 A 
ATOM     28  C   UNL     1      -2.248   4.991   5.872  0.00  0.00    +0.021 A 
ATOM     29  C   UNL     1      -1.381   6.059   5.713  0.00  0.00    +0.041 A 
ATOM     30  C   UNL     1      -0.484   6.080   4.659  0.00  0.00    +0.021 A 
ATOM     31  C   UNL     1      -0.448   5.034   3.760  0.00  0.00    +0.013 A 
ATOM     32 CL   UNL     1      -1.421   7.380   6.840  0.00  0.00    -0.084 Cl
ENDBRANCH  24  26
ENDBRANCH  20  21
ENDBRANCH   3  20
TORSDOF 5
