REMARK  Name = ZINC24143228
REMARK  8 active torsions:
REMARK  status: ('A' for Active; 'I' for Inactive)
REMARK    1  A    between atoms: C_1  and  C_2
REMARK    2  A    between atoms: C_2  and  C_3
REMARK    3  A    between atoms: C_3  and  C_4
REMARK    4  A    between atoms: C_4  and  C_5
REMARK    5  A    between atoms: C_5  and  C_28
REMARK    6  A    between atoms: N_8  and  C_12
REMARK    7  A    between atoms: C_12  and  C_13
REMARK    8  A    between atoms: N_18  and  C_21
REMARK                            x       y       z     vdW  Elec       q    Type
REMARK                         _______ _______ _______ _____ _____    ______ ____
ROOT
ATOM      1  C   UNL     1      -2.553   3.869   0.045  0.00  0.00    +0.138 C 
ATOM      2  C   UNL     1      -2.969   4.246  -1.362  0.00  0.00    +0.251 C 
ATOM      3  O   UNL     1      -3.201   3.494  -2.284  0.00  0.00    -0.272 OA
ATOM      4  N   UNL     1      -3.028   5.593  -1.376  0.00  0.00    -0.215 N 
ATOM      5  C   UNL     1      -2.710   6.112  -0.185  0.00  0.00    +0.310 C 
ATOM      6  O   UNL     1      -2.692   7.305   0.049  0.00  0.00    -0.252 OA
ATOM      7  N   UNL     1      -2.412   5.168   0.725  0.00  0.00    -0.281 N 
ATOM      8  H   UNL     1      -2.112   5.206   1.783  0.00  0.00    +0.152 HD
ENDROOT
BRANCH   1   9
ATOM      9  C   UNL     1      -1.238   3.133   0.030  0.00  0.00    -0.015 A 
ATOM     10  C   UNL     1      -1.219   1.751   0.017  0.00  0.00    +0.006 A 
ATOM     11  C   UNL     1      -0.013   1.076   0.008  0.00  0.00    +0.000 A 
ATOM     12  C   UNL     1       1.175   1.783   0.000  0.00  0.00    +0.000 A 
ATOM     13  C   UNL     1       1.156   3.165   0.008  0.00  0.00    +0.000 A 
ATOM     14  C   UNL     1      -0.050   3.840   0.022  0.00  0.00    +0.006 A 
ENDBRANCH   1   9
BRANCH   1  15
ATOM     15  C   UNL     1      -3.633   3.022   0.721  0.00  0.00    +0.040 C 
BRANCH  15  16
ATOM     16  C   UNL     1      -4.956   3.791   0.724  0.00  0.00    +0.003 C 
BRANCH  16  18
ATOM     17  C   UNL     1      -7.360   3.713   1.402  0.00  0.00    +0.004 C 
ATOM     18  C   UNL     1      -6.037   2.944   1.399  0.00  0.00    -0.003 C 
ENDBRANCH  16  18
ENDBRANCH  15  16
ENDBRANCH   1  15
BRANCH   4  19
ATOM     19  C   UNL     1      -3.394   6.388  -2.550  0.00  0.00    +0.213 C 
BRANCH  19  20
ATOM     20  C   UNL     1      -2.154   6.716  -3.341  0.00  0.00    +0.234 C 
ATOM     21  O   UNL     1      -1.071   6.324  -2.962  0.00  0.00    -0.274 OA
ATOM     22  N   UNL     1      -2.249   7.446  -4.471  0.00  0.00    -0.297 N 
ATOM     23  C   UNL     1      -3.553   7.926  -4.952  0.00  0.00    +0.126 C 
ATOM     24  C   UNL     1      -3.442   9.436  -5.217  0.00  0.00    +0.124 C 
ATOM     25  N   UNL     1      -2.314   9.688  -6.124  0.00  0.00    -0.327 N 
ATOM     26  C   UNL     1      -1.040   9.288  -5.514  0.00  0.00    +0.124 C 
ATOM     27  C   UNL     1      -1.051   7.777  -5.258  0.00  0.00    +0.126 C 
BRANCH  25  28
ATOM     28  C   UNL     1      -2.281  11.026  -6.522  0.00  0.00    +0.031 A 
ATOM     29  C   UNL     1      -3.393  11.601  -7.125  0.00  0.00    +0.023 A 
ATOM     30  C   UNL     1      -3.358  12.925  -7.517  0.00  0.00    +0.003 A 
ATOM     31  C   UNL     1      -2.217  13.679  -7.311  0.00  0.00    +0.020 A 
ATOM     32  C   UNL     1      -1.107  13.109  -6.711  0.00  0.00    +0.043 A 
ATOM     33  C   UNL     1      -1.138  11.786  -6.312  0.00  0.00    +0.043 A 
ATOM     34 CL   UNL     1       0.323  14.060  -6.454  0.00  0.00    -0.083 Cl
ENDBRANCH  25  28
ENDBRANCH  19  20
ENDBRANCH   4  19
TORSDOF 7
