REMARK  Name = ZINC65691446
REMARK  5 active torsions:
REMARK  status: ('A' for Active; 'I' for Inactive)
REMARK    1  A    between atoms: C_3  and  C_6
REMARK    2  A    between atoms: C_8  and  C_11
REMARK    3  A    between atoms: C_11  and  N_12
REMARK    4  A    between atoms: C_13  and  C_14
REMARK    5  A    between atoms: C_16  and  N_21
REMARK                            x       y       z     vdW  Elec       q    Type
REMARK                         _______ _______ _______ _____ _____    ______ ____
ROOT
ATOM      1  N   UNL     1       7.650   1.326  -1.531  0.00  0.00    -0.381 N 
ATOM      2  C   UNL     1       8.765   1.955  -1.930  0.00  0.00    +0.090 C 
ATOM      3  H   UNL     1       7.157   0.772  -2.156  0.00  0.00    +0.160 HD
ENDROOT
BRANCH   2   4
ATOM      4  C   UNL     1       9.262   1.747  -3.219  0.00  0.00    +0.039 A 
ATOM      5  C   UNL     1      10.369   2.485  -3.694  0.00  0.00    +0.045 A 
ATOM      6  C   UNL     1      10.838   2.268  -4.951  0.00  0.00    +0.127 A 
ATOM      7  C   UNL     1      10.252   1.328  -5.794  0.00  0.00    +0.036 A 
ATOM      8  C   UNL     1       9.183   0.584  -5.397  0.00  0.00    +0.054 A 
ATOM      9  C   UNL     1       8.650   0.751  -4.107  0.00  0.00    +0.188 A 
ATOM     10  O   UNL     1       7.693   0.086  -3.735  0.00  0.00    -0.287 OA
BRANCH   6  11
ATOM     11  N   UNL     1      11.998   3.049  -5.435  0.00  0.00    +0.056 N 
ATOM     12  O   UNL     1      12.518   3.869  -4.715  0.00  0.00    -0.126 OA
ATOM     13  O   UNL     1      12.427   2.867  -6.551  0.00  0.00    -0.126 OA
ENDBRANCH   6  11
ENDBRANCH   2   4
BRANCH   1  14
ATOM     14  C   UNL     1       7.176   1.477  -0.153  0.00  0.00    +0.211 C 
BRANCH  14  17
ATOM     15  C   UNL     1       3.708   2.550  -0.199  0.00  0.00    +0.209 A 
ATOM     16  N   UNL     1       4.680   1.617  -0.223  0.00  0.00    -0.189 NA
ATOM     17  C   UNL     1       5.848   2.188  -0.153  0.00  0.00    +0.247 A 
ATOM     18  O   UNL     1       5.671   3.514  -0.081  0.00  0.00    -0.336 OA
ATOM     19  N   UNL     1       4.269   3.735  -0.118  0.00  0.00    -0.055 NA
BRANCH  15  22
ATOM     20  C   UNL     1      -0.071   2.690  -0.312  0.00  0.00    +0.008 A 
ATOM     21  C   UNL     1       1.215   3.175  -0.245  0.00  0.00    +0.019 A 
ATOM     22  C   UNL     1       2.256   2.285  -0.259  0.00  0.00    +0.060 A 
ATOM     23  S   UNL     1       1.402   0.722  -0.370  0.00  0.00    -0.093 S 
ATOM     24  C   UNL     1      -0.270   1.348  -0.391  0.00  0.00    +0.046 A 
ENDBRANCH  15  22
ENDBRANCH  14  17
ENDBRANCH   1  14
TORSDOF 5
