REMARK  Name = ZINC12833498
REMARK  10 active torsions:
REMARK  status: ('A' for Active; 'I' for Inactive)
REMARK    1  A    between atoms: C_1  and  C_2
REMARK    2  A    between atoms: C_2  and  O_3
REMARK    3  A    between atoms: O_3  and  C_4
REMARK    4  A    between atoms: C_11  and  C_16
REMARK    5  A    between atoms: C_16  and  N_67
REMARK    6  A    between atoms: C_17  and  C_18
REMARK    7  A    between atoms: C_17  and  N_67
REMARK    8  A    between atoms: C_27  and  C_28
REMARK    9  A    between atoms: C_27  and  N_67
REMARK   10  A    between atoms: N_32  and  C_33
REMARK                            x       y       z     vdW  Elec       q    Type
REMARK                         _______ _______ _______ _____ _____    ______ ____
ROOT
ATOM      1  N   UNL     1       5.797  -1.129   1.173  0.00  0.00    +0.390 N 
ATOM      2  H   UNL     1       5.430  -1.902   0.605  0.00  0.00    -0.080 HD
ENDROOT
BRANCH   1   3
ATOM      3  C   UNL     1       6.948  -1.616   1.962  0.00  0.00    -0.036 C 
BRANCH   3  11
ATOM      4  C   UNL     1       6.630  -7.799   2.276  0.00  0.00    +0.121 A 
ATOM      5  C   UNL     1       5.959  -7.853   3.495  0.00  0.00    +0.047 A 
ATOM      6  C   UNL     1       5.621  -6.696   4.161  0.00  0.00    +0.030 A 
ATOM      7  C   UNL     1       5.948  -5.459   3.616  0.00  0.00    +0.049 A 
ATOM      8  C   UNL     1       6.626  -5.400   2.385  0.00  0.00    +0.002 A 
ATOM      9  C   UNL     1       6.965  -6.582   1.717  0.00  0.00    +0.055 A 
ATOM     10  C   UNL     1       6.966  -4.091   1.823  0.00  0.00    +0.017 A 
ATOM     11  C   UNL     1       6.613  -2.978   2.513  0.00  0.00    +0.001 A 
ATOM     12  C   UNL     1       5.939  -3.091   3.747  0.00  0.00    +0.251 A 
ATOM     13  O   UNL     1       5.636  -2.078   4.354  0.00  0.00    -0.268 OA
ATOM     14  N   UNL     1       5.618  -4.288   4.269  0.00  0.00    -0.322 N 
ATOM     15  H   UNL     1       5.150  -4.330   5.117  0.00  0.00    +0.169 HD
BRANCH   4  16
ATOM     16  O   UNL     1       6.957  -8.951   1.632  0.00  0.00    -0.492 OA
BRANCH  16  18
ATOM     17  C   UNL     1       7.029 -11.355   1.398  0.00  0.00    +0.048 C 
ATOM     18  C   UNL     1       6.581 -10.176   2.264  0.00  0.00    +0.225 C 
ENDBRANCH  16  18
ENDBRANCH   4  16
ENDBRANCH   3  11
ENDBRANCH   1   3
BRANCH   1  19
ATOM     19  C   UNL     1       4.731  -0.649   2.077  0.00  0.00    -0.042 C 
BRANCH  19  20
ATOM     20  C   UNL     1       3.494  -0.366   1.264  0.00  0.00    -0.060 A 
ATOM     21  C   UNL     1       2.570  -1.371   1.042  0.00  0.00    +0.005 A 
ATOM     22  C   UNL     1       1.434  -1.116   0.297  0.00  0.00    +0.050 A 
ATOM     23  C   UNL     1       1.219   0.147  -0.230  0.00  0.00    +0.166 A 
ATOM     24  C   UNL     1       2.149   1.158  -0.006  0.00  0.00    +0.166 A 
ATOM     25  C   UNL     1       3.285   0.896   0.742  0.00  0.00    +0.051 A 
ATOM     26  O   UNL     1       1.714   2.296  -0.623  0.00  0.00    -0.453 OA
ATOM     27  C   UNL     1       0.313   2.082  -0.879  0.00  0.00    +0.466 C 
ATOM     28  O   UNL     1       0.200   0.650  -0.987  0.00  0.00    -0.453 OA
ENDBRANCH  19  20
ENDBRANCH   1  19
BRANCH   1  29
ATOM     29  C   UNL     1       6.227  -0.036   0.275  0.00  0.00    +0.001 C 
BRANCH  29  30
ATOM     30  C   UNL     1       7.073  -0.619  -0.828  0.00  0.00    +0.135 A 
ATOM     31  N   UNL     1       8.382  -0.670  -0.866  0.00  0.00    -0.115 NA
ATOM     32  N   UNL     1       8.726  -1.243  -1.967  0.00  0.00    -0.023 NA
ATOM     33  N   UNL     1       7.671  -1.551  -2.636  0.00  0.00    -0.044 NA
ATOM     34  N   UNL     1       6.631  -1.183  -1.967  0.00  0.00    -0.228 N 
BRANCH  34  35
ATOM     35  C   UNL     1       5.233  -1.348  -2.371  0.00  0.00    +0.111 C 
ATOM     36  C   UNL     1       4.926  -2.840  -2.616  0.00  0.00    +0.027 C 
ATOM     37  C   UNL     1       3.961  -2.834  -3.828  0.00  0.00    +0.002 C 
ATOM     38  C   UNL     1       4.529  -1.697  -4.713  0.00  0.00    +0.002 C 
ATOM     39  C   UNL     1       4.980  -0.621  -3.704  0.00  0.00    +0.027 C 
ENDBRANCH  34  35
ENDBRANCH  29  30
ENDBRANCH   1  29
TORSDOF 9
