REMARK  Name = ZINC40155534
REMARK  5 active torsions:
REMARK  status: ('A' for Active; 'I' for Inactive)
REMARK    1  A    between atoms: C_6  and  S_7
REMARK    2  A    between atoms: S_7  and  C_8
REMARK    3  A    between atoms: C_8  and  C_9
REMARK    4  A    between atoms: N_25  and  C_28
REMARK    5  A    between atoms: C_28  and  C_29
REMARK                            x       y       z     vdW  Elec       q    Type
REMARK                         _______ _______ _______ _____ _____    ______ ____
ROOT
ATOM      1  C   UNL     1      -1.872  -2.831  -0.007  0.00  0.00    +0.142 A 
ATOM      2  N   UNL     1      -2.299  -3.427   1.092  0.00  0.00    -0.216 NA
ATOM      3  C   UNL     1      -3.301  -4.292   1.080  0.00  0.00    +0.133 A 
ATOM      4  C   UNL     1      -3.940  -4.590  -0.155  0.00  0.00    +0.051 A 
ATOM      5  C   UNL     1      -5.062  -5.509  -0.407  0.00  0.00    -0.025 A 
ATOM      6  C   UNL     1      -5.485  -5.616  -1.677  0.00  0.00    -0.004 A 
ATOM      7  S   UNL     1      -4.441  -4.518  -2.607  0.00  0.00    -0.073 S 
ATOM      8  C   UNL     1      -3.431  -3.918  -1.281  0.00  0.00    +0.114 A 
ATOM      9  N   UNL     1      -2.429  -3.065  -1.180  0.00  0.00    -0.224 NA
ATOM     10  C   UNL     1      -6.629  -6.584  -1.815  0.00  0.00    +0.043 C 
ATOM     11  C   UNL     1      -6.598  -7.410  -0.510  0.00  0.00    +0.010 C 
ATOM     12  C   UNL     1      -5.922  -6.428   0.466  0.00  0.00    +0.037 C 
ATOM     13  N   UNL     1      -3.721  -4.896   2.251  0.00  0.00    -0.316 N 
ATOM     14  C   UNL     1      -3.015  -6.106   2.721  0.00  0.00    +0.104 C 
ATOM     15  C   UNL     1      -2.804  -6.067   4.245  0.00  0.00    +0.000 C 
ATOM     16  C   UNL     1      -2.437  -4.662   4.667  0.00  0.00    -0.077 C 
ATOM     17  N   UNL     1      -3.648  -3.943   5.058  0.00  0.00    +0.386 N 
ATOM     18  C   UNL     1      -4.318  -3.288   4.001  0.00  0.00    -0.059 C 
ATOM     19  C   UNL     1      -4.833  -4.317   2.976  0.00  0.00    +0.088 C 
ATOM     20  H   UNL     1      -4.286  -4.601   5.480  0.00  0.00    -0.081 HD
ENDROOT
BRANCH   1  21
ATOM     21  C   UNL     1      -0.725  -1.857   0.082  0.00  0.00    +0.150 C 
BRANCH  21  22
ATOM     22  S   UNL     1      -1.370  -0.190   0.389  0.00  0.00    -0.117 S 
BRANCH  22  28
ATOM     23  C   UNL     1      -0.043   2.184   0.692  0.00  0.00    +0.016 A 
ATOM     24  C   UNL     1       1.090   2.971   0.753  0.00  0.00    +0.021 A 
ATOM     25  C   UNL     1       2.341   2.401   0.588  0.00  0.00    +0.041 A 
ATOM     26  C   UNL     1       2.459   1.040   0.362  0.00  0.00    +0.021 A 
ATOM     27  C   UNL     1       1.330   0.248   0.300  0.00  0.00    +0.016 A 
ATOM     28  C   UNL     1       0.073   0.818   0.466  0.00  0.00    +0.008 A 
ATOM     29 CL   UNL     1       3.763   3.393   0.664  0.00  0.00    -0.084 Cl
ENDBRANCH  22  28
ENDBRANCH  21  22
ENDBRANCH   1  21
BRANCH  17  30
ATOM     30  C   UNL     1      -3.287  -2.942   6.070  0.00  0.00    +0.018 C 
BRANCH  30  31
ATOM     31  C   UNL     1      -2.821  -3.639   7.322  0.00  0.00    +0.194 C 
ATOM     32  O   UNL     1      -2.901  -4.846   7.410  0.00  0.00    -0.278 OA
ATOM     33  N   UNL     1      -2.315  -2.921   8.345  0.00  0.00    -0.331 N 
ATOM     34  H   UNL     1      -2.251  -1.956   8.274  0.00  0.00    +0.145 HD
ATOM     35  H   UNL     1      -2.015  -3.369   9.151  0.00  0.00    +0.145 HD
ENDBRANCH  30  31
ENDBRANCH  17  30
TORSDOF 5
