REMARK  Name = ZINC38688651
REMARK  14 active torsions:
REMARK  status: ('A' for Active; 'I' for Inactive)
REMARK    1  A    between atoms: C_1  and  C_2
REMARK    2  A    between atoms: C_2  and  C_3
REMARK    3  A    between atoms: C_3  and  C_4
REMARK    4  A    between atoms: C_4  and  C_5
REMARK    5  A    between atoms: C_8  and  C_11
REMARK    6  A    between atoms: C_11  and  O_13
REMARK    7  A    between atoms: O_13  and  C_14
REMARK    8  A    between atoms: C_21  and  N_37
REMARK    9  A    between atoms: C_22  and  C_35
REMARK   10  A    between atoms: C_23  and  C_25
REMARK   11  A    between atoms: C_29  and  O_33
REMARK   12  A    between atoms: C_30  and  O_31
REMARK   13  A    between atoms: O_31  and  C_32
REMARK   14  A    between atoms: O_33  and  C_34
REMARK                            x       y       z     vdW  Elec       q    Type
REMARK                         _______ _______ _______ _____ _____    ______ ____
ROOT
ATOM      1  C   UNL     1      -3.213  -8.285  -3.008  0.00  0.00    +0.135 A 
ATOM      2  C   UNL     1      -4.118  -7.237  -3.102  0.00  0.00    +0.047 A 
ATOM      3  C   UNL     1      -5.474  -7.495  -3.108  0.00  0.00    +0.012 A 
ATOM      4  C   UNL     1      -5.937  -8.796  -3.022  0.00  0.00    +0.008 A 
ATOM      5  C   UNL     1      -5.038  -9.847  -2.929  0.00  0.00    +0.138 A 
ATOM      6  C   UNL     1      -3.673  -9.589  -2.928  0.00  0.00    +0.093 A 
ATOM      7  O   UNL     1      -5.472 -11.128  -2.843  0.00  0.00    -0.441 OA
ATOM      8  C   UNL     1      -6.735 -11.384  -2.465  0.00  0.00    +0.199 C 
ATOM      9  C   UNL     1      -7.707 -10.444  -2.529  0.00  0.00    +0.098 C 
ATOM     10  C   UNL     1      -7.420  -9.057  -3.031  0.00  0.00    +0.102 C 
ENDROOT
BRANCH  10  11
ATOM     11  C   UNL     1      -7.943  -8.917  -4.438  0.00  0.00    +0.011 A 
ATOM     12  C   UNL     1      -7.395  -9.673  -5.457  0.00  0.00    +0.008 A 
ATOM     13  C   UNL     1      -7.872  -9.547  -6.748  0.00  0.00    +0.004 A 
ATOM     14  C   UNL     1      -8.899  -8.664  -7.026  0.00  0.00    +0.049 A 
ATOM     15  C   UNL     1      -9.453  -7.903  -6.009  0.00  0.00    +0.162 A 
ATOM     16  C   UNL     1      -8.976  -8.035  -4.708  0.00  0.00    +0.166 A 
BRANCH  16  17
ATOM     17  O   UNL     1      -9.520  -7.294  -3.705  0.00  0.00    -0.491 OA
ATOM     18  C   UNL     1      -9.011  -5.971  -3.526  0.00  0.00    +0.277 C 
ENDBRANCH  16  17
BRANCH  15  19
ATOM     19  O   UNL     1     -10.463  -7.034  -6.280  0.00  0.00    -0.491 OA
ATOM     20  C   UNL     1     -10.905  -6.956  -7.637  0.00  0.00    +0.277 C 
ENDBRANCH  15  19
ENDBRANCH  10  11
BRANCH   8  21
ATOM     21  N   UNL     1      -7.051 -12.637  -1.999  0.00  0.00    -0.328 N 
ATOM     22  H   UNL     1      -6.365 -13.321  -1.948  0.00  0.00    +0.145 HD
ATOM     23  H   UNL     1      -7.958 -12.837  -1.722  0.00  0.00    +0.145 HD
ENDBRANCH   8  21
BRANCH   9  24
ATOM     24  C   UNL     1      -9.035 -10.777  -2.111  0.00  0.00    +0.101 C 
ATOM     25  N   UNL     1     -10.089 -11.042  -1.779  0.00  0.00    -0.191 NA
ENDBRANCH   9  24
BRANCH   1  26
ATOM     26  O   UNL     1      -1.877  -8.033  -3.001  0.00  0.00    -0.426 OA
BRANCH  26  27
ATOM     27  C   UNL     1      -1.324  -7.595  -1.859  0.00  0.00    +0.315 C 
ATOM     28  O   UNL     1      -2.023  -7.351  -0.904  0.00  0.00    -0.250 OA
BRANCH  27  32
ATOM     29  C   UNL     1       2.749  -8.047  -0.538  0.00  0.00    -0.011 C 
ATOM     30  C   UNL     1       2.049  -6.711  -0.278  0.00  0.00    +0.004 C 
ATOM     31  C   UNL     1       0.534  -6.903  -0.370  0.00  0.00    +0.015 C 
ATOM     32  C   UNL     1       0.168  -7.406  -1.768  0.00  0.00    +0.098 C 
ATOM     33  C   UNL     1       0.867  -8.742  -2.028  0.00  0.00    +0.015 C 
ATOM     34  C   UNL     1       2.383  -8.550  -1.936  0.00  0.00    +0.004 C 
BRANCH  29  35
ATOM     35  C   UNL     1       2.299  -9.070   0.506  0.00  0.00    +0.003 C 
BRANCH  35  36
ATOM     36  C   UNL     1       2.775  -8.628   1.892  0.00  0.00    +0.000 C 
BRANCH  36  38
ATOM     37  C   UNL     1       2.801  -9.208   4.322  0.00  0.00    +0.004 C 
ATOM     38  C   UNL     1       2.325  -9.651   2.937  0.00  0.00    -0.003 C 
ENDBRANCH  36  38
ENDBRANCH  35  36
ENDBRANCH  29  35
ENDBRANCH  27  32
ENDBRANCH  26  27
ENDBRANCH   1  26
TORSDOF 11
