REMARK  Name = ZINC23552067
REMARK  11 active torsions:
REMARK  status: ('A' for Active; 'I' for Inactive)
REMARK    1  A    between atoms: C_1  and  C_2
REMARK    2  A    between atoms: C_5  and  N_9
REMARK    3  A    between atoms: C_6  and  C_8
REMARK    4  A    between atoms: C_13  and  C_15
REMARK    5  A    between atoms: C_15  and  O_16
REMARK    6  A    between atoms: O_16  and  C_17
REMARK    7  A    between atoms: C_17  and  C_19
REMARK    8  A    between atoms: C_19  and  N_20
REMARK    9  A    between atoms: C_25  and  C_32
REMARK   10  A    between atoms: C_28  and  C_30
REMARK   11  A    between atoms: C_28  and  C_31
REMARK                            x       y       z     vdW  Elec       q    Type
REMARK                         _______ _______ _______ _____ _____    ______ ____
ROOT
ATOM      1  C   UNL     1      -6.384   1.423   5.185  0.00  0.00    +0.326 C 
ATOM      2  O   UNL     1      -5.954   2.552   5.207  0.00  0.00    -0.249 OA
ENDROOT
BRANCH   1   3
ATOM      3  O   UNL     1      -7.572   1.146   5.745  0.00  0.00    -0.454 OA
BRANCH   3   4
ATOM      4  C   UNL     1      -8.285   2.252   6.360  0.00  0.00    +0.328 C 
BRANCH   4   9
ATOM      5  N   UNL     1     -12.418   3.021   8.690  0.00  0.00    -0.269 N 
ATOM      6  C   UNL     1     -11.585   2.165   8.067  0.00  0.00    +0.310 C 
ATOM      7  O   UNL     1     -11.884   0.991   7.966  0.00  0.00    -0.252 OA
ATOM      8  N   UNL     1     -10.420   2.610   7.555  0.00  0.00    -0.237 N 
ATOM      9  C   UNL     1      -9.587   1.754   6.932  0.00  0.00    +0.258 C 
ATOM     10  O   UNL     1      -9.885   0.583   6.832  0.00  0.00    -0.272 OA
ATOM     11  H   UNL     1     -12.183   4.095   8.719  0.00  0.00    +0.156 HD
ATOM     12  H   UNL     1     -10.150   3.673   7.646  0.00  0.00    +0.159 HD
BRANCH   5  17
ATOM     13  C   UNL     1     -17.142   1.086  11.165  0.00  0.00    +0.044 C 
ATOM     14  C   UNL     1     -15.888   1.600  10.507  0.00  0.00    -0.050 A 
ATOM     15  C   UNL     1     -15.355   0.932   9.420  0.00  0.00    +0.005 A 
ATOM     16  C   UNL     1     -14.205   1.401   8.815  0.00  0.00    +0.024 A 
ATOM     17  C   UNL     1     -13.584   2.544   9.300  0.00  0.00    +0.038 A 
ATOM     18  C   UNL     1     -14.118   3.210  10.396  0.00  0.00    -0.029 A 
ATOM     19  C   UNL     1     -15.272   2.739  10.992  0.00  0.00    +0.008 A 
ATOM     20  C   UNL     1     -13.444   4.447  10.929  0.00  0.00    +0.045 C 
ENDBRANCH   5  17
ENDBRANCH   4   9
ENDBRANCH   3   4
ENDBRANCH   1   3
BRANCH   1  21
ATOM     21  C   UNL     1      -5.587   0.326   4.528  0.00  0.00    +0.238 C 
BRANCH  21  22
ATOM     22  N   UNL     1      -4.339   0.880   3.997  0.00  0.00    -0.213 N 
ATOM     23  C   UNL     1      -4.201   1.380   2.751  0.00  0.00    +0.247 C 
ATOM     24  O   UNL     1      -5.052   1.452   1.891  0.00  0.00    -0.273 OA
ATOM     25  C   UNL     1      -2.761   1.830   2.654  0.00  0.00    +0.113 C 
ATOM     26  C   UNL     1      -2.689   3.331   2.396  0.00  0.00    +0.038 C 
ATOM     27  C   UNL     1      -1.223   3.769   2.336  0.00  0.00    -0.011 C 
ATOM     28  C   UNL     1      -0.509   3.007   1.218  0.00  0.00    +0.009 C 
ATOM     29  C   UNL     1      -0.572   1.504   1.501  0.00  0.00    -0.032 C 
ATOM     30  C   UNL     1      -2.035   1.058   1.558  0.00  0.00    +0.041 C 
ATOM     31  C   UNL     1       0.151   0.745   0.387  0.00  0.00    +0.011 C 
ATOM     32  C   UNL     1       0.104   1.209   2.841  0.00  0.00    +0.011 C 
ATOM     33  C   UNL     1      -1.151   5.271   2.056  0.00  0.00    +0.007 C 
ATOM     34  N   UNL     1      -2.197   1.506   3.970  0.00  0.00    -0.285 N 
ATOM     35  C   UNL     1      -3.195   0.955   4.687  0.00  0.00    +0.310 C 
ATOM     36  O   UNL     1      -3.070   0.568   5.833  0.00  0.00    -0.252 OA
ATOM     37  H   UNL     1      -1.142   1.730   4.186  0.00  0.00    +0.151 HD
ENDBRANCH  21  22
ENDBRANCH   1  21
TORSDOF 6
