REMARK  Name = ZINC38571065
REMARK  8 active torsions:
REMARK  status: ('A' for Active; 'I' for Inactive)
REMARK    1  A    between atoms: C_1  and  C_2
REMARK    2  A    between atoms: C_13  and  C_15
REMARK    3  A    between atoms: C_15  and  C_16
REMARK    4  A    between atoms: N_18  and  C_19
REMARK    5  A    between atoms: C_19  and  C_20
REMARK    6  A    between atoms: C_20  and  C_21
REMARK    7  A    between atoms: C_32  and  C_35
REMARK    8  A    between atoms: C_32  and  C_36
REMARK                            x       y       z     vdW  Elec       q    Type
REMARK                         _______ _______ _______ _____ _____    ______ ____
ROOT
ATOM      1  C   UNL     1      -0.019   1.526   0.010  0.00  0.00    +0.013 C 
ATOM      2  C   UNL     1       0.002  -0.004   0.002  0.00  0.00    +0.034 C 
ATOM      3  C   UNL     1      -1.413  -0.524   0.009  0.00  0.00    -0.001 A 
ATOM      4  C   UNL     1      -2.362   0.130  -0.759  0.00  0.00    +0.014 A 
ATOM      5  C   UNL     1      -3.672  -0.312  -0.792  0.00  0.00    -0.005 A 
ATOM      6  C   UNL     1      -4.043  -1.423  -0.053  0.00  0.00    +0.128 A 
ATOM      7  C   UNL     1      -3.095  -2.079   0.721  0.00  0.00    +0.092 A 
ATOM      8  C   UNL     1      -1.781  -1.629   0.756  0.00  0.00    +0.139 A 
ATOM      9  O   UNL     1      -0.891  -2.293   1.543  0.00  0.00    -0.425 OA
ATOM     10  C   UNL     1       0.413  -1.978   1.409  0.00  0.00    +0.316 C 
ATOM     11  O   UNL     1       1.274  -2.826   1.424  0.00  0.00    -0.250 OA
ATOM     12  C   UNL     1       0.747  -0.510   1.241  0.00  0.00    +0.114 C 
ATOM     13  O   UNL     1      -5.314  -1.901  -0.067  0.00  0.00    -0.486 OA
ATOM     14  C   UNL     1      -6.347  -1.038  -0.546  0.00  0.00    +0.105 C 
ATOM     15  C   UNL     1      -5.898  -0.445  -1.888  0.00  0.00    +0.052 C 
ATOM     16  C   UNL     1      -4.672   0.436  -1.638  0.00  0.00    +0.042 C 
ATOM     17  C   UNL     1      -6.585   0.089   0.461  0.00  0.00    +0.055 C 
ATOM     18  C   UNL     1      -7.637  -1.837  -0.741  0.00  0.00    +0.055 C 
ENDROOT
BRANCH  12  19
ATOM     19  C   UNL     1       0.291   0.272   2.475  0.00  0.00    +0.111 C 
BRANCH  19  20
ATOM     20  C   UNL     1       1.114  -0.146   3.667  0.00  0.00    +0.214 C 
ATOM     21  O   UNL     1       1.980  -0.986   3.541  0.00  0.00    -0.276 OA
ATOM     22  N   UNL     1       0.888   0.414   4.872  0.00  0.00    -0.315 N 
ATOM     23  H   UNL     1       0.196   1.086   4.972  0.00  0.00    +0.149 HD
BRANCH  22  24
ATOM     24  C   UNL     1       1.689   0.008   6.029  0.00  0.00    +0.109 C 
BRANCH  24  25
ATOM     25  C   UNL     1       1.233   0.789   7.263  0.00  0.00    +0.056 C 
BRANCH  25  26
ATOM     26  C   UNL     1       2.057   0.372   8.455  0.00  0.00    -0.021 A 
ATOM     27  C   UNL     1       3.365   0.906   8.840  0.00  0.00    +0.004 A 
ATOM     28  C   UNL     1       4.213   1.877   8.303  0.00  0.00    +0.030 A 
ATOM     29  C   UNL     1       5.411   2.154   8.923  0.00  0.00    +0.042 A 
ATOM     30  C   UNL     1       5.778   1.472  10.076  0.00  0.00    +0.022 A 
ATOM     31  C   UNL     1       4.952   0.512  10.618  0.00  0.00    +0.027 A 
ATOM     32  C   UNL     1       3.738   0.217  10.008  0.00  0.00    +0.047 A 
ATOM     33  N   UNL     1       2.722  -0.667  10.300  0.00  0.00    -0.360 N 
ATOM     34  C   UNL     1       1.727  -0.556   9.367  0.00  0.00    +0.087 A 
ATOM     35 CL   UNL     1       6.468   3.360   8.259  0.00  0.00    -0.084 Cl
ATOM     36  H   UNL     1       2.712  -1.274  11.056  0.00  0.00    +0.165 HD
ENDBRANCH  25  26
ENDBRANCH  24  25
ENDBRANCH  22  24
ENDBRANCH  19  20
ENDBRANCH  12  19
TORSDOF 5
