REMARK  Name = ZINC50031883
REMARK  6 active torsions:
REMARK  status: ('A' for Active; 'I' for Inactive)
REMARK    1  A    between atoms: C_1  and  C_2
REMARK    2  A    between atoms: C_2  and  C_3
REMARK    3  A    between atoms: C_2  and  C_4
REMARK    4  A    between atoms: N_9  and  C_10
REMARK    5  A    between atoms: C_12  and  C_18
REMARK    6  A    between atoms: C_13  and  N_17
REMARK                            x       y       z     vdW  Elec       q    Type
REMARK                         _______ _______ _______ _____ _____    ______ ____
ROOT
ATOM      1  C   UNL     1      -5.395  -2.219  -2.127  0.00  0.00    +0.069 A 
ATOM      2  C   UNL     1      -5.467  -2.781  -0.866  0.00  0.00    +0.041 A 
ATOM      3  C   UNL     1      -6.657  -3.375  -0.435  0.00  0.00    +0.059 A 
ATOM      4  C   UNL     1      -7.772  -3.395  -1.288  0.00  0.00    +0.040 A 
ATOM      5  C   UNL     1      -7.686  -2.827  -2.551  0.00  0.00    +0.063 A 
ATOM      6  C   UNL     1      -6.507  -2.238  -2.967  0.00  0.00    +0.146 A 
ATOM      7  F   UNL     1      -6.430  -1.682  -4.196  0.00  0.00    -0.203 F 
ENDROOT
BRANCH   1  13
ATOM      8  C   UNL     1      -1.364  -0.180  -0.840  0.00  0.00    +0.053 A 
ATOM      9  C   UNL     1      -1.916  -0.218   0.397  0.00  0.00    +0.072 A 
ATOM     10  S   UNL     1      -3.508  -0.936   0.029  0.00  0.00    -0.060 S 
ATOM     11  C   UNL     1      -3.308  -1.110  -1.633  0.00  0.00    +0.163 A 
ATOM     12  N   UNL     1      -2.098  -0.634  -1.840  0.00  0.00    -0.229 NA
ATOM     13  N   UNL     1      -4.202  -1.624  -2.559  0.00  0.00    -0.291 N 
ATOM     14  H   UNL     1      -4.001  -1.572  -3.507  0.00  0.00    +0.154 HD
BRANCH   8  16
ATOM     15  C   UNL     1      -0.041   1.883  -1.216  0.00  0.00    +0.014 C 
ATOM     16  C   UNL     1       0.024   0.362  -1.066  0.00  0.00    +0.032 C 
ATOM     17  C   UNL     1       0.912   0.005   0.128  0.00  0.00    +0.014 C 
ENDBRANCH   8  16
ENDBRANCH   1  13
BRANCH   3  18
ATOM     18  C   UNL     1      -6.741  -3.976   0.907  0.00  0.00    +0.243 C 
ATOM     19  O   UNL     1      -7.739  -4.587   1.239  0.00  0.00    -0.270 OA
ATOM     20  N   UNL     1      -5.712  -3.849   1.768  0.00  0.00    -0.325 N 
ATOM     21  H   UNL     1      -4.916  -3.361   1.504  0.00  0.00    +0.145 HD
ATOM     22  H   UNL     1      -5.767  -4.245   2.652  0.00  0.00    +0.145 HD
ENDBRANCH   3  18
BRANCH   4  23
ATOM     23  N   UNL     1      -8.961  -3.983  -0.868  0.00  0.00    -0.357 N 
ATOM     24  H   UNL     1      -8.996  -4.454  -0.020  0.00  0.00    +0.142 HD
ATOM     25  H   UNL     1      -9.755  -3.923  -1.422  0.00  0.00    +0.142 HD
ENDBRANCH   4  23
TORSDOF 4
