REMARK  Name = ZINC22737452
REMARK  4 active torsions:
REMARK  status: ('A' for Active; 'I' for Inactive)
REMARK    1  A    between atoms: C_1  and  C_2
REMARK    2  A    between atoms: C_2  and  C_4
REMARK    3  A    between atoms: C_2  and  S_15
REMARK    4  A    between atoms: S_15  and  C_16
REMARK                            x       y       z     vdW  Elec       q    Type
REMARK                         _______ _______ _______ _____ _____    ______ ____
ROOT
ATOM      1  C   UNL     1      -0.013   1.086   0.008  0.00  0.00    +0.029 C 
ATOM      2  C   UNL     1      -0.729   1.579   1.267  0.00  0.00    +0.136 C 
ENDROOT
BRANCH   2   3
ATOM      3  C   UNL     1      -2.143   1.058   1.278  0.00  0.00    +0.229 C 
ATOM      4  O   UNL     1      -3.045   1.743   0.846  0.00  0.00    -0.274 OA
ATOM      5  N   UNL     1      -2.404  -0.171   1.767  0.00  0.00    -0.296 N 
ATOM      6  C   UNL     1      -3.781  -0.688   1.788  0.00  0.00    +0.113 C 
ATOM      7  C   UNL     1      -3.848  -1.905   0.844  0.00  0.00    +0.061 C 
ATOM      8  C   UNL     1      -2.638  -2.752   1.070  0.00  0.00    -0.004 A 
ATOM      9  C   UNL     1      -1.483  -2.409   1.702  0.00  0.00    -0.020 A 
ATOM     10  C   UNL     1      -0.495  -3.390   1.774  0.00  0.00    +0.013 A 
ATOM     11  C   UNL     1      -0.711  -4.610   1.233  0.00  0.00    +0.046 A 
ATOM     12  S   UNL     1      -2.363  -4.433   0.576  0.00  0.00    -0.101 S 
ATOM     13  C   UNL     1      -1.319  -1.010   2.292  0.00  0.00    +0.143 C 
ENDBRANCH   2   3
BRANCH   2  14
ATOM     14  S   UNL     1      -0.753   3.393   1.277  0.00  0.00    -0.084 S 
BRANCH  14  15
ATOM     15  C   UNL     1       0.945   3.842   1.412  0.00  0.00    +0.161 A 
ATOM     16  N   UNL     1       2.010   3.068   1.496  0.00  0.00    -0.133 NA
ATOM     17  N   UNL     1       3.261   3.633   1.591  0.00  0.00    -0.125 NA
ATOM     18  C   UNL     1       3.389   4.945   1.609  0.00  0.00    +0.180 A 
ATOM     19  S   UNL     1       1.685   5.466   1.480  0.00  0.00    -0.025 S 
ATOM     20  N   UNL     1       4.541   5.716   1.705  0.00  0.00    -0.336 N 
ATOM     21  H   UNL     1       4.469   6.814   1.706  0.00  0.00    +0.144 HD
ATOM     22  H   UNL     1       5.524   5.229   1.778  0.00  0.00    +0.144 HD
ENDBRANCH  14  15
ENDBRANCH   2  14
TORSDOF 3
