REMARK  Name = ZINC38736716
REMARK  8 active torsions:
REMARK  status: ('A' for Active; 'I' for Inactive)
REMARK    1  A    between atoms: C_1  and  C_2
REMARK    2  A    between atoms: C_2  and  C_3
REMARK    3  A    between atoms: C_3  and  C_4
REMARK    4  A    between atoms: N_6  and  C_7
REMARK    5  A    between atoms: C_10  and  S_13
REMARK    6  A    between atoms: S_13  and  N_16
REMARK    7  A    between atoms: N_16  and  C_17
REMARK    8  A    between atoms: C_20  and  C_23
REMARK                            x       y       z     vdW  Elec       q    Type
REMARK                         _______ _______ _______ _____ _____    ______ ____
ROOT
ATOM      1  N   UNL     1      -0.123  -9.303  -3.427  0.00  0.00    -0.216 N 
ATOM      2  H   UNL     1      -0.775  -9.767  -2.879  0.00  0.00    +0.174 HD
ENDROOT
BRANCH   1   3
ATOM      3  C   UNL     1      -0.358  -9.125  -4.791  0.00  0.00    +0.048 A 
ATOM      4  C   UNL     1      -0.126  -7.888  -5.380  0.00  0.00    +0.025 A 
ATOM      5  C   UNL     1      -0.358  -7.710  -6.727  0.00  0.00    +0.012 A 
ATOM      6  C   UNL     1      -0.826  -8.773  -7.499  0.00  0.00    +0.002 A 
ATOM      7  C   UNL     1      -1.058 -10.013  -6.906  0.00  0.00    +0.012 A 
ATOM      8  C   UNL     1      -0.819 -10.188  -5.560  0.00  0.00    +0.025 A 
BRANCH   6   9
ATOM      9  C   UNL     1      -1.076  -8.584  -8.948  0.00  0.00    +0.093 A 
ATOM     10  C   UNL     1      -1.552  -9.648  -9.723  0.00  0.00    +0.033 A 
ATOM     11  C   UNL     1      -1.770  -9.423 -11.070  0.00  0.00    +0.047 A 
ATOM     12  C   UNL     1      -1.504  -8.148 -11.573  0.00  0.00    +0.144 A 
ATOM     13  N   UNL     1      -1.055  -7.199 -10.764  0.00  0.00    -0.134 NA
ATOM     14  N   UNL     1      -0.857  -7.404  -9.513  0.00  0.00    -0.147 NA
ATOM     15  N   UNL     1      -1.708  -7.875 -12.921  0.00  0.00    -0.314 N 
ATOM     16  C   UNL     1      -1.223  -6.620 -13.512  0.00  0.00    +0.106 C 
ATOM     17  C   UNL     1      -0.360  -6.952 -14.734  0.00  0.00    +0.019 C 
ATOM     18  C   UNL     1      -1.161  -7.832 -15.696  0.00  0.00    +0.003 C 
ATOM     19  C   UNL     1      -1.536  -9.142 -14.999  0.00  0.00    +0.019 C 
ATOM     20  C   UNL     1      -2.407  -8.838 -13.782  0.00  0.00    +0.106 C 
ENDBRANCH   6   9
ENDBRANCH   1   3
BRANCH   1  21
ATOM     21  S   UNL     1       1.269  -8.721  -2.745  0.00  0.00    +0.072 S 
ATOM     22  O   UNL     1       1.246  -9.111  -1.379  0.00  0.00    -0.150 OA
ATOM     23  O   UNL     1       1.382  -7.363  -3.147  0.00  0.00    -0.150 OA
BRANCH  21  27
ATOM     24  C   UNL     1       4.726 -10.931  -4.662  0.00  0.00    +0.033 A 
ATOM     25  C   UNL     1       4.330  -9.695  -5.157  0.00  0.00    +0.025 A 
ATOM     26  C   UNL     1       3.276  -9.024  -4.570  0.00  0.00    +0.030 A 
ATOM     27  C   UNL     1       2.614  -9.581  -3.491  0.00  0.00    +0.109 A 
ATOM     28  C   UNL     1       3.006 -10.811  -2.996  0.00  0.00    +0.030 A 
ATOM     29  C   UNL     1       4.056 -11.490  -3.582  0.00  0.00    +0.025 A 
BRANCH  24  32
ATOM     30  C   UNL     1       5.769 -12.958  -5.341  0.00  0.00    +0.217 C 
ATOM     31  O   UNL     1       4.867 -13.583  -4.825  0.00  0.00    -0.275 OA
ATOM     32  N   UNL     1       5.794 -11.614  -5.255  0.00  0.00    -0.285 N 
ATOM     33  H   UNL     1       6.553 -11.119  -5.603  0.00  0.00    +0.155 HD
BRANCH  30  34
ATOM     34  C   UNL     1       6.863 -13.686  -6.080  0.00  0.00    +0.096 C 
BRANCH  34  36
ATOM     35  C   UNL     1       7.708 -15.931  -6.779  0.00  0.00    +0.004 C 
ATOM     36  C   UNL     1       6.598 -15.192  -6.029  0.00  0.00    +0.006 C 
ENDBRANCH  34  36
ENDBRANCH  30  34
ENDBRANCH  24  32
ENDBRANCH  21  27
ENDBRANCH   1  21
TORSDOF 7
