REMARK  Name = ZINC08436512
REMARK  2 active torsions:
REMARK  status: ('A' for Active; 'I' for Inactive)
REMARK    1  A    between atoms: C_14  and  C_16
REMARK    2  A    between atoms: C_19  and  C_21
REMARK                            x       y       z     vdW  Elec       q    Type
REMARK                         _______ _______ _______ _____ _____    ______ ____
ROOT
ATOM      1  C   UNL     1      -2.087  -3.103  -5.452  0.00  0.00    +0.001 A 
ATOM      2  C   UNL     1      -0.840  -3.703  -5.540  0.00  0.00    +0.002 A 
ATOM      3  C   UNL     1       0.075  -3.578  -4.514  0.00  0.00    +0.026 A 
ATOM      4  C   UNL     1      -0.254  -2.846  -3.383  0.00  0.00    +0.054 A 
ATOM      5  C   UNL     1      -1.518  -2.237  -3.293  0.00  0.00    +0.063 A 
ATOM      6  C   UNL     1      -2.432  -2.371  -4.335  0.00  0.00    +0.015 A 
ATOM      7  C   UNL     1      -1.835  -1.466  -2.078  0.00  0.00    +0.269 A 
ATOM      8  O   UNL     1      -2.914  -0.920  -1.950  0.00  0.00    -0.266 OA
ATOM      9  N   UNL     1      -0.896  -1.381  -1.111  0.00  0.00    -0.219 N 
ATOM     10  C   UNL     1       0.297  -1.980  -1.244  0.00  0.00    +0.168 A 
ATOM     11  S   UNL     1       1.439  -1.821   0.022  0.00  0.00    -0.012 S 
ATOM     12  N   UNL     1       0.636  -2.695  -2.331  0.00  0.00    -0.334 N 
ATOM     13  H   UNL     1       1.512  -3.108  -2.379  0.00  0.00    +0.168 HD
ATOM     14  C   UNL     1      -1.163  -0.681   0.010  0.00  0.00    +0.302 C 
ATOM     15  O   UNL     1      -0.352  -0.651   0.916  0.00  0.00    -0.263 OA
ENDROOT
BRANCH  14  16
ATOM     16  C   UNL     1      -2.428   0.042   0.136  0.00  0.00    +0.193 A 
ATOM     17  C   UNL     1      -3.679  -0.527   0.255  0.00  0.00    +0.055 A 
ATOM     18  C   UNL     1      -4.594   0.525   0.349  0.00  0.00    +0.050 A 
ATOM     19  C   UNL     1      -3.878   1.687   0.285  0.00  0.00    +0.136 A 
ATOM     20  O   UNL     1      -2.575   1.384   0.163  0.00  0.00    -0.450 OA
BRANCH  19  21
ATOM     21  C   UNL     1      -4.443   3.050   0.346  0.00  0.00    +0.017 A 
ATOM     22  C   UNL     1      -5.822   3.233   0.474  0.00  0.00    +0.013 A 
ATOM     23  C   UNL     1      -6.343   4.508   0.535  0.00  0.00    +0.021 A 
ATOM     24  C   UNL     1      -5.503   5.607   0.459  0.00  0.00    +0.041 A 
ATOM     25  C   UNL     1      -4.135   5.432   0.327  0.00  0.00    +0.021 A 
ATOM     26  C   UNL     1      -3.601   4.162   0.270  0.00  0.00    +0.013 A 
ATOM     27 CL   UNL     1      -6.167   7.209   0.528  0.00  0.00    -0.084 Cl
ENDBRANCH  19  21
ENDBRANCH  14  16
TORSDOF 2
