REMARK  Name = ZINC19802148
REMARK  9 active torsions:
REMARK  status: ('A' for Active; 'I' for Inactive)
REMARK    1  A    between atoms: C_1  and  N_2
REMARK    2  A    between atoms: N_2  and  C_3
REMARK    3  A    between atoms: N_2  and  C_4
REMARK    4  A    between atoms: C_4  and  C_5
REMARK    5  A    between atoms: C_5  and  O_6
REMARK    6  A    between atoms: O_6  and  C_7
REMARK    7  A    between atoms: C_11  and  C_13
REMARK    8  A    between atoms: N_14  and  N_15
REMARK    9  A    between atoms: N_18  and  C_21
REMARK                            x       y       z     vdW  Elec       q    Type
REMARK                         _______ _______ _______ _____ _____    ______ ____
ROOT
ATOM      1  N   UNL     1      -2.469   5.335   0.010  0.00  0.00    -0.253 N 
ATOM      2  C   UNL     1      -2.451   3.883   0.246  0.00  0.00    +0.141 C 
ATOM      3  C   UNL     1      -3.453   3.565   1.367  0.00  0.00    +0.105 C 
ATOM      4  N   UNL     1      -4.766   4.120   1.015  0.00  0.00    -0.292 NA
ATOM      5  C   UNL     1      -4.717   5.585   0.919  0.00  0.00    +0.105 C 
ATOM      6  C   UNL     1      -3.767   5.987  -0.215  0.00  0.00    +0.141 C 
ENDROOT
BRANCH   4   7
ATOM      7  C   UNL     1      -5.794   3.690   1.973  0.00  0.00    +0.092 C 
ATOM      8  C   UNL     1      -5.389   4.165   3.331  0.00  0.00    +0.060 C 
ATOM      9  C   UNL     1      -6.499   4.092   4.327  0.00  0.00    -0.032 A 
ATOM     10  C   UNL     1      -7.206   5.246   4.645  0.00  0.00    +0.005 A 
ATOM     11  C   UNL     1      -8.282   5.173   5.509  0.00  0.00    +0.000 A 
ATOM     12  C   UNL     1      -8.659   3.962   6.061  0.00  0.00    +0.001 A 
ATOM     13  C   UNL     1      -7.946   2.816   5.758  0.00  0.00    +0.015 A 
ATOM     14  C   UNL     1      -6.861   2.904   4.893  0.00  0.00    +0.016 A 
ATOM     15  S   UNL     1      -5.911   1.476   4.505  0.00  0.00    -0.089 S 
ATOM     16  C   UNL     1      -6.077   1.232   2.774  0.00  0.00    +0.018 A 
ATOM     17  C   UNL     1      -5.989   2.208   1.812  0.00  0.00    -0.015 A 
ATOM     18  C   UNL     1      -6.093   1.826   0.466  0.00  0.00    +0.026 A 
ATOM     19  C   UNL     1      -6.295   0.521   0.088  0.00  0.00    +0.041 A 
ATOM     20  C   UNL     1      -6.407  -0.459   1.061  0.00  0.00    +0.021 A 
ATOM     21  C   UNL     1      -6.299  -0.100   2.381  0.00  0.00    +0.017 A 
ATOM     22 CL   UNL     1      -6.411   0.103  -1.593  0.00  0.00    -0.084 Cl
ENDBRANCH   4   7
BRANCH   1  24
ATOM     23  C   UNL     1      -0.367   5.819  -0.892  0.00  0.00    +0.138 C 
ATOM     24  N   UNL     1      -1.280   6.075  -0.006  0.00  0.00    -0.192 NA
BRANCH  23  29
ATOM     25  C   UNL     1       0.034   3.722  -3.983  0.00  0.00    +0.121 A 
ATOM     26  C   UNL     1      -1.278   3.326  -4.208  0.00  0.00    +0.045 A 
ATOM     27  C   UNL     1      -2.288   3.744  -3.362  0.00  0.00    +0.004 A 
ATOM     28  C   UNL     1      -1.997   4.549  -2.280  0.00  0.00    +0.010 A 
ATOM     29  C   UNL     1      -0.681   4.953  -2.044  0.00  0.00    -0.002 A 
ATOM     30  C   UNL     1       0.336   4.535  -2.904  0.00  0.00    +0.055 A 
BRANCH  25  31
ATOM     31  O   UNL     1       1.021   3.312  -4.822  0.00  0.00    -0.494 OA
BRANCH  31  32
ATOM     32  C   UNL     1       0.637   2.474  -5.915  0.00  0.00    +0.210 C 
BRANCH  32  33
ATOM     33  C   UNL     1       1.874   2.118  -6.742  0.00  0.00    -0.038 C 
BRANCH  33  35
ATOM     34  C   UNL     1       2.190  -0.002  -5.614  0.00  0.00    -0.096 C 
ATOM     35  N   UNL     1       2.788   1.303  -5.930  0.00  0.00    +0.378 N 
ATOM     36  C   UNL     1       4.084   1.139  -6.601  0.00  0.00    -0.096 C 
ATOM     37  H   UNL     1       2.962   1.833  -4.983  0.00  0.00    -0.082 HD
ENDBRANCH  33  35
ENDBRANCH  32  33
ENDBRANCH  31  32
ENDBRANCH  25  31
ENDBRANCH  23  29
ENDBRANCH   1  24
TORSDOF 7
