REMARK  Name = ZINC33610816
REMARK  7 active torsions:
REMARK  status: ('A' for Active; 'I' for Inactive)
REMARK    1  A    between atoms: C_1  and  N_2
REMARK    2  A    between atoms: N_2  and  C_3
REMARK    3  A    between atoms: C_6  and  O_23
REMARK    4  A    between atoms: C_9  and  O_22
REMARK    5  A    between atoms: C_12  and  O_21
REMARK    6  A    between atoms: C_15  and  N_20
REMARK    7  A    between atoms: C_17  and  O_19
REMARK                            x       y       z     vdW  Elec       q    Type
REMARK                         _______ _______ _______ _____ _____    ______ ____
ROOT
ATOM      1  C   UNL     1       1.214  -0.677  -0.013  0.00  0.00    +0.033 A 
ATOM      2  C   UNL     1       0.002  -0.004   0.002  0.00  0.00    +0.027 A 
ATOM      3  C   UNL     1      -0.017   1.377   0.010  0.00  0.00    +0.047 A 
ATOM      4  C   UNL     1       1.175   2.083   0.002  0.00  0.00    +0.123 A 
ATOM      5  C   UNL     1       2.393   1.409  -0.013  0.00  0.00    +0.034 A 
ATOM      6  C   UNL     1       2.414   0.033  -0.021  0.00  0.00    +0.016 A 
ATOM      7  C   UNL     1       3.703  -0.737  -0.038  0.00  0.00    +0.181 C 
ATOM      8  C   UNL     1       4.842   0.066   0.520  0.00  0.00    +0.034 A 
ATOM      9  C   UNL     1       5.941  -0.613   1.041  0.00  0.00    +0.123 A 
ATOM     10  C   UNL     1       7.014   0.088   1.565  0.00  0.00    +0.047 A 
ATOM     11  C   UNL     1       6.996   1.469   1.572  0.00  0.00    +0.026 A 
ATOM     12  C   UNL     1       5.903   2.147   1.054  0.00  0.00    +0.031 A 
ATOM     13  C   UNL     1       4.822   1.442   0.527  0.00  0.00    +0.015 A 
ATOM     14  C   UNL     1       3.659   2.217  -0.022  0.00  0.00    +0.181 C 
ENDROOT
BRANCH   1  16
ATOM     15  C   UNL     1      -0.025  -2.826  -0.013  0.00  0.00    +0.125 C 
ATOM     16  N   UNL     1       1.234  -2.076  -0.021  0.00  0.00    -0.347 N 
ATOM     17  H   UNL     1       2.194  -2.613  -0.033  0.00  0.00    +0.146 HD
ENDBRANCH   1  16
BRANCH  12  18
ATOM     18  N   UNL     1       5.885   3.546   1.060  0.00  0.00    -0.358 N 
ATOM     19  H   UNL     1       5.019   4.087   0.650  0.00  0.00    +0.142 HD
ATOM     20  H   UNL     1       6.737   4.105   1.475  0.00  0.00    +0.142 HD
ENDBRANCH  12  18
BRANCH  14  21
ATOM     21  O   UNL     1       3.953   2.607  -1.365  0.00  0.00    -0.382 OA
ATOM     22  H   UNL     1       4.848   3.209  -1.580  0.00  0.00    +0.211 HD
ENDBRANCH  14  21
BRANCH   9  23
ATOM     23  O   UNL     1       5.960  -1.972   1.035  0.00  0.00    -0.506 OA
ATOM     24  H   UNL     1       6.826  -2.512   1.446  0.00  0.00    +0.292 HD
ENDBRANCH   9  23
BRANCH   7  25
ATOM     25  O   UNL     1       4.008  -1.103  -1.385  0.00  0.00    -0.382 OA
ATOM     26  H   UNL     1       4.921  -1.676  -1.606  0.00  0.00    +0.211 HD
ENDBRANCH   7  25
BRANCH   4  27
ATOM     27  O   UNL     1       1.155   3.442   0.009  0.00  0.00    -0.506 OA
ATOM     28  H   UNL     1       2.099   4.006   0.003  0.00  0.00    +0.292 HD
ENDBRANCH   4  27
TORSDOF 6
