REMARK  Name = ZINC39654419
REMARK  9 active torsions:
REMARK  status: ('A' for Active; 'I' for Inactive)
REMARK    1  A    between atoms: C_1  and  C_2
REMARK    2  A    between atoms: C_2  and  C_3
REMARK    3  A    between atoms: C_6  and  C_9
REMARK    4  A    between atoms: C_9  and  C_10
REMARK    5  A    between atoms: C_10  and  N_11
REMARK    6  A    between atoms: C_12  and  C_14
REMARK    7  A    between atoms: C_25  and  C_27
REMARK    8  A    between atoms: C_27  and  O_28
REMARK    9  A    between atoms: O_28  and  C_29
REMARK                            x       y       z     vdW  Elec       q    Type
REMARK                         _______ _______ _______ _____ _____    ______ ____
ROOT
ATOM      1  C   UNL     1       5.056  -0.741  -8.911  0.00  0.00    +0.100 C 
ATOM      2  C   UNL     1       4.120  -1.649  -9.741  0.00  0.00    +0.121 C 
ATOM      3  N   UNL     1       3.513  -0.743 -10.744  0.00  0.00    -0.297 N 
ATOM      4  C   UNL     1       4.621   0.156 -11.147  0.00  0.00    +0.115 C 
ATOM      5  C   UNL     1       5.385   0.440  -9.839  0.00  0.00    -0.004 C 
ATOM      6  C   UNL     1       4.901   1.748  -9.220  0.00  0.00    -0.010 C 
ATOM      7  C   UNL     1       5.290   2.914 -10.134  0.00  0.00    -0.082 C 
ATOM      8  N   UNL     1       6.748   2.939 -10.304  0.00  0.00    +0.379 N 
ATOM      9  C   UNL     1       7.194   1.717 -10.984  0.00  0.00    -0.082 C 
ATOM     10  C   UNL     1       6.886   0.501 -10.106  0.00  0.00    -0.010 C 
ATOM     11  C   UNL     1       2.241  -0.738 -11.190  0.00  0.00    +0.253 C 
ATOM     12  O   UNL     1       1.893   0.074 -12.021  0.00  0.00    -0.272 OA
ATOM     13  H   UNL     1       7.007   3.743 -10.857  0.00  0.00    -0.086 HD
ATOM     14  H   UNL     1       7.190   3.000  -9.399  0.00  0.00    -0.086 HD
ENDROOT
BRANCH   1  16
ATOM     15  N   UNL     1       5.061   0.044  -6.565  0.00  0.00    -0.315 N 
ATOM     16  C   UNL     1       4.351  -0.254  -7.671  0.00  0.00    +0.218 C 
ATOM     17  O   UNL     1       3.144  -0.131  -7.669  0.00  0.00    -0.275 OA
ATOM     18  H   UNL     1       6.026  -0.055  -6.567  0.00  0.00    +0.149 HD
BRANCH  15  19
ATOM     19  C   UNL     1       4.375   0.517  -5.360  0.00  0.00    +0.109 C 
BRANCH  19  20
ATOM     20  C   UNL     1       5.404   0.781  -4.259  0.00  0.00    +0.054 C 
BRANCH  20  24
ATOM     21  C   UNL     1       3.407   2.161  -0.744  0.00  0.00    -0.048 A 
ATOM     22  C   UNL     1       3.614   0.808  -0.935  0.00  0.00    +0.004 A 
ATOM     23  C   UNL     1       4.260   0.361  -2.072  0.00  0.00    +0.004 A 
ATOM     24  C   UNL     1       4.698   1.268  -3.019  0.00  0.00    -0.046 A 
ATOM     25  C   UNL     1       4.490   2.621  -2.829  0.00  0.00    +0.004 A 
ATOM     26  C   UNL     1       3.841   3.068  -1.693  0.00  0.00    +0.004 A 
BRANCH  21  28
ATOM     27  C   UNL     1       1.196   2.709   0.237  0.00  0.00    +0.009 C 
ATOM     28  C   UNL     1       2.702   2.648   0.496  0.00  0.00    +0.032 C 
ENDBRANCH  21  28
ENDBRANCH  20  24
ENDBRANCH  19  20
ENDBRANCH  15  19
ENDBRANCH   1  16
BRANCH  11  29
ATOM     29  C   UNL     1       1.251  -1.740 -10.655  0.00  0.00    +0.324 C 
BRANCH  29  30
ATOM     30  O   UNL     1      -0.019  -1.533 -11.276  0.00  0.00    -0.483 OA
BRANCH  30  31
ATOM     31  C   UNL     1      -1.031  -2.360 -10.902  0.00  0.00    +0.123 A 
ATOM     32  C   UNL     1      -0.807  -3.346  -9.952  0.00  0.00    +0.046 A 
ATOM     33  C   UNL     1      -1.836  -4.185  -9.573  0.00  0.00    +0.005 A 
ATOM     34  C   UNL     1      -3.090  -4.044 -10.139  0.00  0.00    +0.020 A 
ATOM     35  C   UNL     1      -3.316  -3.061 -11.087  0.00  0.00    +0.044 A 
ATOM     36  C   UNL     1      -2.290  -2.215 -11.465  0.00  0.00    +0.065 A 
ATOM     37 CL   UNL     1      -4.891  -2.886 -11.796  0.00  0.00    -0.083 Cl
ENDBRANCH  30  31
ENDBRANCH  29  30
ENDBRANCH  11  29
TORSDOF 8
