REMARK  Name = ZINC36038424
REMARK  11 active torsions:
REMARK  status: ('A' for Active; 'I' for Inactive)
REMARK    1  A    between atoms: C_1  and  C_2
REMARK    2  A    between atoms: C_2  and  C_3
REMARK    3  A    between atoms: C_2  and  C_4
REMARK    4  A    between atoms: C_4  and  C_5
REMARK    5  A    between atoms: N_9  and  C_28
REMARK    6  A    between atoms: N_14  and  S_17
REMARK    7  A    between atoms: S_17  and  C_20
REMARK    8  A    between atoms: C_28  and  C_29
REMARK    9  A    between atoms: C_29  and  C_30
REMARK   10  A    between atoms: C_30  and  O_31
REMARK   11  A    between atoms: O_31  and  C_32
REMARK                            x       y       z     vdW  Elec       q    Type
REMARK                         _______ _______ _______ _____ _____    ______ ____
ROOT
ATOM      1  C   UNL     1      -1.080  -2.303  -0.616  0.00  0.00    +0.019 C 
ATOM      2  C   UNL     1      -2.517  -2.698  -0.350  0.00  0.00    +0.200 C 
ATOM      3  O   UNL     1      -3.231  -2.234   0.513  0.00  0.00    -0.277 OA
ATOM      4  N   UNL     1      -2.869  -3.653  -1.236  0.00  0.00    -0.314 N 
ATOM      5  C   UNL     1      -1.733  -3.950  -2.112  0.00  0.00    +0.006 C 
ATOM      6  N   UNL     1      -0.789  -2.818  -1.976  0.00  0.00    +0.401 N 
ATOM      7  C   UNL     1      -1.050  -5.244  -1.672  0.00  0.00    +0.023 C 
ATOM      8  C   UNL     1      -2.046  -6.404  -1.778  0.00  0.00    +0.109 C 
ATOM      9  N   UNL     1      -2.593  -6.434  -3.141  0.00  0.00    -0.177 NA
ATOM     10  C   UNL     1      -3.204  -5.213  -3.685  0.00  0.00    +0.109 C 
ATOM     11  C   UNL     1      -2.199  -4.063  -3.562  0.00  0.00    +0.023 C 
ATOM     12  H   UNL     1      -0.976  -2.113  -2.672  0.00  0.00    -0.082 HD
ATOM     13  H   UNL     1       0.166  -3.139  -2.038  0.00  0.00    -0.082 HD
ENDROOT
BRANCH   9  14
ATOM     14  S   UNL     1      -2.522  -7.818  -4.048  0.00  0.00    +0.061 S 
ATOM     15  O   UNL     1      -2.586  -7.415  -5.409  0.00  0.00    -0.153 OA
ATOM     16  O   UNL     1      -1.445  -8.587  -3.531  0.00  0.00    -0.153 OA
BRANCH  14  17
ATOM     17  C   UNL     1      -3.994  -8.729  -3.723  0.00  0.00    +0.107 A 
ATOM     18  C   UNL     1      -4.025  -9.647  -2.689  0.00  0.00    +0.030 A 
ATOM     19  C   UNL     1      -5.179 -10.363  -2.434  0.00  0.00    +0.023 A 
ATOM     20  C   UNL     1      -6.305 -10.162  -3.212  0.00  0.00    +0.059 A 
ATOM     21  C   UNL     1      -6.274  -9.243  -4.247  0.00  0.00    +0.061 A 
ATOM     22  C   UNL     1      -5.120  -8.523  -4.498  0.00  0.00    +0.050 A 
ATOM     23 CL   UNL     1      -7.686  -8.990  -5.226  0.00  0.00    -0.082 Cl
ATOM     24 CL   UNL     1      -7.754 -11.062  -2.892  0.00  0.00    -0.082 Cl
ENDBRANCH  14  17
ENDBRANCH   9  14
BRANCH   1  25
ATOM     25  C   UNL     1      -0.931  -0.781  -0.580  0.00  0.00    -0.004 C 
BRANCH  25  27
ATOM     26  C   UNL     1       0.666   1.115  -0.889  0.00  0.00    +0.007 C 
ATOM     27  C   UNL     1       0.536  -0.407  -0.800  0.00  0.00    -0.018 C 
ATOM     28  C   UNL     1       1.375  -0.923   0.370  0.00  0.00    +0.007 C 
ENDBRANCH  25  27
ENDBRANCH   1  25
BRANCH   4  29
ATOM     29  C   UNL     1      -4.184  -4.294  -1.310  0.00  0.00    +0.108 C 
BRANCH  29  30
ATOM     30  C   UNL     1      -5.099  -3.476  -2.224  0.00  0.00    +0.047 C 
BRANCH  30  31
ATOM     31  C   UNL     1      -6.426  -4.215  -2.411  0.00  0.00    +0.161 C 
BRANCH  31  32
ATOM     32  O   UNL     1      -7.281  -3.451  -3.264  0.00  0.00    -0.383 OA
ATOM     33  C   UNL     1      -8.553  -4.056  -3.505  0.00  0.00    +0.193 C 
ENDBRANCH  31  32
ENDBRANCH  30  31
ENDBRANCH  29  30
ENDBRANCH   4  29
TORSDOF 8
