REMARK  Name = ZINC17368855
REMARK  8 active torsions:
REMARK  status: ('A' for Active; 'I' for Inactive)
REMARK    1  A    between atoms: C_5  and  C_7
REMARK    2  A    between atoms: C_7  and  N_8
REMARK    3  A    between atoms: N_13  and  C_14
REMARK    4  A    between atoms: C_14  and  C_16
REMARK    5  A    between atoms: C_16  and  S_17
REMARK    6  A    between atoms: S_17  and  C_18
REMARK    7  A    between atoms: C_21  and  C_27
REMARK    8  A    between atoms: C_23  and  N_24
REMARK                            x       y       z     vdW  Elec       q    Type
REMARK                         _______ _______ _______ _____ _____    ______ ____
ROOT
ATOM      1  C   UNL     1      -1.716  -3.080   2.934  0.00  0.00    +0.249 C 
ATOM      2  O   UNL     1      -1.317  -3.482   4.010  0.00  0.00    -0.273 OA
ENDROOT
BRANCH   1   8
ATOM      3  N   UNL     1       1.488  -2.679   1.333  0.00  0.00    -0.324 N 
ATOM      4  C   UNL     1       2.761  -2.890   1.760  0.00  0.00    +0.095 A 
ATOM      5  C   UNL     1       2.923  -3.341   3.009  0.00  0.00    +0.066 A 
ATOM      6  S   UNL     1       1.238  -3.464   3.578  0.00  0.00    -0.061 S 
ATOM      7  C   UNL     1       0.459  -2.928   2.187  0.00  0.00    +0.166 A 
ATOM      8  N   UNL     1      -0.850  -2.784   1.973  0.00  0.00    -0.156 NA
BRANCH   3   9
ATOM      9  C   UNL     1       1.228  -2.186  -0.022  0.00  0.00    +0.161 C 
BRANCH   9  14
ATOM     10  C   UNL     1      -0.017   1.378   0.010  0.00  0.00    +0.000 A 
ATOM     11  C   UNL     1       1.171   2.087   0.002  0.00  0.00    +0.003 A 
ATOM     12  C   UNL     1       2.377   1.414  -0.013  0.00  0.00    +0.039 A 
ATOM     13  C   UNL     1       2.397   0.029  -0.021  0.00  0.00    +0.128 A 
ATOM     14  C   UNL     1       1.208  -0.679  -0.013  0.00  0.00    +0.007 A 
ATOM     15  C   UNL     1       0.002  -0.004   0.002  0.00  0.00    +0.008 A 
ATOM     16  F   UNL     1       3.577  -0.630  -0.036  0.00  0.00    -0.205 F 
ENDBRANCH   9  14
ENDBRANCH   3   9
ENDBRANCH   1   8
BRANCH   1  17
ATOM     17  C   UNL     1      -3.195  -2.917   2.692  0.00  0.00    +0.172 C 
BRANCH  17  18
ATOM     18  S   UNL     1      -4.108  -3.398   4.184  0.00  0.00    -0.114 S 
BRANCH  18  19
ATOM     19  C   UNL     1      -5.797  -3.155   3.746  0.00  0.00    +0.039 A 
ATOM     20  C   UNL     1      -6.126  -2.693   2.474  0.00  0.00    +0.018 A 
ATOM     21  C   UNL     1      -7.434  -2.503   2.129  0.00  0.00    +0.014 A 
ATOM     22  C   UNL     1      -8.448  -2.771   3.053  0.00  0.00    +0.039 A 
ATOM     23  C   UNL     1      -8.121  -3.235   4.331  0.00  0.00    +0.047 A 
ATOM     24  C   UNL     1      -6.802  -3.431   4.671  0.00  0.00    +0.140 A 
BRANCH  22  25
ATOM     25  C   UNL     1      -9.860  -2.565   2.682  0.00  0.00    +0.242 C 
ATOM     26  O   UNL     1     -10.741  -2.799   3.486  0.00  0.00    -0.270 OA
ATOM     27  N   UNL     1     -10.174  -2.117   1.450  0.00  0.00    -0.325 N 
ATOM     28  H   UNL     1      -9.472  -1.931   0.808  0.00  0.00    +0.145 HD
ATOM     29  H   UNL     1     -11.103  -1.982   1.205  0.00  0.00    +0.145 HD
ENDBRANCH  22  25
BRANCH  24  30
ATOM     30  N   UNL     1      -6.450  -3.928   6.020  0.00  0.00    +0.058 N 
ATOM     31  O   UNL     1      -7.322  -4.167   6.823  0.00  0.00    -0.126 OA
ATOM     32  O   UNL     1      -5.291  -4.094   6.320  0.00  0.00    -0.126 OA
ENDBRANCH  24  30
ENDBRANCH  18  19
ENDBRANCH  17  18
ENDBRANCH   1  17
TORSDOF 8
