REMARK  Name = ZINC12586892
REMARK  2 active torsions:
REMARK  status: ('A' for Active; 'I' for Inactive)
REMARK    1  A    between atoms: N_11  and  C_12
REMARK    2  A    between atoms: C_18  and  C_20
REMARK                            x       y       z     vdW  Elec       q    Type
REMARK                         _______ _______ _______ _____ _____    ______ ____
ROOT
ATOM      1  C   UNL     1      -3.011   2.114   0.366  0.00  0.00    +0.095 C 
ATOM      2  C   UNL     1      -3.480   2.886   1.601  0.00  0.00    +0.044 C 
ATOM      3  C   UNL     1      -3.404   4.389   1.319  0.00  0.00    +0.110 C 
ATOM      4  N   UNL     1      -4.170   4.680   0.099  0.00  0.00    -0.297 N 
ATOM      5  C   UNL     1      -3.862   3.929  -1.125  0.00  0.00    +0.110 C 
ATOM      6  C   UNL     1      -3.933   2.430  -0.815  0.00  0.00    +0.044 C 
ATOM      7  C   UNL     1      -5.138   5.619   0.104  0.00  0.00    +0.253 C 
ATOM      8  O   UNL     1      -5.466   6.149   1.149  0.00  0.00    -0.269 OA
ENDROOT
BRANCH   1  19
ATOM      9  C   UNL     1      -0.237  -2.356   0.701  0.00  0.00    +0.002 A 
ATOM     10  C   UNL     1       0.242  -1.099   0.373  0.00  0.00    +0.002 A 
ATOM     11  C   UNL     1      -0.616  -0.018   0.324  0.00  0.00    +0.028 A 
ATOM     12  C   UNL     1      -1.963  -0.192   0.604  0.00  0.00    +0.070 A 
ATOM     13  C   UNL     1      -2.446  -1.460   0.934  0.00  0.00    +0.067 A 
ATOM     14  C   UNL     1      -1.577  -2.540   0.981  0.00  0.00    +0.028 A 
ATOM     15  N   UNL     1      -3.814  -1.324   1.159  0.00  0.00    -0.306 N 
ATOM     16  H   UNL     1      -4.422  -2.037   1.407  0.00  0.00    +0.170 HD
ATOM     17  C   UNL     1      -4.147  -0.032   0.975  0.00  0.00    +0.328 A 
ATOM     18  O   UNL     1      -5.269   0.426   1.093  0.00  0.00    -0.247 OA
ATOM     19  N   UNL     1      -3.051   0.676   0.644  0.00  0.00    -0.289 N 
ENDBRANCH   1  19
BRANCH   7  20
ATOM     20  C   UNL     1      -5.795   5.999  -1.150  0.00  0.00    +0.075 A 
ATOM     21  C   UNL     1      -7.022   6.609  -1.342  0.00  0.00    +0.024 A 
ATOM     22  C   UNL     1      -7.423   6.875  -2.646  0.00  0.00    -0.036 A 
ATOM     23  C   UNL     1      -6.581   6.484  -3.630  0.00  0.00    -0.006 A 
ATOM     24  S   UNL     1      -5.219   5.805  -2.829  0.00  0.00    -0.088 S 
ATOM     25  C   UNL     1      -6.812   6.611  -5.119  0.00  0.00    +0.043 C 
ATOM     26  C   UNL     1      -6.769   8.111  -5.459  0.00  0.00    +0.005 C 
ATOM     27  C   UNL     1      -8.080   8.768  -5.094  0.00  0.00    +0.001 C 
ATOM     28  C   UNL     1      -8.357   8.941  -3.623  0.00  0.00    +0.005 C 
ATOM     29  C   UNL     1      -8.729   7.619  -2.949  0.00  0.00    +0.036 C 
ENDBRANCH   7  20
TORSDOF 2
