REMARK  Name = ZINC04452305
REMARK  12 active torsions:
REMARK  status: ('A' for Active; 'I' for Inactive)
REMARK    1  A    between atoms: C_1  and  C_2
REMARK    2  A    between atoms: C_2  and  C_3
REMARK    3  A    between atoms: C_3  and  C_4
REMARK    4  A    between atoms: C_3  and  C_5
REMARK    5  A    between atoms: C_3  and  N_59
REMARK    6  A    between atoms: N_9  and  C_10
REMARK    7  A    between atoms: C_11  and  C_17
REMARK    8  A    between atoms: C_15  and  C_16
REMARK    9  A    between atoms: C_18  and  C_19
REMARK   10  A    between atoms: C_18  and  N_59
REMARK   11  A    between atoms: C_19  and  C_20
REMARK   12  A    between atoms: C_21  and  C_30
REMARK                            x       y       z     vdW  Elec       q    Type
REMARK                         _______ _______ _______ _____ _____    ______ ____
ROOT
ATOM      1  C   UNL     1      -0.535   5.151  -1.237  0.00  0.00    -0.008 C 
ATOM      2  C   UNL     1      -1.073   5.887  -0.009  0.00  0.00    -0.002 C 
ENDROOT
BRANCH   1   3
ATOM      3  C   UNL     1       0.743   4.439  -0.877  0.00  0.00    +0.146 A 
ATOM      4  N   UNL     1       1.051   3.203  -1.169  0.00  0.00    -0.114 NA
ATOM      5  N   UNL     1       2.213   2.905  -0.711  0.00  0.00    -0.023 NA
ATOM      6  N   UNL     1       2.727   3.920  -0.105  0.00  0.00    -0.039 NA
ATOM      7  N   UNL     1       1.785   4.961  -0.194  0.00  0.00    -0.198 N 
BRANCH   7   8
ATOM      8  C   UNL     1       1.901   6.261   0.321  0.00  0.00    +0.075 A 
ATOM      9  C   UNL     1       1.472   6.538   1.612  0.00  0.00    -0.025 A 
ATOM     10  C   UNL     1       1.588   7.819   2.116  0.00  0.00    +0.005 A 
ATOM     11  C   UNL     1       2.131   8.824   1.337  0.00  0.00    +0.001 A 
ATOM     12  C   UNL     1       2.554   8.552   0.049  0.00  0.00    +0.005 A 
ATOM     13  C   UNL     1       2.445   7.272  -0.459  0.00  0.00    -0.025 A 
ATOM     14  C   UNL     1       2.912   6.975  -1.861  0.00  0.00    +0.046 C 
ATOM     15  C   UNL     1       0.881   5.443   2.462  0.00  0.00    +0.046 C 
ENDBRANCH   7   8
ENDBRANCH   1   3
BRANCH   1  16
ATOM     16  N   UNL     1      -1.527   4.161  -1.696  0.00  0.00    +0.388 N 
ATOM     17  H   UNL     1      -1.756   3.527  -0.921  0.00  0.00    -0.084 HD
ATOM     18  H   UNL     1      -1.132   3.620  -2.474  0.00  0.00    -0.084 HD
BRANCH  16  19
ATOM     19  C   UNL     1      -2.756   4.839  -2.149  0.00  0.00    -0.076 C 
BRANCH  19  20
ATOM     20  C   UNL     1      -3.799   3.785  -2.530  0.00  0.00    +0.018 C 
BRANCH  20  21
ATOM     21  C   UNL     1      -5.058   4.470  -2.995  0.00  0.00    -0.021 A 
ATOM     22  C   UNL     1      -6.100   4.830  -2.230  0.00  0.00    +0.017 A 
ATOM     23  N   UNL     1      -7.059   5.429  -3.000  0.00  0.00    -0.358 N 
ATOM     24  H   UNL     1      -7.903   5.776  -2.669  0.00  0.00    +0.166 HD
ATOM     25  C   UNL     1      -6.651   5.464  -4.314  0.00  0.00    +0.047 A 
ATOM     26  C   UNL     1      -5.379   4.864  -4.369  0.00  0.00    +0.003 A 
ATOM     27  C   UNL     1      -4.711   4.758  -5.590  0.00  0.00    +0.010 A 
ATOM     28  C   UNL     1      -5.298   5.236  -6.728  0.00  0.00    +0.001 A 
ATOM     29  C   UNL     1      -6.552   5.829  -6.679  0.00  0.00    +0.002 A 
ATOM     30  C   UNL     1      -7.229   5.944  -5.485  0.00  0.00    +0.026 A 
ATOM     31  C   UNL     1      -6.198   4.609  -0.743  0.00  0.00    +0.063 C 
ENDBRANCH  20  21
ENDBRANCH  19  20
ENDBRANCH  16  19
ENDBRANCH   1  16
BRANCH   1  33
ATOM     32  C   UNL     1       0.159   5.412  -3.623  0.00  0.00    +0.003 C 
ATOM     33  C   UNL     1      -0.260   6.159  -2.355  0.00  0.00    -0.008 C 
ENDBRANCH   1  33
TORSDOF 7
