REMARK  Name = ZINC39737875
REMARK  11 active torsions:
REMARK  status: ('A' for Active; 'I' for Inactive)
REMARK    1  A    between atoms: C_1  and  C_2
REMARK    2  A    between atoms: C_3  and  C_34
REMARK    3  A    between atoms: C_4  and  C_33
REMARK    4  A    between atoms: C_7  and  C_8
REMARK    5  A    between atoms: C_8  and  C_10
REMARK    6  A    between atoms: C_10  and  C_12
REMARK    7  A    between atoms: C_10  and  S_13
REMARK    8  A    between atoms: S_13  and  C_14
REMARK    9  A    between atoms: C_18  and  C_27
REMARK   10  A    between atoms: N_19  and  C_20
REMARK   11  A    between atoms: C_34  and  C_36
REMARK                            x       y       z     vdW  Elec       q    Type
REMARK                         _______ _______ _______ _____ _____    ______ ____
ROOT
ATOM      1  C   UNL     1      -1.332  -2.549   6.388  0.00  0.00    +0.242 C 
ATOM      2  N   UNL     1      -0.011  -3.080   6.767  0.00  0.00    -0.237 N 
ATOM      3  N   UNL     1       0.367  -3.960   5.746  0.00  0.00    -0.168 NA
ATOM      4  C   UNL     1      -0.533  -4.027   4.821  0.00  0.00    +0.153 C 
ATOM      5  N   UNL     1      -1.627  -3.205   5.103  0.00  0.00    -0.254 N 
ATOM      6  H   UNL     1       0.495  -2.862   7.565  0.00  0.00    +0.171 HD
ENDROOT
BRANCH   5   7
ATOM      7  C   UNL     1      -2.775  -3.037   4.322  0.00  0.00    +0.038 A 
ATOM      8  C   UNL     1      -2.768  -2.145   3.258  0.00  0.00    +0.026 A 
ATOM      9  C   UNL     1      -3.902  -1.980   2.488  0.00  0.00    +0.040 A 
ATOM     10  C   UNL     1      -5.047  -2.703   2.777  0.00  0.00    +0.124 A 
ATOM     11  C   UNL     1      -5.058  -3.593   3.839  0.00  0.00    +0.040 A 
ATOM     12  C   UNL     1      -3.923  -3.766   4.607  0.00  0.00    +0.026 A 
ATOM     13  F   UNL     1      -6.157  -2.541   2.023  0.00  0.00    -0.205 F 
ENDBRANCH   5   7
BRANCH   4  14
ATOM     14  C   UNL     1      -0.421  -4.871   3.613  0.00  0.00    +0.020 A 
ATOM     15  C   UNL     1      -1.494  -5.002   2.723  0.00  0.00    +0.029 A 
ATOM     16  C   UNL     1      -1.345  -5.800   1.609  0.00  0.00    +0.083 A 
ATOM     17  N   UNL     1      -0.212  -6.435   1.376  0.00  0.00    -0.367 N 
ATOM     18  C   UNL     1       0.824  -6.339   2.188  0.00  0.00    +0.083 A 
ATOM     19  C   UNL     1       0.765  -5.558   3.323  0.00  0.00    +0.029 A 
ATOM     20  H   UNL     1      -0.138  -6.989   0.583  0.00  0.00    +0.165 HD
ENDBRANCH   4  14
BRANCH   1  21
ATOM     21  S   UNL     1      -1.257  -0.748   6.179  0.00  0.00    -0.107 S 
BRANCH  21  22
ATOM     22  C   UNL     1       0.038  -0.504   4.933  0.00  0.00    +0.119 C 
ATOM     23  C   UNL     1       1.383  -0.966   5.498  0.00  0.00    +0.027 C 
BRANCH  22  24
ATOM     24  C   UNL     1       0.120   0.958   4.573  0.00  0.00    +0.192 C 
ATOM     25  O   UNL     1      -0.252   1.799   5.365  0.00  0.00    -0.289 OA
BRANCH  24  32
ATOM     26  C   UNL     1       0.386   3.898   3.603  0.00  0.00    +0.047 C 
ATOM     27  C   UNL     1       0.759   2.642   2.858  0.00  0.00    -0.012 A 
ATOM     28  C   UNL     1       1.314   2.566   1.560  0.00  0.00    +0.041 A 
ATOM     29  C   UNL     1       1.496   1.222   1.272  0.00  0.00    +0.024 A 
ATOM     30  N   UNL     1       1.082   0.499   2.322  0.00  0.00    -0.355 N 
ATOM     31  H   UNL     1       1.101  -0.469   2.379  0.00  0.00    +0.166 HD
ATOM     32  C   UNL     1       0.630   1.348   3.312  0.00  0.00    +0.087 A 
ATOM     33  C   UNL     1       2.065   0.666  -0.008  0.00  0.00    +0.064 C 
BRANCH  28  34
ATOM     34  C   UNL     1       1.636   3.696   0.682  0.00  0.00    +0.162 C 
ATOM     35  O   UNL     1       0.808   4.112  -0.101  0.00  0.00    -0.292 OA
ATOM     36  C   UNL     1       2.996   4.342   0.753  0.00  0.00    +0.091 C 
ENDBRANCH  28  34
ENDBRANCH  24  32
ENDBRANCH  22  24
ENDBRANCH  21  22
ENDBRANCH   1  21
TORSDOF 7
