REMARK  Name = ZINC50305733
REMARK  11 active torsions:
REMARK  status: ('A' for Active; 'I' for Inactive)
REMARK    1  A    between atoms: C_1  and  C_2
REMARK    2  A    between atoms: C_2  and  C_3
REMARK    3  A    between atoms: C_3  and  C_4
REMARK    4  A    between atoms: C_3  and  C_6
REMARK    5  A    between atoms: C_4  and  C_5
REMARK    6  A    between atoms: C_6  and  N_7
REMARK    7  A    between atoms: N_7  and  C_8
REMARK    8  A    between atoms: C_8  and  C_9
REMARK    9  A    between atoms: C_10  and  C_12
REMARK   10  A    between atoms: C_13  and  N_19
REMARK   11  A    between atoms: C_14  and  C_18
REMARK                            x       y       z     vdW  Elec       q    Type
REMARK                         _______ _______ _______ _____ _____    ______ ____
ROOT
ATOM      1  N   UNL     1      -2.918  -2.585   0.295  0.00  0.00    -0.296 N 
ATOM      2  C   UNL     1      -3.709  -2.747   1.373  0.00  0.00    +0.269 C 
ATOM      3  O   UNL     1      -3.304  -2.438   2.477  0.00  0.00    -0.268 OA
ENDROOT
BRANCH   2   4
ATOM      4  C   UNL     1      -5.068  -3.299   1.215  0.00  0.00    +0.168 A 
ATOM      5  C   UNL     1      -6.050  -3.427   2.231  0.00  0.00    +0.078 A 
ATOM      6  C   UNL     1      -7.130  -3.982   1.621  0.00  0.00    +0.054 A 
ATOM      7  N   UNL     1      -6.800  -4.169   0.316  0.00  0.00    -0.279 N 
ATOM      8  H   UNL     1      -7.386  -4.551  -0.356  0.00  0.00    +0.189 HD
ATOM      9  N   UNL     1      -5.601  -3.761   0.100  0.00  0.00    -0.167 NA
ATOM     10  C   UNL     1      -8.447  -4.325   2.269  0.00  0.00    +0.067 C 
BRANCH   5  11
ATOM     11  N   UNL     1      -5.930  -3.059   3.579  0.00  0.00    -0.355 N 
ATOM     12  H   UNL     1      -5.104  -2.669   3.904  0.00  0.00    +0.142 HD
ATOM     13  H   UNL     1      -6.674  -3.195   4.186  0.00  0.00    +0.142 HD
ENDBRANCH   5  11
ENDBRANCH   2   4
BRANCH   1  14
ATOM     14  C   UNL     1      -3.446  -2.842  -1.047  0.00  0.00    +0.105 C 
ATOM     15  C   UNL     1      -3.302  -4.330  -1.375  0.00  0.00    +0.024 C 
ENDBRANCH   1  14
BRANCH   1  16
ATOM     16  C   UNL     1      -1.529  -2.151   0.464  0.00  0.00    +0.111 C 
BRANCH  16  17
ATOM     17  C   UNL     1      -1.441  -0.635   0.272  0.00  0.00    +0.006 C 
BRANCH  17  19
ATOM     18  C   UNL     1      -2.279   1.572   1.091  0.00  0.00    +0.004 C 
ATOM     19  C   UNL     1      -2.264   0.065   1.355  0.00  0.00    +0.002 C 
ENDBRANCH  17  19
BRANCH  17  20
ATOM     20  C   UNL     1       0.020  -0.192   0.374  0.00  0.00    +0.002 C 
ATOM     21  C   UNL     1       0.816  -0.787  -0.789  0.00  0.00    +0.004 C 
ENDBRANCH  17  20
ENDBRANCH  16  17
ENDBRANCH   1  16
TORSDOF 7
