REMARK  Name = ZINC09386329
REMARK  7 active torsions:
REMARK  status: ('A' for Active; 'I' for Inactive)
REMARK    1  A    between atoms: C_1  and  C_2
REMARK    2  A    between atoms: C_2  and  C_3
REMARK    3  A    between atoms: C_3  and  C_30
REMARK    4  A    between atoms: N_6  and  N_10
REMARK    5  A    between atoms: C_11  and  C_13
REMARK    6  A    between atoms: C_13  and  N_63
REMARK    7  A    between atoms: C_16  and  N_19
REMARK                            x       y       z     vdW  Elec       q    Type
REMARK                         _______ _______ _______ _____ _____    ______ ____
ROOT
ATOM      1  N   UNL     1      -6.327  -6.231  -1.283  0.00  0.00    -0.225 N 
ATOM      2  C   UNL     1      -5.616  -5.103  -1.090  0.00  0.00    +0.213 C 
ATOM      3  O   UNL     1      -5.792  -4.144  -1.811  0.00  0.00    -0.276 OA
ATOM      4  H   UNL     1      -6.186  -6.999  -0.706  0.00  0.00    +0.173 HD
ENDROOT
BRANCH   1   8
ATOM      5  C   UNL     1      -9.217  -6.346  -3.510  0.00  0.00    +0.139 C 
ATOM      6  C   UNL     1      -8.604  -6.244  -2.128  0.00  0.00    +0.268 C 
ATOM      7  O   UNL     1      -9.191  -6.136  -1.073  0.00  0.00    -0.271 OA
ATOM      8  N   UNL     1      -7.271  -6.296  -2.316  0.00  0.00    -0.137 N 
ATOM      9  C   UNL     1      -6.960  -6.424  -3.611  0.00  0.00    +0.327 C 
ATOM     10  O   UNL     1      -5.821  -6.497  -4.028  0.00  0.00    -0.251 OA
ATOM     11  N   UNL     1      -8.049  -6.463  -4.400  0.00  0.00    -0.280 N 
ATOM     12  H   UNL     1      -8.062  -6.551  -5.366  0.00  0.00    +0.152 HD
BRANCH   5  13
ATOM     13  C   UNL     1     -10.085  -7.574  -3.611  0.00  0.00    -0.015 A 
ATOM     14  C   UNL     1     -11.446  -7.480  -3.385  0.00  0.00    +0.006 A 
ATOM     15  C   UNL     1     -12.242  -8.605  -3.482  0.00  0.00    +0.000 A 
ATOM     16  C   UNL     1     -11.677  -9.828  -3.795  0.00  0.00    +0.000 A 
ATOM     17  C   UNL     1     -10.316  -9.923  -4.016  0.00  0.00    +0.000 A 
ATOM     18  C   UNL     1      -9.520  -8.797  -3.924  0.00  0.00    +0.006 A 
ENDBRANCH   5  13
BRANCH   5  20
ATOM     19  C   UNL     1      -9.105  -3.868  -3.804  0.00  0.00    +0.007 C 
ATOM     20  C   UNL     1     -10.024  -5.090  -3.844  0.00  0.00    +0.037 C 
ENDBRANCH   5  20
ENDBRANCH   1   8
BRANCH   2  21
ATOM     21  C   UNL     1      -4.601  -5.033   0.022  0.00  0.00    +0.020 C 
BRANCH  21  27
ATOM     22  C   UNL     1      -3.147  -3.518   1.227  0.00  0.00    -0.076 C 
ATOM     23  C   UNL     1      -2.621  -2.081   1.265  0.00  0.00    +0.006 C 
ATOM     24  C   UNL     1      -1.784  -1.816   0.010  0.00  0.00    +0.089 C 
ATOM     25  C   UNL     1      -2.644  -2.069  -1.231  0.00  0.00    +0.006 C 
ATOM     26  C   UNL     1      -3.171  -3.506  -1.196  0.00  0.00    -0.076 C 
ATOM     27  N   UNL     1      -3.988  -3.689   0.022  0.00  0.00    +0.386 N 
ATOM     28  H   UNL     1      -4.733  -2.983   0.033  0.00  0.00    -0.081 HD
BRANCH  24  29
ATOM     29  N   UNL     1      -1.326  -0.425   0.012  0.00  0.00    -0.289 N 
ATOM     30  C   UNL     1       0.002  -0.004   0.002  0.00  0.00    +0.070 A 
ATOM     31  C   UNL     1       1.214  -0.678  -0.013  0.00  0.00    +0.028 A 
ATOM     32  C   UNL     1       2.397   0.035  -0.020  0.00  0.00    +0.002 A 
ATOM     33  C   UNL     1       2.378   1.419  -0.012  0.00  0.00    +0.002 A 
ATOM     34  C   UNL     1       1.176   2.099   0.002  0.00  0.00    +0.028 A 
ATOM     35  C   UNL     1      -0.017   1.392   0.010  0.00  0.00    +0.067 A 
ATOM     36  N   UNL     1      -1.355   1.776   0.030  0.00  0.00    -0.306 N 
ATOM     37  H   UNL     1      -1.684   2.689   0.040  0.00  0.00    +0.170 HD
ATOM     38  C   UNL     1      -2.116   0.665   0.026  0.00  0.00    +0.328 A 
ATOM     39  O   UNL     1      -3.333   0.649   0.037  0.00  0.00    -0.247 OA
ENDBRANCH  24  29
ENDBRANCH  21  27
ENDBRANCH   2  21
TORSDOF 6
