REMARK  Name = ZINC03011145
REMARK  4 active torsions:
REMARK  status: ('A' for Active; 'I' for Inactive)
REMARK    1  A    between atoms: C_3  and  N_9
REMARK    2  A    between atoms: C_10  and  C_12
REMARK    3  A    between atoms: C_17  and  C_32
REMARK    4  A    between atoms: C_20  and  C_23
REMARK                            x       y       z     vdW  Elec       q    Type
REMARK                         _______ _______ _______ _____ _____    ______ ____
ROOT
ATOM      1  C   UNL     1       4.834   4.219  -0.236  0.00  0.00    +0.149 A 
ATOM      2  C   UNL     1       4.963   5.623  -0.337  0.00  0.00    +0.078 A 
ATOM      3  C   UNL     1       6.277   5.906  -0.427  0.00  0.00    +0.119 A 
ATOM      4  N   UNL     1       6.970   4.729  -0.389  0.00  0.00    -0.238 N 
ATOM      5  N   UNL     1       6.046   3.692  -0.262  0.00  0.00    -0.164 NA
ATOM      6  C   UNL     1       8.430   4.643  -0.468  0.00  0.00    +0.215 C 
ATOM      7  C   UNL     1       8.973   5.944  -1.068  0.00  0.00    +0.063 C 
ATOM      8  C   UNL     1       8.373   7.148  -0.333  0.00  0.00    +0.104 C 
ATOM      9  N   UNL     1       6.912   7.146  -0.542  0.00  0.00    -0.322 N 
ATOM     10  H   UNL     1       6.422   7.957  -0.748  0.00  0.00    +0.148 HD
ENDROOT
BRANCH   8  11
ATOM     11  C   UNL     1       8.966   8.421  -0.880  0.00  0.00    -0.024 A 
ATOM     12  C   UNL     1       8.483   8.955  -2.060  0.00  0.00    +0.009 A 
ATOM     13  C   UNL     1       9.023  10.123  -2.566  0.00  0.00    +0.050 A 
ATOM     14  C   UNL     1      10.049  10.762  -1.890  0.00  0.00    +0.166 A 
ATOM     15  C   UNL     1      10.535  10.225  -0.700  0.00  0.00    +0.167 A 
ATOM     16  C   UNL     1       9.986   9.057  -0.197  0.00  0.00    +0.055 A 
ATOM     17  O   UNL     1      11.533  11.030  -0.233  0.00  0.00    -0.453 OA
ATOM     18  C   UNL     1      11.930  11.840  -1.355  0.00  0.00    +0.466 C 
ATOM     19  O   UNL     1      10.743  11.904  -2.168  0.00  0.00    -0.453 OA
ENDBRANCH   8  11
BRANCH   1  21
ATOM     20  N   UNL     1       3.583   2.127  -0.021  0.00  0.00    -0.279 N 
ATOM     21  C   UNL     1       3.566   3.471  -0.116  0.00  0.00    +0.268 C 
ATOM     22  O   UNL     1       2.507   4.068  -0.103  0.00  0.00    -0.268 OA
ATOM     23  H   UNL     1       4.429   1.657   0.049  0.00  0.00    +0.155 HD
BRANCH  20  26
ATOM     24  C   UNL     1       0.065   1.242  -0.621  0.00  0.00    +0.003 A 
ATOM     25  C   UNL     1       1.250   1.952  -0.619  0.00  0.00    +0.025 A 
ATOM     26  C   UNL     1       2.382   1.410  -0.024  0.00  0.00    +0.054 A 
ATOM     27  C   UNL     1       2.319   0.154   0.568  0.00  0.00    +0.080 A 
ATOM     28  C   UNL     1       1.129  -0.551   0.562  0.00  0.00    +0.061 A 
ATOM     29  C   UNL     1       0.004  -0.007  -0.032  0.00  0.00    +0.021 A 
ATOM     30 CL   UNL     1       1.048  -2.120   1.300  0.00  0.00    -0.082 Cl
ATOM     31 CL   UNL     1       3.731  -0.528   1.312  0.00  0.00    -0.080 Cl
ENDBRANCH  20  26
ENDBRANCH   1  21
BRANCH   6  32
ATOM     32  C   UNL     1       8.826   3.461  -1.356  0.00  0.00    +0.412 C 
ATOM     33  F   UNL     1       8.301   3.647  -2.640  0.00  0.00    -0.168 F 
ATOM     34  F   UNL     1      10.221   3.381  -1.430  0.00  0.00    -0.168 F 
ATOM     35  F   UNL     1       8.319   2.277  -0.811  0.00  0.00    -0.168 F 
ENDBRANCH   6  32
TORSDOF 4
