REMARK  Name = ZINC12525676
REMARK  6 active torsions:
REMARK  status: ('A' for Active; 'I' for Inactive)
REMARK    1  A    between atoms: C_9  and  S_11
REMARK    2  A    between atoms: S_11  and  C_12
REMARK    3  A    between atoms: C_12  and  C_13
REMARK    4  A    between atoms: C_16  and  C_19
REMARK    5  A    between atoms: N_21  and  N_22
REMARK    6  A    between atoms: C_23  and  C_25
REMARK                            x       y       z     vdW  Elec       q    Type
REMARK                         _______ _______ _______ _____ _____    ______ ____
ROOT
ATOM      1  C   UNL     1       6.716   4.763  -0.035  0.00  0.00    -0.037 A 
ATOM      2  C   UNL     1       7.399   4.906   1.160  0.00  0.00    +0.005 A 
ATOM      3  C   UNL     1       8.750   5.189   1.156  0.00  0.00    +0.013 A 
ATOM      4  C   UNL     1       9.424   5.343  -0.057  0.00  0.00    +0.038 A 
ATOM      5  C   UNL     1       8.727   5.202  -1.258  0.00  0.00    +0.013 A 
ATOM      6  C   UNL     1       7.378   4.913  -1.240  0.00  0.00    +0.005 A 
ENDROOT
BRANCH   4   7
ATOM      7  C   UNL     1      10.870   5.652  -0.068  0.00  0.00    +0.260 C 
ATOM      8  O   UNL     1      11.454   5.784  -1.126  0.00  0.00    -0.269 OA
ATOM      9  N   UNL     1      11.539   5.787   1.094  0.00  0.00    -0.230 N 
ATOM     10  H   UNL     1      11.073   5.681   1.937  0.00  0.00    +0.173 HD
BRANCH   9  11
ATOM     11  N   UNL     1      12.909   6.079   1.083  0.00  0.00    -0.231 N 
ATOM     12  C   UNL     1      13.579   6.214   2.244  0.00  0.00    +0.273 C 
ATOM     13  O   UNL     1      12.996   6.082   3.299  0.00  0.00    -0.270 OA
ATOM     14  H   UNL     1      13.376   6.185   0.239  0.00  0.00    +0.173 HD
BRANCH  12  15
ATOM     15  C   UNL     1      15.053   6.529   2.232  0.00  0.00    +0.297 C 
ATOM     16  C   UNL     1      15.830   5.348   1.636  0.00  0.00    +0.283 C 
ATOM     17  O   UNL     1      17.224   5.674   1.652  0.00  0.00    -0.484 OA
ATOM     18  C   UNL     1      17.714   6.204   2.806  0.00  0.00    +0.162 A 
ATOM     19  C   UNL     1      19.084   6.209   3.024  0.00  0.00    +0.049 A 
ATOM     20  C   UNL     1      19.598   6.745   4.189  0.00  0.00    +0.004 A 
ATOM     21  C   UNL     1      18.748   7.278   5.141  0.00  0.00    +0.004 A 
ATOM     22  C   UNL     1      17.382   7.276   4.930  0.00  0.00    +0.049 A 
ATOM     23  C   UNL     1      16.860   6.737   3.764  0.00  0.00    +0.163 A 
ATOM     24  O   UNL     1      15.513   6.738   3.572  0.00  0.00    -0.472 OA
ENDBRANCH  12  15
ENDBRANCH   9  11
ENDBRANCH   4   7
BRANCH   1  25
ATOM     25  C   UNL     1       5.242   4.449  -0.023  0.00  0.00    +0.112 C 
BRANCH  25  26
ATOM     26  S   UNL     1       5.008   2.654  -0.030  0.00  0.00    -0.083 S 
BRANCH  26  35
ATOM     27  C   UNL     1      -1.216   1.751   0.017  0.00  0.00    +0.002 A 
ATOM     28  C   UNL     1      -1.243   3.138   0.030  0.00  0.00    +0.002 A 
ATOM     29  C   UNL     1      -0.071   3.860   0.023  0.00  0.00    +0.030 A 
ATOM     30  C   UNL     1       1.156   3.191   0.008  0.00  0.00    +0.090 A 
ATOM     31  C   UNL     1       1.178   1.787   0.000  0.00  0.00    +0.067 A 
ATOM     32  C   UNL     1      -0.013   1.076   0.008  0.00  0.00    +0.028 A 
ATOM     33  N   UNL     1       2.514   1.422  -0.014  0.00  0.00    -0.333 N 
ATOM     34  H   UNL     1       2.874   0.489  -0.022  0.00  0.00    +0.168 HD
ATOM     35  C   UNL     1       3.248   2.575  -0.015  0.00  0.00    +0.168 A 
ATOM     36  N   UNL     1       2.448   3.612  -0.001  0.00  0.00    -0.222 NA
ENDBRANCH  26  35
ENDBRANCH  25  26
ENDBRANCH   1  25
TORSDOF 6
