REMARK  Name = ZINC65289562
REMARK  7 active torsions:
REMARK  status: ('A' for Active; 'I' for Inactive)
REMARK    1  A    between atoms: C_1  and  C_2
REMARK    2  A    between atoms: C_2  and  C_3
REMARK    3  A    between atoms: C_3  and  N_4
REMARK    4  A    between atoms: N_4  and  C_5
REMARK    5  A    between atoms: C_5  and  C_6
REMARK    6  A    between atoms: C_11  and  C_13
REMARK    7  A    between atoms: C_26  and  C_29
REMARK                            x       y       z     vdW  Elec       q    Type
REMARK                         _______ _______ _______ _____ _____    ______ ____
ROOT
ATOM      1  C   UNL     1       2.842  -1.660   0.221  0.00  0.00    +0.080 C 
ATOM      2  C   UNL     1       3.837  -2.550   0.975  0.00  0.00    +0.019 C 
ATOM      3  C   UNL     1       4.939  -1.663   1.553  0.00  0.00    +0.056 C 
ATOM      4  C   UNL     1       4.341  -0.518   2.325  0.00  0.00    +0.050 A 
ATOM      5  C   UNL     1       3.027  -0.128   2.175  0.00  0.00    -0.007 A 
ATOM      6  C   UNL     1       2.563   0.947   2.925  0.00  0.00    +0.119 A 
ATOM      7  N   UNL     1       3.385   1.559   3.759  0.00  0.00    -0.222 NA
ATOM      8  C   UNL     1       4.641   1.157   3.884  0.00  0.00    +0.218 A 
ATOM      9  N   UNL     1       5.114   0.139   3.182  0.00  0.00    -0.219 NA
ATOM     10  N   UNL     1       5.478   1.816   4.767  0.00  0.00    -0.300 N 
ATOM     11  C   UNL     1       6.878   1.399   4.925  0.00  0.00    +0.108 C 
ATOM     12  C   UNL     1       7.782   2.617   4.713  0.00  0.00    +0.022 C 
ATOM     13  C   UNL     1       7.350   3.739   5.661  0.00  0.00    -0.011 C 
ATOM     14  C   UNL     1       5.909   4.147   5.347  0.00  0.00    +0.022 C 
ATOM     15  C   UNL     1       4.985   2.950   5.561  0.00  0.00    +0.108 C 
ATOM     16  C   UNL     1       8.273   4.945   5.476  0.00  0.00    +0.007 C 
ATOM     17  C   UNL     1       2.074  -0.816   1.237  0.00  0.00    +0.051 C 
ENDROOT
BRANCH   1  19
ATOM     18  N   UNL     1       0.936  -1.950  -1.330  0.00  0.00    -0.296 N 
ATOM     19  C   UNL     1       1.878  -2.522  -0.554  0.00  0.00    +0.219 C 
ATOM     20  O   UNL     1       1.949  -3.730  -0.478  0.00  0.00    -0.275 OA
BRANCH  18  21
ATOM     21  C   UNL     1       0.864  -0.490  -1.438  0.00  0.00    +0.108 C 
BRANCH  21  23
ATOM     22  C   UNL     1      -0.232   1.562  -0.527  0.00  0.00    +0.005 C 
ATOM     23  C   UNL     1      -0.258   0.032  -0.538  0.00  0.00    +0.016 C 
ENDBRANCH  21  23
ENDBRANCH  18  21
BRANCH  18  24
ATOM     24  C   UNL     1      -0.015  -2.787  -2.065  0.00  0.00    +0.150 C 
BRANCH  24  25
ATOM     25  C   UNL     1       0.549  -3.112  -3.425  0.00  0.00    +0.007 A 
ATOM     26  C   UNL     1       1.318  -4.162  -3.801  0.00  0.00    +0.013 A 
ATOM     27  C   UNL     1       1.724  -4.258  -5.119  0.00  0.00    +0.008 A 
ATOM     28  C   UNL     1       1.340  -3.299  -5.996  0.00  0.00    +0.045 A 
ATOM     29  S   UNL     1       0.370  -2.217  -4.959  0.00  0.00    -0.100 S 
ENDBRANCH  24  25
ENDBRANCH  18  24
ENDBRANCH   1  19
TORSDOF 5
