REMARK  Name = ZINC23118690
REMARK  11 active torsions:
REMARK  status: ('A' for Active; 'I' for Inactive)
REMARK    1  A    between atoms: C_1  and  C_2
REMARK    2  A    between atoms: C_5  and  S_8
REMARK    3  A    between atoms: S_8  and  N_11
REMARK    4  A    between atoms: N_11  and  C_12
REMARK    5  A    between atoms: N_11  and  C_30
REMARK    6  A    between atoms: C_12  and  C_13
REMARK    7  A    between atoms: C_13  and  C_15
REMARK    8  A    between atoms: C_13  and  O_29
REMARK    9  A    between atoms: C_15  and  N_16
REMARK   10  A    between atoms: N_19  and  C_22
REMARK   11  A    between atoms: C_22  and  C_23
REMARK                            x       y       z     vdW  Elec       q    Type
REMARK                         _______ _______ _______ _____ _____    ______ ____
ROOT
ATOM      1  C   UNL     1      -2.705   1.380   2.286  0.00  0.00    +0.164 C 
ENDROOT
BRANCH   1   2
ATOM      2  N   UNL     1      -1.924   2.347   1.512  0.00  0.00    -0.201 N 
BRANCH   2   3
ATOM      3  C   UNL     1      -1.330   3.439   2.152  0.00  0.00    +0.052 A 
ATOM      4  C   UNL     1       0.048   3.608   2.105  0.00  0.00    +0.027 A 
ATOM      5  C   UNL     1       0.632   4.689   2.734  0.00  0.00    +0.040 A 
ATOM      6  C   UNL     1      -0.154   5.600   3.420  0.00  0.00    +0.124 A 
ATOM      7  C   UNL     1      -1.527   5.431   3.473  0.00  0.00    +0.040 A 
ATOM      8  C   UNL     1      -2.116   4.353   2.841  0.00  0.00    +0.027 A 
ATOM      9  F   UNL     1       0.420   6.655   4.039  0.00  0.00    -0.205 F 
ENDBRANCH   2   3
BRANCH   2  10
ATOM     10  S   UNL     1      -1.745   2.148  -0.123  0.00  0.00    +0.075 S 
ATOM     11  O   UNL     1      -1.339   3.406  -0.643  0.00  0.00    -0.150 OA
ATOM     12  O   UNL     1      -2.909   1.474  -0.580  0.00  0.00    -0.150 OA
BRANCH  10  17
ATOM     13  C   UNL     1       2.877  -1.636  -0.980  0.00  0.00    +0.044 C 
ATOM     14  C   UNL     1       1.722  -0.691  -0.764  0.00  0.00    -0.050 A 
ATOM     15  C   UNL     1       0.439  -1.187  -0.631  0.00  0.00    +0.005 A 
ATOM     16  C   UNL     1      -0.620  -0.320  -0.433  0.00  0.00    +0.029 A 
ATOM     17  C   UNL     1      -0.395   1.042  -0.367  0.00  0.00    +0.109 A 
ATOM     18  C   UNL     1       0.889   1.538  -0.500  0.00  0.00    +0.029 A 
ATOM     19  C   UNL     1       1.948   0.671  -0.699  0.00  0.00    +0.005 A 
ENDBRANCH  10  17
ENDBRANCH   2  10
ENDBRANCH   1   2
BRANCH   1  20
ATOM     20  C   UNL     1      -1.769   0.320   2.871  0.00  0.00    +0.147 C 
BRANCH  20  21
ATOM     21  O   UNL     1      -0.899   0.928   3.827  0.00  0.00    -0.389 OA
ATOM     22  H   UNL     1      -0.151   0.319   4.355  0.00  0.00    +0.210 HD
ENDBRANCH  20  21
BRANCH  20  23
ATOM     23  C   UNL     1      -2.597  -0.769   3.555  0.00  0.00    +0.117 C 
BRANCH  23  24
ATOM     24  N   UNL     1      -1.699  -1.787   4.117  0.00  0.00    -0.303 NA
ATOM     25  C   UNL     1      -0.990  -2.509   3.051  0.00  0.00    +0.066 C 
ATOM     26  C   UNL     1      -0.008  -3.502   3.677  0.00  0.00    -0.063 C 
ATOM     27  N   UNL     1      -0.744  -4.435   4.542  0.00  0.00    +0.384 N 
ATOM     28  C   UNL     1      -1.452  -3.713   5.608  0.00  0.00    -0.063 C 
ATOM     29  C   UNL     1      -2.434  -2.720   4.982  0.00  0.00    +0.066 C 
ATOM     30  H   UNL     1      -1.494  -4.952   3.925  0.00  0.00    -0.081 HD
BRANCH  27  31
ATOM     31  C   UNL     1       0.155  -5.453   5.103  0.00  0.00    -0.043 C 
BRANCH  31  32
ATOM     32  C   UNL     1       1.039  -6.000   4.012  0.00  0.00    -0.064 A 
ATOM     33  C   UNL     1       0.634  -7.101   3.280  0.00  0.00    +0.002 A 
ATOM     34  C   UNL     1       1.442  -7.599   2.276  0.00  0.00    +0.000 A 
ATOM     35  C   UNL     1       2.661  -7.002   2.010  0.00  0.00    +0.000 A 
ATOM     36  C   UNL     1       3.068  -5.904   2.745  0.00  0.00    +0.000 A 
ATOM     37  C   UNL     1       2.257  -5.403   3.745  0.00  0.00    +0.002 A 
ENDBRANCH  31  32
ENDBRANCH  27  31
ENDBRANCH  23  24
ENDBRANCH  20  23
ENDBRANCH   1  20
TORSDOF 10
