REMARK  Name = ZINC43504183
REMARK  14 active torsions:
REMARK  status: ('A' for Active; 'I' for Inactive)
REMARK    1  A    between atoms: C_1  and  C_2
REMARK    2  A    between atoms: C_2  and  O_3
REMARK    3  A    between atoms: O_3  and  C_4
REMARK    4  A    between atoms: C_4  and  C_5
REMARK    5  A    between atoms: C_4  and  O_19
REMARK    6  A    between atoms: C_5  and  C_7
REMARK    7  A    between atoms: C_7  and  C_8
REMARK    8  A    between atoms: C_9  and  C_18
REMARK    9  A    between atoms: C_10  and  C_17
REMARK   10  A    between atoms: C_11  and  C_16
REMARK   11  A    between atoms: C_12  and  C_15
REMARK   12  A    between atoms: C_13  and  C_14
REMARK   13  A    between atoms: O_19  and  C_20
REMARK   14  A    between atoms: C_20  and  C_21
REMARK                            x       y       z     vdW  Elec       q    Type
REMARK                         _______ _______ _______ _____ _____    ______ ____
ROOT
ATOM      1  C   UNL     1       3.129  -2.173   4.246  0.00  0.00    -0.034 A 
ATOM      2  C   UNL     1       2.638  -1.799   5.483  0.00  0.00    -0.043 A 
ATOM      3  C   UNL     1       3.147  -2.375   6.631  0.00  0.00    -0.044 A 
ATOM      4  C   UNL     1       4.146  -3.327   6.543  0.00  0.00    -0.044 A 
ATOM      5  C   UNL     1       4.636  -3.702   5.306  0.00  0.00    -0.044 A 
ATOM      6  C   UNL     1       4.124  -3.128   4.157  0.00  0.00    -0.043 A 
ATOM      7  C   UNL     1       4.654  -3.541   2.808  0.00  0.00    +0.044 C 
ATOM      8  C   UNL     1       5.725  -4.739   5.209  0.00  0.00    +0.044 C 
ATOM      9  C   UNL     1       4.702  -3.955   7.795  0.00  0.00    +0.044 C 
ATOM     10  C   UNL     1       2.614  -1.966   7.980  0.00  0.00    +0.044 C 
ATOM     11  C   UNL     1       1.550  -0.761   5.579  0.00  0.00    +0.044 C 
ENDROOT
BRANCH   1  12
ATOM     12  C   UNL     1       2.574  -1.544   2.994  0.00  0.00    +0.115 C 
BRANCH  12  13
ATOM     13  C   UNL     1       1.403  -2.355   2.501  0.00  0.00    +0.193 C 
ATOM     14  O   UNL     1       1.055  -3.341   3.104  0.00  0.00    -0.292 OA
BRANCH  13  15
ATOM     15  C   UNL     1       0.666  -1.934   1.255  0.00  0.00    +0.319 C 
BRANCH  15  16
ATOM     16  O   UNL     1       0.734  -0.514   1.118  0.00  0.00    -0.345 OA
BRANCH  16  18
ATOM     17  C   UNL     1       0.599   1.475  -0.249  0.00  0.00    +0.034 C 
ATOM     18  C   UNL     1       0.639  -0.055  -0.232  0.00  0.00    +0.160 C 
ENDBRANCH  16  18
ENDBRANCH  15  16
BRANCH  15  19
ATOM     19  O   UNL     1      -0.701  -2.339   1.351  0.00  0.00    -0.345 OA
BRANCH  19  20
ATOM     20  C   UNL     1      -1.411  -2.284   0.112  0.00  0.00    +0.160 C 
ATOM     21  C   UNL     1      -2.805  -2.887   0.296  0.00  0.00    +0.034 C 
ENDBRANCH  19  20
ENDBRANCH  15  19
ENDBRANCH  13  15
ENDBRANCH  12  13
ENDBRANCH   1  12
TORSDOF 7
