REMARK  Name = ZINC08713210
REMARK  11 active torsions:
REMARK  status: ('A' for Active; 'I' for Inactive)
REMARK    1  A    between atoms: C_1  and  C_2
REMARK    2  A    between atoms: C_4  and  C_33
REMARK    3  A    between atoms: C_5  and  N_9
REMARK    4  A    between atoms: C_6  and  C_8
REMARK    5  A    between atoms: C_10  and  C_12
REMARK    6  A    between atoms: C_12  and  N_13
REMARK    7  A    between atoms: C_14  and  C_16
REMARK    8  A    between atoms: C_16  and  O_17
REMARK    9  A    between atoms: O_17  and  C_18
REMARK   10  A    between atoms: C_18  and  C_20
REMARK   11  A    between atoms: C_29  and  C_32
REMARK                            x       y       z     vdW  Elec       q    Type
REMARK                         _______ _______ _______ _____ _____    ______ ____
ROOT
ATOM      1  N   UNL     1      -5.999   2.898  -1.138  0.00  0.00    -0.304 N 
ATOM      2  C   UNL     1      -7.260   3.314  -1.369  0.00  0.00    +0.251 C 
ATOM      3  O   UNL     1      -7.562   4.472  -1.175  0.00  0.00    -0.272 OA
ATOM      4  H   UNL     1      -5.758   1.972  -1.293  0.00  0.00    +0.149 HD
ENDROOT
BRANCH   1   5
ATOM      5  C   UNL     1      -4.993   3.846  -0.653  0.00  0.00    +0.200 C 
BRANCH   5   7
ATOM      6  N   UNL     1      -2.598   3.812  -0.036  0.00  0.00    -0.284 N 
ATOM      7  C   UNL     1      -3.676   3.135  -0.477  0.00  0.00    +0.234 C 
ATOM      8  O   UNL     1      -3.587   1.952  -0.732  0.00  0.00    -0.274 OA
ATOM      9  H   UNL     1      -2.685   4.739   0.234  0.00  0.00    +0.155 HD
BRANCH   6  14
ATOM     10  C   UNL     1       2.452   1.240   0.236  0.00  0.00    +0.044 C 
ATOM     11  C   UNL     1       1.110   1.923   0.163  0.00  0.00    -0.050 A 
ATOM     12  C   UNL     1       0.499   2.114  -1.062  0.00  0.00    +0.008 A 
ATOM     13  C   UNL     1      -0.728   2.745  -1.132  0.00  0.00    -0.029 A 
ATOM     14  C   UNL     1      -1.352   3.178   0.031  0.00  0.00    +0.039 A 
ATOM     15  C   UNL     1      -0.735   2.984   1.260  0.00  0.00    -0.029 A 
ATOM     16  C   UNL     1       0.494   2.357   1.323  0.00  0.00    +0.008 A 
ATOM     17  C   UNL     1      -1.406   3.457   2.523  0.00  0.00    +0.045 C 
ATOM     18  C   UNL     1      -1.391   2.958  -2.468  0.00  0.00    +0.045 C 
ENDBRANCH   6  14
ENDBRANCH   5   7
ENDBRANCH   1   5
BRANCH   2  19
ATOM     19  C   UNL     1      -8.295   2.339  -1.868  0.00  0.00    +0.328 C 
BRANCH  19  20
ATOM     20  O   UNL     1      -9.564   3.025  -2.038  0.00  0.00    -0.452 OA
BRANCH  20  21
ATOM     21  C   UNL     1     -10.602   2.289  -2.482  0.00  0.00    +0.340 C 
ATOM     22  O   UNL     1     -10.452   1.107  -2.720  0.00  0.00    -0.245 OA
BRANCH  21  23
ATOM     23  C   UNL     1     -11.920   2.918  -2.677  0.00  0.00    +0.061 A 
ATOM     24  C   UNL     1     -12.094   4.277  -2.397  0.00  0.00    +0.016 A 
ATOM     25  C   UNL     1     -13.325   4.863  -2.587  0.00  0.00    +0.017 A 
ATOM     26  C   UNL     1     -14.394   4.104  -3.046  0.00  0.00    +0.030 A 
ATOM     27  C   UNL     1     -14.237   2.742  -3.324  0.00  0.00    +0.048 A 
ATOM     28  C   UNL     1     -12.996   2.154  -3.137  0.00  0.00    +0.039 A 
ATOM     29  N   UNL     1     -15.299   1.964  -3.779  0.00  0.00    -0.284 N 
ATOM     30  C   UNL     1     -16.401   2.409  -4.376  0.00  0.00    +0.230 C 
ATOM     31  O   UNL     1     -17.233   1.597  -4.722  0.00  0.00    -0.274 OA
ATOM     32  C   UNL     1     -16.674   3.863  -4.646  0.00  0.00    +0.134 C 
ATOM     33  S   UNL     1     -15.974   4.852  -3.290  0.00  0.00    -0.111 S 
ATOM     34  C   UNL     1     -18.184   4.096  -4.725  0.00  0.00    +0.029 C 
ATOM     35  H   UNL     1     -15.228   1.006  -3.647  0.00  0.00    +0.155 HD
ENDBRANCH  21  23
ENDBRANCH  20  21
ENDBRANCH  19  20
ENDBRANCH   2  19
TORSDOF 7
