REMARK  Name = ZINC07840519
REMARK  11 active torsions:
REMARK  status: ('A' for Active; 'I' for Inactive)
REMARK    1  A    between atoms: C_1  and  C_2
REMARK    2  A    between atoms: C_3  and  C_25
REMARK    3  A    between atoms: C_7  and  C_12
REMARK    4  A    between atoms: C_12  and  O_14
REMARK    5  A    between atoms: O_14  and  C_15
REMARK    6  A    between atoms: C_15  and  C_17
REMARK    7  A    between atoms: C_15  and  C_18
REMARK    8  A    between atoms: N_20  and  C_21
REMARK    9  A    between atoms: C_21  and  C_22
REMARK   10  A    between atoms: C_22  and  C_23
REMARK   11  A    between atoms: C_22  and  C_24
REMARK                            x       y       z     vdW  Elec       q    Type
REMARK                         _______ _______ _______ _____ _____    ______ ____
ROOT
ATOM      1  C   UNL     1      -3.030   1.843   0.690  0.00  0.00    +0.340 C 
ATOM      2  O   UNL     1      -2.720   2.903   0.183  0.00  0.00    -0.245 OA
ENDROOT
BRANCH   1   9
ATOM      3  C   UNL     1     -10.701   0.385   0.013  0.00  0.00    +0.067 C 
ATOM      4  C   UNL     1      -9.269   0.852   0.037  0.00  0.00    +0.060 A 
ATOM      5  C   UNL     1      -8.930   2.074  -0.551  0.00  0.00    +0.060 A 
ATOM      6  N   UNL     1      -7.688   2.499  -0.543  0.00  0.00    -0.249 NA
ATOM      7  C   UNL     1      -6.736   1.757   0.035  0.00  0.00    +0.090 A 
ATOM      8  C   UNL     1      -5.399   2.188   0.058  0.00  0.00    +0.044 A 
ATOM      9  C   UNL     1      -4.438   1.396   0.662  0.00  0.00    +0.061 A 
ATOM     10  C   UNL     1      -4.791   0.165   1.246  0.00  0.00    +0.017 A 
ATOM     11  C   UNL     1      -6.078  -0.264   1.238  0.00  0.00    +0.031 A 
ATOM     12  C   UNL     1      -7.079   0.517   0.631  0.00  0.00    +0.090 A 
ATOM     13  N   UNL     1      -8.352   0.105   0.609  0.00  0.00    -0.249 NA
ATOM     14  C   UNL     1     -10.001   2.911  -1.201  0.00  0.00    +0.067 C 
ENDBRANCH   1   9
BRANCH   1  15
ATOM     15  O   UNL     1      -2.091   1.077   1.277  0.00  0.00    -0.449 OA
BRANCH  15  16
ATOM     16  C   UNL     1      -0.729   1.579   1.267  0.00  0.00    +0.259 C 
ATOM     17  C   UNL     1      -0.013   1.086   0.008  0.00  0.00    +0.062 C 
BRANCH  16  18
ATOM     18  C   UNL     1       0.000   1.080   2.488  0.00  0.00    +0.254 C 
ATOM     19  O   UNL     1      -0.542   0.298   3.240  0.00  0.00    -0.272 OA
ATOM     20  N   UNL     1       1.254   1.502   2.743  0.00  0.00    -0.312 N 
ATOM     21  H   UNL     1       1.688   2.127   2.142  0.00  0.00    +0.149 HD
BRANCH  20  22
ATOM     22  C   UNL     1       1.963   1.017   3.930  0.00  0.00    +0.107 C 
BRANCH  22  23
ATOM     23  C   UNL     1       3.357   1.646   3.985  0.00  0.00    -0.000 C 
ATOM     24  C   UNL     1       3.227   3.158   4.181  0.00  0.00    +0.009 C 
ATOM     25  C   UNL     1       4.141   1.045   5.153  0.00  0.00    +0.009 C 
ENDBRANCH  22  23
ENDBRANCH  20  22
ENDBRANCH  16  18
ENDBRANCH  15  16
ENDBRANCH   1  15
TORSDOF 6
