REMARK  Name = ZINC51087735
REMARK  7 active torsions:
REMARK  status: ('A' for Active; 'I' for Inactive)
REMARK    1  A    between atoms: C_1  and  C_2
REMARK    2  A    between atoms: C_2  and  C_4
REMARK    3  A    between atoms: C_2  and  C_21
REMARK    4  A    between atoms: C_4  and  N_5
REMARK    5  A    between atoms: N_5  and  C_6
REMARK    6  A    between atoms: N_9  and  C_10
REMARK    7  A    between atoms: C_10  and  C_11
REMARK                            x       y       z     vdW  Elec       q    Type
REMARK                         _______ _______ _______ _____ _____    ______ ____
ROOT
ATOM      1  N   UNL     1      -2.082  -0.162   1.273  0.00  0.00    -0.288 N 
ATOM      2  C   UNL     1      -2.809   1.106   1.376  0.00  0.00    +0.133 C 
ATOM      3  C   UNL     1      -2.009  -0.986   2.337  0.00  0.00    +0.302 C 
ATOM      4  O   UNL     1      -1.405  -2.038   2.251  0.00  0.00    -0.253 OA
ATOM      5  N   UNL     1      -2.605  -0.644   3.496  0.00  0.00    -0.296 N 
ATOM      6  H   UNL     1      -3.087   0.196   3.565  0.00  0.00    +0.150 HD
ENDROOT
BRANCH   1   7
ATOM      7  C   UNL     1      -1.433  -0.534   0.013  0.00  0.00    +0.123 C 
BRANCH   7   9
ATOM      8  C   UNL     1      -0.019   1.526   0.010  0.00  0.00    +0.021 C 
ATOM      9  C   UNL     1       0.002  -0.004   0.002  0.00  0.00    +0.116 C 
BRANCH   9  10
ATOM     10  C   UNL     1       0.707  -0.490  -1.238  0.00  0.00    +0.360 C 
ATOM     11  O   UNL     1       1.869  -0.179  -1.440  0.00  0.00    -0.246 OA
ATOM     12  O   UNL     1       0.117  -1.195  -2.039  0.00  0.00    -0.246 OA
ENDBRANCH   9  10
ENDBRANCH   7   9
ENDBRANCH   1   7
BRANCH   5  13
ATOM     13  C   UNL     1      -2.526  -1.539   4.653  0.00  0.00    +0.150 C 
BRANCH  13  14
ATOM     14  C   UNL     1      -3.281  -0.919   5.831  0.00  0.00    +0.195 C 
ATOM     15  C   UNL     1      -3.164  -1.813   7.088  0.00  0.00    +0.085 C 
ATOM     16  C   UNL     1      -4.533  -1.647   7.719  0.00  0.00    -0.002 A 
ATOM     17  C   UNL     1      -5.013  -1.938   8.977  0.00  0.00    +0.007 A 
ATOM     18  C   UNL     1      -6.333  -1.671   9.292  0.00  0.00    +0.000 A 
ATOM     19  C   UNL     1      -7.166  -1.112   8.340  0.00  0.00    +0.004 A 
ATOM     20  C   UNL     1      -6.689  -0.824   7.079  0.00  0.00    +0.046 A 
ATOM     21  C   UNL     1      -5.362  -1.092   6.752  0.00  0.00    +0.124 A 
ATOM     22  O   UNL     1      -4.696  -0.903   5.577  0.00  0.00    -0.487 OA
ENDBRANCH  13  14
ENDBRANCH   5  13
TORSDOF 5
