REMARK  Name = ZINC35544698
REMARK  9 active torsions:
REMARK  status: ('A' for Active; 'I' for Inactive)
REMARK    1  A    between atoms: C_1  and  C_2
REMARK    2  A    between atoms: C_2  and  C_3
REMARK    3  A    between atoms: C_2  and  N_4
REMARK    4  A    between atoms: C_5  and  C_7
REMARK    5  A    between atoms: C_7  and  N_8
REMARK    6  A    between atoms: C_15  and  N_35
REMARK    7  A    between atoms: C_19  and  C_24
REMARK    8  A    between atoms: N_26  and  C_27
REMARK    9  A    between atoms: C_27  and  C_28
REMARK                            x       y       z     vdW  Elec       q    Type
REMARK                         _______ _______ _______ _____ _____    ______ ____
ROOT
ATOM      1  N   UNL     1      -3.087  -3.600  -1.067  0.00  0.00    +0.388 N 
ATOM      2  C   UNL     1      -2.728  -3.519  -2.490  0.00  0.00    -0.059 C 
ATOM      3  C   UNL     1      -2.549  -4.938  -3.024  0.00  0.00    +0.087 C 
ATOM      4  N   UNL     1      -3.728  -5.754  -2.721  0.00  0.00    -0.329 N 
ATOM      5  C   UNL     1      -4.064  -6.768  -3.631  0.00  0.00    +0.033 A 
ATOM      6  C   UNL     1      -3.242  -6.973  -4.735  0.00  0.00    +0.025 A 
ATOM      7  C   UNL     1      -3.544  -7.965  -5.646  0.00  0.00    +0.034 A 
ATOM      8  C   UNL     1      -4.663  -8.757  -5.460  0.00  0.00    +0.127 A 
ATOM      9  C   UNL     1      -5.482  -8.554  -4.366  0.00  0.00    +0.038 A 
ATOM     10  C   UNL     1      -5.186  -7.559  -3.451  0.00  0.00    -0.023 A 
ATOM     11  C   UNL     1      -6.099  -7.348  -2.272  0.00  0.00    +0.051 C 
ATOM     12  C   UNL     1      -5.989  -5.899  -1.796  0.00  0.00    +0.098 C 
ATOM     13  C   UNL     1      -4.519  -5.565  -1.514  0.00  0.00    +0.069 C 
ATOM     14  C   UNL     1      -4.435  -4.156  -0.950  0.00  0.00    -0.055 C 
ATOM     15  H   UNL     1      -2.433  -4.197  -0.584  0.00  0.00    -0.081 HD
ENDROOT
BRANCH  12  16
ATOM     16  C   UNL     1      -6.518  -4.978  -2.864  0.00  0.00    +0.218 C 
ATOM     17  O   UNL     1      -5.794  -4.136  -3.353  0.00  0.00    -0.275 OA
ATOM     18  N   UNL     1      -7.797  -5.089  -3.276  0.00  0.00    -0.311 N 
ATOM     19  H   UNL     1      -8.376  -5.762  -2.885  0.00  0.00    +0.149 HD
BRANCH  18  20
ATOM     20  C   UNL     1      -8.312  -4.193  -4.315  0.00  0.00    +0.142 C 
BRANCH  20  21
ATOM     21  C   UNL     1      -9.756  -4.522  -4.591  0.00  0.00    +0.005 A 
ATOM     22  C   UNL     1     -10.091  -5.296  -5.687  0.00  0.00    +0.008 A 
ATOM     23  C   UNL     1     -11.416  -5.598  -5.941  0.00  0.00    +0.000 A 
ATOM     24  C   UNL     1     -12.407  -5.127  -5.099  0.00  0.00    +0.003 A 
ATOM     25  C   UNL     1     -12.074  -4.354  -4.004  0.00  0.00    +0.038 A 
ATOM     26  C   UNL     1     -10.747  -4.055  -3.745  0.00  0.00    +0.128 A 
ATOM     27  F   UNL     1     -10.420  -3.303  -2.672  0.00  0.00    -0.205 F 
ENDBRANCH  20  21
ENDBRANCH  18  20
ENDBRANCH  12  16
BRANCH   8  28
ATOM     28  N   UNL     1      -4.984  -9.823  -6.436  0.00  0.00    +0.056 N 
ATOM     29  O   UNL     1      -4.268 -10.001  -7.394  0.00  0.00    -0.126 OA
ATOM     30  O   UNL     1      -5.962 -10.515  -6.275  0.00  0.00    -0.126 OA
ENDBRANCH   8  28
BRANCH   1  31
ATOM     31  C   UNL     1      -3.057  -2.256  -0.474  0.00  0.00    +0.019 C 
BRANCH  31  33
ATOM     32  N   UNL     1      -1.372  -0.511   0.012  0.00  0.00    -0.315 N 
ATOM     33  C   UNL     1      -1.643  -1.734  -0.485  0.00  0.00    +0.197 C 
ATOM     34  O   UNL     1      -0.749  -2.415  -0.941  0.00  0.00    -0.278 OA
ATOM     35  H   UNL     1      -2.087   0.033   0.377  0.00  0.00    +0.149 HD
BRANCH  32  37
ATOM     36  C   UNL     1      -0.019   1.526   0.010  0.00  0.00    +0.027 C 
ATOM     37  C   UNL     1       0.002  -0.004   0.002  0.00  0.00    +0.067 C 
ATOM     38  C   UNL     1       0.742  -0.511   1.242  0.00  0.00    +0.027 C 
ENDBRANCH  32  37
ENDBRANCH  31  33
ENDBRANCH   1  31
TORSDOF 7
