REMARK  Name = ZINC09727562
REMARK  7 active torsions:
REMARK  status: ('A' for Active; 'I' for Inactive)
REMARK    1  A    between atoms: C_1  and  C_2
REMARK    2  A    between atoms: C_4  and  C_32
REMARK    3  A    between atoms: C_5  and  C_9
REMARK    4  A    between atoms: C_7  and  C_8
REMARK    5  A    between atoms: C_15  and  C_17
REMARK    6  A    between atoms: C_17  and  N_18
REMARK    7  A    between atoms: C_26  and  C_28
REMARK                            x       y       z     vdW  Elec       q    Type
REMARK                         _______ _______ _______ _____ _____    ______ ____
ROOT
ATOM      1  C   UNL     1      -0.881   2.023   5.780  0.00  0.00    +0.080 A 
ATOM      2  C   UNL     1      -1.797   2.927   5.319  0.00  0.00    +0.076 A 
ATOM      3  S   UNL     1      -1.503   2.827   3.558  0.00  0.00    -0.060 S 
ATOM      4  C   UNL     1      -0.209   1.595   3.618  0.00  0.00    +0.165 A 
ATOM      5  N   UNL     1      -0.111   1.380   4.916  0.00  0.00    -0.225 NA
ATOM      6  N   UNL     1       0.506   1.021   2.574  0.00  0.00    -0.263 N 
ATOM      7  C   UNL     1       0.249   1.383   1.301  0.00  0.00    +0.237 C 
ATOM      8  O   UNL     1      -0.607   2.209   1.067  0.00  0.00    -0.274 OA
ATOM      9  H   UNL     1       1.191   0.360   2.761  0.00  0.00    +0.157 HD
ENDROOT
BRANCH   1  14
ATOM     10  C   UNL     1      -0.379   1.019  11.429  0.00  0.00    +0.044 C 
ATOM     11  C   UNL     1      -0.510   1.281   9.951  0.00  0.00    -0.047 A 
ATOM     12  C   UNL     1      -0.590   0.220   9.066  0.00  0.00    +0.007 A 
ATOM     13  C   UNL     1      -0.710   0.455   7.712  0.00  0.00    -0.041 A 
ATOM     14  C   UNL     1      -0.751   1.764   7.235  0.00  0.00    +0.004 A 
ATOM     15  C   UNL     1      -0.665   2.829   8.130  0.00  0.00    +0.014 A 
ATOM     16  C   UNL     1      -0.550   2.583   9.483  0.00  0.00    -0.047 A 
ATOM     17  C   UNL     1      -0.462   3.733  10.452  0.00  0.00    +0.044 C 
ATOM     18  C   UNL     1      -0.797  -0.702   6.750  0.00  0.00    +0.044 C 
ENDBRANCH   1  14
BRANCH   7  19
ATOM     19  C   UNL     1       1.026   0.760   0.170  0.00  0.00    +0.214 C 
BRANCH  19  20
ATOM     20  N   UNL     1       0.562   1.316  -1.104  0.00  0.00    -0.215 N 
ATOM     21  C   UNL     1       1.085   2.415  -1.687  0.00  0.00    +0.247 C 
ATOM     22  O   UNL     1       1.993   3.104  -1.273  0.00  0.00    -0.273 OA
ATOM     23  C   UNL     1       0.301   2.606  -2.965  0.00  0.00    +0.115 C 
ATOM     24  C   UNL     1       1.225   2.509  -4.174  0.00  0.00    +0.035 C 
ATOM     25  C   UNL     1       0.409   2.676  -5.458  0.00  0.00    +0.003 C 
ATOM     26  C   UNL     1      -0.295   4.035  -5.440  0.00  0.00    +0.000 C 
ATOM     27  C   UNL     1      -1.236   4.107  -4.236  0.00  0.00    +0.006 C 
ATOM     28  C   UNL     1      -0.427   3.945  -2.947  0.00  0.00    +0.018 C 
ATOM     29  C   UNL     1      -1.370   3.996  -1.743  0.00  0.00    +0.010 C 
ATOM     30  N   UNL     1      -0.661   1.496  -2.962  0.00  0.00    -0.285 N 
ATOM     31  C   UNL     1      -0.428   0.793  -1.837  0.00  0.00    +0.310 C 
ATOM     32  O   UNL     1      -1.050  -0.203  -1.522  0.00  0.00    -0.252 OA
ATOM     33  H   UNL     1      -1.330   1.306  -3.638  0.00  0.00    +0.151 HD
ENDBRANCH  19  20
ENDBRANCH   7  19
TORSDOF 3
