REMARK  Name = ZINC35449435
REMARK  11 active torsions:
REMARK  status: ('A' for Active; 'I' for Inactive)
REMARK    1  A    between atoms: C_1  and  C_2
REMARK    2  A    between atoms: C_2  and  C_3
REMARK    3  A    between atoms: C_3  and  C_4
REMARK    4  A    between atoms: C_4  and  S_5
REMARK    5  A    between atoms: S_5  and  C_6
REMARK    6  A    between atoms: C_13  and  C_23
REMARK    7  A    between atoms: C_26  and  O_31
REMARK    8  A    between atoms: C_27  and  O_29
REMARK    9  A    between atoms: O_29  and  C_30
REMARK   10  A    between atoms: O_31  and  C_32
REMARK   11  A    between atoms: C_32  and  C_33
REMARK                            x       y       z     vdW  Elec       q    Type
REMARK                         _______ _______ _______ _____ _____    ______ ____
ROOT
ATOM      1  C   UNL     1       1.579  -4.396   2.548  0.00  0.00    +0.171 A 
ATOM      2  N   UNL     1       0.978  -4.931   1.505  0.00  0.00    -0.208 NA
ATOM      3  C   UNL     1       0.910  -6.258   1.353  0.00  0.00    +0.135 A 
ATOM      4  C   UNL     1       1.475  -7.090   2.304  0.00  0.00    +0.069 A 
ATOM      5  C   UNL     1       2.113  -6.516   3.410  0.00  0.00    +0.258 A 
ATOM      6  O   UNL     1       2.625  -7.219   4.266  0.00  0.00    -0.267 OA
ATOM      7  N   UNL     1       2.158  -5.170   3.508  0.00  0.00    -0.302 N 
ATOM      8  C   UNL     1       1.403  -8.581   2.159  0.00  0.00    +0.093 C 
ATOM      9  C   UNL     1       1.074  -8.979   0.743  0.00  0.00    +0.024 C 
ATOM     10  C   UNL     1       0.534  -8.097  -0.124  0.00  0.00    +0.017 C 
ATOM     11  N   UNL     1       0.282  -6.806   0.252  0.00  0.00    -0.302 N 
ATOM     12  C   UNL     1       0.186  -8.508  -1.534  0.00  0.00    +0.051 C 
ATOM     13  C   UNL     1       1.155  -9.593  -2.008  0.00  0.00    +0.014 C 
ATOM     14  C   UNL     1       1.062 -10.780  -1.044  0.00  0.00    +0.080 C 
ATOM     15  C   UNL     1       1.350 -10.302   0.352  0.00  0.00    +0.162 C 
ATOM     16  O   UNL     1       1.830 -11.073   1.159  0.00  0.00    -0.292 OA
ATOM     17  H   UNL     1      -0.343  -6.270  -0.261  0.00  0.00    +0.153 HD
ATOM     18  H   UNL     1       2.599  -4.755   4.264  0.00  0.00    +0.171 HD
ENDROOT
BRANCH   8  19
ATOM     19  C   UNL     1       0.338  -9.115   3.081  0.00  0.00    -0.032 A 
ATOM     20  C   UNL     1      -0.973  -8.700   2.934  0.00  0.00    +0.008 A 
ATOM     21  C   UNL     1      -1.954  -9.188   3.777  0.00  0.00    +0.050 A 
ATOM     22  C   UNL     1      -1.625 -10.094   4.772  0.00  0.00    +0.162 A 
ATOM     23  C   UNL     1      -0.306 -10.512   4.920  0.00  0.00    +0.162 A 
ATOM     24  C   UNL     1       0.672 -10.024   4.068  0.00  0.00    +0.054 A 
BRANCH  23  25
ATOM     25  O   UNL     1       0.022 -11.402   5.895  0.00  0.00    -0.491 OA
ATOM     26  C   UNL     1       1.395 -11.786   5.987  0.00  0.00    +0.277 C 
ENDBRANCH  23  25
BRANCH  22  27
ATOM     27  O   UNL     1      -2.589 -10.574   5.602  0.00  0.00    -0.489 OA
BRANCH  27  28
ATOM     28  C   UNL     1      -3.921 -10.101   5.392  0.00  0.00    +0.226 C 
ATOM     29  C   UNL     1      -4.859 -10.747   6.414  0.00  0.00    +0.048 C 
ENDBRANCH  27  28
ENDBRANCH  22  27
ENDBRANCH   8  19
BRANCH   1  30
ATOM     30  S   UNL     1       1.640  -2.642   2.703  0.00  0.00    -0.088 S 
BRANCH  30  31
ATOM     31  C   UNL     1       0.763  -2.041   1.233  0.00  0.00    +0.077 C 
BRANCH  31  32
ATOM     32  C   UNL     1       0.742  -0.511   1.242  0.00  0.00    +0.011 C 
BRANCH  32  34
ATOM     33  C   UNL     1      -0.019   1.526   0.010  0.00  0.00    +0.004 C 
ATOM     34  C   UNL     1       0.002  -0.004   0.002  0.00  0.00    -0.003 C 
ENDBRANCH  32  34
ENDBRANCH  31  32
ENDBRANCH  30  31
ENDBRANCH   1  30
TORSDOF 8
