REMARK  Name = ZINC32729350
REMARK  14 active torsions:
REMARK  status: ('A' for Active; 'I' for Inactive)
REMARK    1  A    between atoms: C_1  and  C_2
REMARK    2  A    between atoms: C_2  and  N_3
REMARK    3  A    between atoms: N_3  and  C_4
REMARK    4  A    between atoms: N_3  and  S_6
REMARK    5  A    between atoms: C_4  and  C_5
REMARK    6  A    between atoms: S_6  and  C_9
REMARK    7  A    between atoms: C_12  and  N_31
REMARK    8  A    between atoms: C_13  and  C_15
REMARK    9  A    between atoms: N_17  and  C_18
REMARK   10  A    between atoms: C_18  and  C_19
REMARK   11  A    between atoms: C_19  and  C_21
REMARK   12  A    between atoms: C_19  and  N_28
REMARK   13  A    between atoms: N_28  and  C_29
REMARK   14  A    between atoms: N_28  and  C_30
REMARK                            x       y       z     vdW  Elec       q    Type
REMARK                         _______ _______ _______ _____ _____    ______ ____
ROOT
ATOM      1  C   UNL     1       6.205   8.030  -2.809  0.00  0.00    +0.106 A 
ATOM      2  C   UNL     1       6.417   8.338  -4.144  0.00  0.00    +0.030 A 
ATOM      3  C   UNL     1       5.585   7.829  -5.119  0.00  0.00    +0.026 A 
ATOM      4  C   UNL     1       4.530   6.996  -4.769  0.00  0.00    +0.042 A 
ATOM      5  C   UNL     1       4.309   6.686  -3.418  0.00  0.00    +0.060 A 
ATOM      6  C   UNL     1       5.160   7.210  -2.442  0.00  0.00    +0.043 A 
ENDROOT
BRANCH   4   7
ATOM      7  N   UNL     1       3.695   6.477  -5.749  0.00  0.00    -0.329 N 
ATOM      8  C   UNL     1       3.106   7.562  -6.576  0.00  0.00    +0.105 C 
ATOM      9  C   UNL     1       2.675   6.827  -7.870  0.00  0.00    +0.020 C 
ATOM     10  C   UNL     1       3.809   5.798  -8.078  0.00  0.00    +0.020 C 
ATOM     11  C   UNL     1       4.449   5.619  -6.688  0.00  0.00    +0.105 C 
ENDBRANCH   4   7
BRANCH   5  12
ATOM     12  C   UNL     1       3.189   5.808  -3.031  0.00  0.00    +0.246 C 
ATOM     13  O   UNL     1       2.510   5.276  -3.889  0.00  0.00    -0.270 OA
ATOM     14  N   UNL     1       2.919   5.595  -1.728  0.00  0.00    -0.313 N 
ATOM     15  H   UNL     1       3.533   6.075  -0.953  0.00  0.00    +0.149 HD
BRANCH  14  16
ATOM     16  C   UNL     1       1.806   4.722  -1.345  0.00  0.00    +0.094 C 
BRANCH  16  17
ATOM     17  C   UNL     1       1.787   4.559   0.176  0.00  0.00    -0.021 C 
BRANCH  17  18
ATOM     18  C   UNL     1       0.613   3.703   0.575  0.00  0.00    -0.057 A 
ATOM     19  C   UNL     1       0.824   2.438   1.093  0.00  0.00    +0.002 A 
ATOM     20  C   UNL     1      -0.252   1.651   1.459  0.00  0.00    +0.003 A 
ATOM     21  C   UNL     1      -1.540   2.126   1.302  0.00  0.00    +0.038 A 
ATOM     22  C   UNL     1      -1.753   3.394   0.789  0.00  0.00    +0.124 A 
ATOM     23  C   UNL     1      -0.674   4.181   0.423  0.00  0.00    +0.040 A 
ATOM     24  F   UNL     1      -3.012   3.860   0.640  0.00  0.00    -0.205 F 
ENDBRANCH  17  18
BRANCH  17  25
ATOM     25  N   UNL     1       1.667   5.880   0.808  0.00  0.00    +0.382 N 
ATOM     26  C   UNL     1       0.973   6.826  -0.076  0.00  0.00    -0.096 C 
ATOM     27  C   UNL     1       0.989   5.782   2.108  0.00  0.00    -0.096 C 
ATOM     28  H   UNL     1       2.682   6.264   0.985  0.00  0.00    -0.082 HD
ENDBRANCH  17  25
ENDBRANCH  16  17
ENDBRANCH  14  16
ENDBRANCH   5  12
BRANCH   1  29
ATOM     29  S   UNL     1       7.276   8.690  -1.576  0.00  0.00    +0.061 S 
ATOM     30  O   UNL     1       7.850   9.868  -2.125  0.00  0.00    -0.153 OA
ATOM     31  O   UNL     1       6.541   8.695  -0.360  0.00  0.00    -0.153 OA
BRANCH  29  32
ATOM     32  N   UNL     1       8.515   7.610  -1.375  0.00  0.00    -0.177 NA
BRANCH  32  34
ATOM     33  C   UNL     1      10.783   8.524  -1.410  0.00  0.00    +0.022 C 
ATOM     34  C   UNL     1       9.730   7.730  -2.185  0.00  0.00    +0.106 C 
ENDBRANCH  32  34
BRANCH  32  35
ATOM     35  C   UNL     1       8.397   6.535  -0.387  0.00  0.00    +0.106 C 
ATOM     36  C   UNL     1       7.888   5.265  -1.073  0.00  0.00    +0.022 C 
ENDBRANCH  32  35
ENDBRANCH  29  32
ENDBRANCH   1  29
TORSDOF 10
