REMARK  Name = ZINC22589121
REMARK  16 active torsions:
REMARK  status: ('A' for Active; 'I' for Inactive)
REMARK    1  A    between atoms: C_1  and  C_2
REMARK    2  A    between atoms: C_2  and  C_3
REMARK    3  A    between atoms: C_8  and  O_9
REMARK    4  A    between atoms: O_9  and  C_10
REMARK    5  A    between atoms: C_10  and  C_12
REMARK    6  A    between atoms: C_10  and  C_13
REMARK    7  A    between atoms: N_15  and  C_16
REMARK    8  A    between atoms: C_16  and  C_18
REMARK    9  A    between atoms: C_16  and  C_23
REMARK   10  A    between atoms: C_18  and  C_19
REMARK   11  A    between atoms: C_19  and  O_21
REMARK   12  A    between atoms: O_21  and  C_22
REMARK   13  A    between atoms: C_23  and  O_25
REMARK   14  A    between atoms: O_25  and  C_26
REMARK   15  A    between atoms: C_29  and  C_32
REMARK   16  A    between atoms: C_34  and  C_37
REMARK                            x       y       z     vdW  Elec       q    Type
REMARK                         _______ _______ _______ _____ _____    ______ ____
ROOT
ATOM      1  C   UNL     1      -0.007   1.519   0.228  0.00  0.00    -0.005 A 
ATOM      2  C   UNL     1      -1.201   2.182   0.236  0.00  0.00    +0.022 A 
ATOM      3  C   UNL     1      -1.229   3.561   0.025  0.00  0.00    +0.065 A 
ATOM      4  C   UNL     1      -0.037   4.270  -0.207  0.00  0.00    +0.142 A 
ATOM      5  C   UNL     1       1.168   3.580  -0.218  0.00  0.00    +0.093 A 
ATOM      6  C   UNL     1       1.180   2.212  -0.001  0.00  0.00    +0.128 A 
ATOM      7  O   UNL     1      -0.066   5.601  -0.416  0.00  0.00    -0.462 OA
ATOM      8  C   UNL     1      -1.191   6.319  -0.417  0.00  0.00    +0.210 A 
ATOM      9  C   UNL     1      -2.415   5.762  -0.206  0.00  0.00    +0.089 A 
ATOM     10  C   UNL     1      -2.499   4.309   0.033  0.00  0.00    +0.202 A 
ATOM     11  O   UNL     1      -3.567   3.755   0.229  0.00  0.00    -0.286 OA
ENDROOT
BRANCH   9  12
ATOM     12  C   UNL     1      -3.634   6.596  -0.217  0.00  0.00    +0.115 A 
ATOM     13  N   UNL     1      -3.759   7.902  -0.407  0.00  0.00    -0.244 NA
ATOM     14  C   UNL     1      -4.937   8.484  -0.388  0.00  0.00    +0.046 A 
ATOM     15  C   UNL     1      -6.053   7.745  -0.158  0.00  0.00    +0.070 A 
ATOM     16  S   UNL     1      -5.339   6.116   0.030  0.00  0.00    -0.075 S 
ATOM     17  C   UNL     1      -5.049   9.970  -0.613  0.00  0.00    +0.066 C 
ENDBRANCH   9  12
BRANCH   1  19
ATOM     18  C   UNL     1       0.304  -0.248   1.939  0.00  0.00    +0.009 C 
ATOM     19  C   UNL     1       0.027   0.031   0.460  0.00  0.00    +0.035 C 
ENDBRANCH   1  19
BRANCH   6  20
ATOM     20  O   UNL     1       2.360   1.540  -0.012  0.00  0.00    -0.480 OA
BRANCH  20  21
ATOM     21  C   UNL     1       3.550   2.322  -0.130  0.00  0.00    +0.255 C 
ATOM     22  C   UNL     1       3.830   2.603  -1.608  0.00  0.00    +0.062 C 
BRANCH  21  23
ATOM     23  C   UNL     1       4.709   1.565   0.465  0.00  0.00    +0.254 C 
ATOM     24  O   UNL     1       4.552   0.429   0.862  0.00  0.00    -0.272 OA
ATOM     25  N   UNL     1       5.920   2.149   0.557  0.00  0.00    -0.299 N 
ATOM     26  H   UNL     1       6.062   3.179   0.197  0.00  0.00    +0.150 HD
BRANCH  25  27
ATOM     27  C   UNL     1       7.047   1.413   1.136  0.00  0.00    +0.193 C 
BRANCH  27  28
ATOM     28  C   UNL     1       7.696   0.569   0.070  0.00  0.00    +0.328 C 
ATOM     29  O   UNL     1       7.262   0.580  -1.057  0.00  0.00    -0.249 OA
BRANCH  28  30
ATOM     30  O   UNL     1       8.756  -0.196   0.373  0.00  0.00    -0.467 OA
ATOM     31  C   UNL     1       9.330  -0.984  -0.703  0.00  0.00    +0.280 C 
ENDBRANCH  28  30
ENDBRANCH  27  28
BRANCH  27  32
ATOM     32  C   UNL     1       8.070   2.404   1.695  0.00  0.00    +0.154 C 
BRANCH  32  33
ATOM     33  C   UNL     1       7.458   3.164   2.843  0.00  0.00    +0.309 C 
ATOM     34  O   UNL     1       6.320   2.937   3.180  0.00  0.00    -0.251 OA
BRANCH  33  35
ATOM     35  O   UNL     1       8.177   4.094   3.492  0.00  0.00    -0.468 OA
ATOM     36  C   UNL     1       7.523   4.787   4.588  0.00  0.00    +0.280 C 
ENDBRANCH  33  35
ENDBRANCH  32  33
ENDBRANCH  27  32
ENDBRANCH  25  27
ENDBRANCH  21  23
ENDBRANCH  20  21
ENDBRANCH   6  20
TORSDOF 11
