REMARK  Name = ZINC40038370
REMARK  9 active torsions:
REMARK  status: ('A' for Active; 'I' for Inactive)
REMARK    1  A    between atoms: C_1  and  C_2
REMARK    2  A    between atoms: C_2  and  O_3
REMARK    3  A    between atoms: O_3  and  C_4
REMARK    4  A    between atoms: C_4  and  C_6
REMARK    5  A    between atoms: C_10  and  N_11
REMARK    6  A    between atoms: C_12  and  C_14
REMARK    7  A    between atoms: C_15  and  C_25
REMARK    8  A    between atoms: C_17  and  C_24
REMARK    9  A    between atoms: C_19  and  C_23
REMARK                            x       y       z     vdW  Elec       q    Type
REMARK                         _______ _______ _______ _____ _____    ______ ____
ROOT
ATOM      1  N   UNL     1       3.705  -2.762   1.257  0.00  0.00    -0.273 N 
ATOM      2  C   UNL     1       4.997  -3.125   1.377  0.00  0.00    +0.284 C 
ATOM      3  O   UNL     1       5.389  -3.652   2.401  0.00  0.00    -0.266 OA
ATOM      4  H   UNL     1       3.393  -2.341   0.441  0.00  0.00    +0.156 HD
ENDROOT
BRANCH   2   5
ATOM      5  C   UNL     1       5.934  -2.883   0.271  0.00  0.00    +0.194 A 
ATOM      6  C   UNL     1       7.252  -3.210   0.277  0.00  0.00    +0.008 A 
ATOM      7  C   UNL     1       7.780  -2.786  -1.019  0.00  0.00    +0.027 A 
ATOM      8  C   UNL     1       9.040  -2.838  -1.621  0.00  0.00    -0.039 A 
ATOM      9  C   UNL     1       9.208  -2.340  -2.883  0.00  0.00    +0.007 A 
ATOM     10  C   UNL     1       8.137  -1.783  -3.568  0.00  0.00    -0.047 A 
ATOM     11  C   UNL     1       6.887  -1.722  -2.992  0.00  0.00    +0.050 A 
ATOM     12  C   UNL     1       6.691  -2.223  -1.710  0.00  0.00    +0.137 A 
ATOM     13  O   UNL     1       5.612  -2.307  -0.907  0.00  0.00    -0.450 OA
ATOM     14  C   UNL     1       8.344  -1.239  -4.958  0.00  0.00    +0.044 C 
ATOM     15  C   UNL     1      10.208  -3.440  -0.883  0.00  0.00    +0.044 C 
ATOM     16  C   UNL     1       8.016  -3.874   1.393  0.00  0.00    +0.048 C 
ENDBRANCH   2   5
BRANCH   1  21
ATOM     17  C   UNL     1       1.473  -2.687   2.354  0.00  0.00    +0.091 A 
ATOM     18  C   UNL     1       0.758  -3.039   3.580  0.00  0.00    -0.021 A 
ATOM     19  C   UNL     1       1.528  -3.619   4.517  0.00  0.00    -0.004 A 
ATOM     20  S   UNL     1       3.144  -3.694   3.788  0.00  0.00    -0.077 S 
ATOM     21  C   UNL     1       2.823  -2.990   2.300  0.00  0.00    +0.087 A 
ATOM     22  C   UNL     1       0.744  -3.957   5.757  0.00  0.00    +0.043 C 
ATOM     23  C   UNL     1      -0.548  -3.118   5.642  0.00  0.00    +0.010 C 
ATOM     24  C   UNL     1      -0.669  -2.933   4.116  0.00  0.00    +0.037 C 
BRANCH  17  25
ATOM     25  C   UNL     1       0.789  -2.046   1.229  0.00  0.00    +0.342 C 
ATOM     26  O   UNL     1       0.277  -2.728   0.361  0.00  0.00    -0.245 OA
BRANCH  25  27
ATOM     27  O   UNL     1       0.727  -0.701   1.155  0.00  0.00    -0.461 OA
BRANCH  27  29
ATOM     28  C   UNL     1       0.078   1.383   0.119  0.00  0.00    +0.048 C 
ATOM     29  C   UNL     1       0.044  -0.144   0.030  0.00  0.00    +0.229 C 
ENDBRANCH  27  29
ENDBRANCH  25  27
ENDBRANCH  17  25
ENDBRANCH   1  21
TORSDOF 5
