REMARK  Name = ZINC06198549
REMARK  12 active torsions:
REMARK  status: ('A' for Active; 'I' for Inactive)
REMARK    1  A    between atoms: C_1  and  N_57
REMARK    2  A    between atoms: C_2  and  N_57
REMARK    3  A    between atoms: C_3  and  C_4
REMARK    4  A    between atoms: C_3  and  N_57
REMARK    5  A    between atoms: C_4  and  C_5
REMARK    6  A    between atoms: C_5  and  N_6
REMARK    7  A    between atoms: N_6  and  C_7
REMARK    8  A    between atoms: C_7  and  N_9
REMARK    9  A    between atoms: N_9  and  C_10
REMARK   10  A    between atoms: N_9  and  C_16
REMARK   11  A    between atoms: C_10  and  C_11
REMARK   12  A    between atoms: C_16  and  C_17
REMARK                            x       y       z     vdW  Elec       q    Type
REMARK                         _______ _______ _______ _____ _____    ______ ____
ROOT
ATOM      1  N   UNL     1      -5.401   0.802   1.440  0.00  0.00    -0.301 N 
ENDROOT
BRANCH   1   2
ATOM      2  C   UNL     1      -6.228   1.671   2.054  0.00  0.00    +0.134 C 
ATOM      3  S   UNL     1      -6.894   2.983   1.181  0.00  0.00    -0.019 S 
BRANCH   2   4
ATOM      4  N   UNL     1      -6.531   1.506   3.357  0.00  0.00    -0.326 N 
ATOM      5  H   UNL     1      -6.153   0.762   3.853  0.00  0.00    +0.148 HD
BRANCH   4   6
ATOM      6  C   UNL     1      -7.430   2.450   4.026  0.00  0.00    +0.101 C 
BRANCH   6   7
ATOM      7  C   UNL     1      -7.606   2.038   5.489  0.00  0.00    +0.000 C 
BRANCH   7   8
ATOM      8  C   UNL     1      -8.545   3.023   6.187  0.00  0.00    -0.078 C 
BRANCH   8  11
ATOM      9  C   UNL     1      -7.452   2.763   8.332  0.00  0.00    -0.097 C 
ATOM     10  C   UNL     1      -9.785   3.402   8.232  0.00  0.00    -0.097 C 
ATOM     11  N   UNL     1      -8.721   2.600   7.592  0.00  0.00    +0.376 N 
ATOM     12  H   UNL     1      -8.993   1.610   7.611  0.00  0.00    -0.083 HD
ENDBRANCH   8  11
ENDBRANCH   7   8
ENDBRANCH   6   7
ENDBRANCH   4   6
ENDBRANCH   2   4
ENDBRANCH   1   2
BRANCH   1  13
ATOM     13  C   UNL     1      -4.928  -0.388   2.151  0.00  0.00    +0.181 C 
BRANCH  13  14
ATOM     14  C   UNL     1      -3.645  -0.066   2.872  0.00  0.00    +0.122 A 
ATOM     15  C   UNL     1      -3.545   0.402   4.129  0.00  0.00    +0.046 A 
ATOM     16  C   UNL     1      -2.166   0.562   4.398  0.00  0.00    +0.041 A 
ATOM     17  C   UNL     1      -1.506   0.182   3.289  0.00  0.00    +0.195 A 
ATOM     18  O   UNL     1      -2.406  -0.203   2.370  0.00  0.00    -0.466 OA
ENDBRANCH  13  14
ENDBRANCH   1  13
BRANCH   1  19
ATOM     19  C   UNL     1      -4.974   1.049   0.060  0.00  0.00    +0.147 C 
BRANCH  19  20
ATOM     20  C   UNL     1      -3.623   1.716   0.063  0.00  0.00    +0.035 A 
ATOM     21  C   UNL     1      -2.498   0.967  -0.061  0.00  0.00    +0.020 A 
ATOM     22  C   UNL     1      -1.203   1.645  -0.059  0.00  0.00    +0.003 A 
ATOM     23  C   UNL     1      -0.009   0.922  -0.177  0.00  0.00    +0.059 A 
ATOM     24  C   UNL     1       1.196   1.587  -0.167  0.00  0.00    +0.167 A 
ATOM     25  C   UNL     1       1.232   2.981  -0.034  0.00  0.00    +0.168 A 
ATOM     26  C   UNL     1       0.059   3.703   0.089  0.00  0.00    +0.075 A 
ATOM     27  C   UNL     1      -1.165   3.046   0.081  0.00  0.00    +0.053 A 
ATOM     28  N   UNL     1      -2.347   3.750   0.203  0.00  0.00    -0.322 N 
ATOM     29  H   UNL     1      -2.320   4.745   0.298  0.00  0.00    +0.169 HD
ATOM     30  C   UNL     1      -3.533   3.117   0.196  0.00  0.00    +0.254 A 
ATOM     31  O   UNL     1      -4.556   3.771   0.306  0.00  0.00    -0.268 OA
ATOM     32  O   UNL     1       2.535   3.385  -0.054  0.00  0.00    -0.453 OA
ATOM     33  C   UNL     1       3.310   2.201   0.214  0.00  0.00    +0.466 C 
ATOM     34  O   UNL     1       2.479   1.129  -0.268  0.00  0.00    -0.453 OA
ENDBRANCH  19  20
ENDBRANCH   1  19
TORSDOF 10
