REMARK  Name = ZINC36799251
REMARK  8 active torsions:
REMARK  status: ('A' for Active; 'I' for Inactive)
REMARK    1  A    between atoms: C_1  and  C_2
REMARK    2  A    between atoms: C_6  and  N_9
REMARK    3  A    between atoms: C_7  and  C_8
REMARK    4  A    between atoms: C_19  and  S_20
REMARK    5  A    between atoms: S_20  and  C_21
REMARK    6  A    between atoms: C_21  and  C_22
REMARK    7  A    between atoms: C_24  and  O_25
REMARK    8  A    between atoms: C_34  and  C_36
REMARK                            x       y       z     vdW  Elec       q    Type
REMARK                         _______ _______ _______ _____ _____    ______ ____
ROOT
ATOM      1  N   UNL     1       0.157  -3.305   2.975  0.00  0.00    -0.255 N 
ATOM      2  C   UNL     1      -0.914  -3.792   3.643  0.00  0.00    +0.267 A 
ATOM      3  O   UNL     1      -2.049  -3.568   3.265  0.00  0.00    -0.267 OA
ATOM      4  C   UNL     1      -0.657  -4.602   4.841  0.00  0.00    +0.065 A 
ATOM      5  C   UNL     1      -1.693  -5.149   5.598  0.00  0.00    +0.015 A 
ATOM      6  C   UNL     1      -1.397  -5.896   6.704  0.00  0.00    +0.001 A 
ATOM      7  C   UNL     1      -0.079  -6.115   7.082  0.00  0.00    +0.002 A 
ATOM      8  C   UNL     1       0.956  -5.590   6.360  0.00  0.00    +0.028 A 
ATOM      9  C   UNL     1       0.687  -4.823   5.223  0.00  0.00    +0.079 A 
ATOM     10  N   UNL     1       1.681  -4.286   4.478  0.00  0.00    -0.223 NA
ATOM     11  C   UNL     1       1.426  -3.571   3.409  0.00  0.00    +0.177 A 
ENDROOT
BRANCH   1  17
ATOM     12  C   UNL     1      -0.477   1.114   0.913  0.00  0.00    +0.044 C 
ATOM     13  C   UNL     1      -0.346  -0.383   0.798  0.00  0.00    -0.046 A 
ATOM     14  C   UNL     1      -0.418  -0.990  -0.442  0.00  0.00    +0.004 A 
ATOM     15  C   UNL     1      -0.299  -2.363  -0.551  0.00  0.00    +0.002 A 
ATOM     16  C   UNL     1      -0.108  -3.133   0.580  0.00  0.00    +0.026 A 
ATOM     17  C   UNL     1      -0.036  -2.527   1.826  0.00  0.00    +0.055 A 
ATOM     18  C   UNL     1      -0.150  -1.147   1.932  0.00  0.00    -0.024 A 
ATOM     19  C   UNL     1      -0.065  -0.484   3.283  0.00  0.00    +0.046 C 
ENDBRANCH   1  17
BRANCH  11  20
ATOM     20  S   UNL     1       2.782  -2.916   2.494  0.00  0.00    -0.083 S 
BRANCH  20  21
ATOM     21  C   UNL     1       4.244  -3.497   3.398  0.00  0.00    +0.113 C 
BRANCH  21  22
ATOM     22  C   UNL     1       5.489  -3.000   2.712  0.00  0.00    -0.020 A 
ATOM     23  C   UNL     1       5.919  -3.570   1.530  0.00  0.00    +0.092 A 
ATOM     24  C   UNL     1       7.069  -3.099   0.913  0.00  0.00    +0.285 A 
ATOM     25  O   UNL     1       7.780  -2.095   1.437  0.00  0.00    -0.425 OA
ATOM     26  C   UNL     1       7.405  -1.502   2.590  0.00  0.00    +0.141 A 
ATOM     27  C   UNL     1       6.239  -1.937   3.259  0.00  0.00    +0.022 A 
ATOM     28  C   UNL     1       5.842  -1.318   4.457  0.00  0.00    +0.013 A 
ATOM     29  C   UNL     1       6.578  -0.297   4.969  0.00  0.00    +0.024 A 
ATOM     30  C   UNL     1       7.736   0.147   4.307  0.00  0.00    +0.037 A 
ATOM     31  C   UNL     1       8.149  -0.465   3.122  0.00  0.00    +0.070 A 
ATOM     32  N   UNL     1       8.464   1.172   4.829  0.00  0.00    -0.286 N 
ATOM     33  C   UNL     1       9.349   1.800   4.081  0.00  0.00    +0.214 C 
ATOM     34  O   UNL     1       9.431   1.548   2.892  0.00  0.00    -0.276 OA
ATOM     35  C   UNL     1      10.260   2.831   4.697  0.00  0.00    +0.109 C 
ATOM     36  H   UNL     1       8.332   1.440   5.752  0.00  0.00    +0.155 HD
BRANCH  24  37
ATOM     37  O   UNL     1       7.477  -3.664  -0.240  0.00  0.00    -0.480 OA
ATOM     38  H   UNL     1       8.286  -3.277  -0.603  0.00  0.00    +0.295 HD
ENDBRANCH  24  37
ENDBRANCH  21  22
ENDBRANCH  20  21
ENDBRANCH  11  20
TORSDOF 5
