REMARK  Name = ZINC08790689
REMARK  6 active torsions:
REMARK  status: ('A' for Active; 'I' for Inactive)
REMARK    1  A    between atoms: C_1  and  C_2
REMARK    2  A    between atoms: C_7  and  C_8
REMARK    3  A    between atoms: C_17  and  C_19
REMARK    4  A    between atoms: C_19  and  C_20
REMARK    5  A    between atoms: N_25  and  C_28
REMARK    6  A    between atoms: C_28  and  C_29
REMARK                            x       y       z     vdW  Elec       q    Type
REMARK                         _______ _______ _______ _____ _____    ______ ____
ROOT
ATOM      1  C   UNL     1       3.457   4.179  -4.901  0.00  0.00    +0.044 C 
ATOM      2  C   UNL     1       2.916   3.518  -3.659  0.00  0.00    -0.046 A 
ATOM      3  C   UNL     1       2.466   2.212  -3.715  0.00  0.00    +0.004 A 
ATOM      4  C   UNL     1       1.970   1.605  -2.574  0.00  0.00    +0.005 A 
ATOM      5  C   UNL     1       1.925   2.302  -1.387  0.00  0.00    -0.027 A 
ATOM      6  C   UNL     1       2.374   3.617  -1.319  0.00  0.00    +0.039 A 
ATOM      7  C   UNL     1       2.872   4.220  -2.472  0.00  0.00    -0.026 A 
ATOM      8  C   UNL     1       3.364   5.644  -2.423  0.00  0.00    +0.046 C 
ATOM      9  N   UNL     1       2.229   4.111  -0.021  0.00  0.00    -0.286 N 
ATOM     10  C   UNL     1       1.698   3.196   0.814  0.00  0.00    +0.211 C 
ATOM     11  O   UNL     1       1.459   3.345   1.993  0.00  0.00    -0.277 OA
ATOM     12  C   UNL     1       1.460   1.955  -0.001  0.00  0.00    +0.050 C 
ATOM     13  C   UNL     1      -0.019   1.550   0.011  0.00  0.00    +0.088 C 
ATOM     14  C   UNL     1       0.002  -0.004   0.002  0.00  0.00    +0.073 C 
ATOM     15  C   UNL     1       1.498  -0.381  -0.024  0.00  0.00    -0.049 C 
ATOM     16  C   UNL     1      -0.582  -0.369   1.347  0.00  0.00    +0.224 C 
ATOM     17  O   UNL     1      -0.741  -1.498   1.759  0.00  0.00    -0.275 OA
ATOM     18  N   UNL     1      -0.897   0.748   2.013  0.00  0.00    -0.237 N 
ATOM     19  C   UNL     1      -0.625   1.882   1.356  0.00  0.00    +0.225 C 
ATOM     20  O   UNL     1      -0.832   3.001   1.774  0.00  0.00    -0.275 OA
ATOM     21  H   UNL     1       2.480   5.008   0.248  0.00  0.00    +0.155 HD
ATOM     22  N   UNL     1       2.171   0.801   0.521  0.00  0.00    +0.394 N 
ATOM     23  H   UNL     1       2.128   0.792   1.547  0.00  0.00    -0.083 HD
ATOM     24  H   UNL     1       3.152   0.822   0.219  0.00  0.00    -0.083 HD
ENDROOT
BRANCH  15  25
ATOM     25  C   UNL     1       1.751  -1.616   0.842  0.00  0.00    +0.080 C 
BRANCH  25  26
ATOM     26  C   UNL     1       3.191  -2.039   0.706  0.00  0.00    +0.209 C 
ATOM     27  O   UNL     1       3.941  -1.414  -0.013  0.00  0.00    -0.276 OA
ATOM     28  N   UNL     1       3.646  -3.112   1.383  0.00  0.00    -0.329 N 
ATOM     29  H   UNL     1       3.046  -3.612   1.959  0.00  0.00    +0.145 HD
ATOM     30  H   UNL     1       4.572  -3.384   1.296  0.00  0.00    +0.145 HD
ENDBRANCH  25  26
ENDBRANCH  15  25
BRANCH  18  31
ATOM     31  C   UNL     1      -1.490   0.732   3.352  0.00  0.00    +0.151 C 
BRANCH  31  32
ATOM     32  C   UNL     1      -0.395   0.748   4.388  0.00  0.00    -0.026 A 
ATOM     33  C   UNL     1       0.084   1.953   4.866  0.00  0.00    +0.009 A 
ATOM     34  C   UNL     1       1.088   1.973   5.816  0.00  0.00    +0.050 A 
ATOM     35  C   UNL     1       1.618   0.784   6.290  0.00  0.00    +0.166 A 
ATOM     36  C   UNL     1       1.135  -0.430   5.808  0.00  0.00    +0.167 A 
ATOM     37  C   UNL     1       0.124  -0.443   4.861  0.00  0.00    +0.054 A 
ATOM     38  O   UNL     1       1.810  -1.444   6.425  0.00  0.00    -0.453 OA
ATOM     39  C   UNL     1       2.990  -0.835   6.984  0.00  0.00    +0.466 C 
ATOM     40  O   UNL     1       2.595   0.531   7.208  0.00  0.00    -0.453 OA
ENDBRANCH  31  32
ENDBRANCH  18  31
TORSDOF 4
