REMARK  Name = ZINC38743025
REMARK  6 active torsions:
REMARK  status: ('A' for Active; 'I' for Inactive)
REMARK    1  A    between atoms: C_1  and  C_2
REMARK    2  A    between atoms: C_2  and  C_3
REMARK    3  A    between atoms: C_3  and  C_5
REMARK    4  A    between atoms: C_3  and  C_11
REMARK    5  A    between atoms: C_15  and  C_20
REMARK    6  A    between atoms: C_23  and  C_26
REMARK                            x       y       z     vdW  Elec       q    Type
REMARK                         _______ _______ _______ _____ _____    ______ ____
ROOT
ATOM      1  C   UNL     1       0.515  -1.959  -0.853  0.00  0.00    +0.160 C 
ATOM      2  N   UNL     1       1.509  -2.851  -1.508  0.00  0.00    -0.267 N 
ATOM      3  N   UNL     1       2.652  -3.061  -0.796  0.00  0.00    -0.222 N 
ATOM      4  C   UNL     1       3.948  -3.473  -1.053  0.00  0.00    +0.181 A 
ATOM      5  N   UNL     1       4.585  -3.521   0.079  0.00  0.00    -0.129 NA
ATOM      6  N   UNL     1       3.809  -3.158   1.039  0.00  0.00    -0.121 NA
ATOM      7  C   UNL     1       2.644  -2.854   0.559  0.00  0.00    +0.210 A 
ATOM      8  S   UNL     1       1.002  -2.252   0.903  0.00  0.00    -0.060 S 
ATOM      9  H   UNL     1       1.086  -3.726  -1.779  0.00  0.00    +0.168 HD
ENDROOT
BRANCH   4  10
ATOM     10  C   UNL     1       4.519  -3.807  -2.407  0.00  0.00    +0.222 C 
ATOM     11  C   UNL     1       4.717  -5.306  -2.550  0.00  0.00    +0.039 C 
ATOM     12  C   UNL     1       6.045  -5.441  -2.731  0.00  0.00    +0.091 C 
ATOM     13  N   UNL     1       6.651  -4.225  -2.714  0.00  0.00    -0.153 NA
ATOM     14  N   UNL     1       5.884  -3.271  -2.542  0.00  0.00    -0.171 NA
BRANCH  12  15
ATOM     15  C   UNL     1       6.746  -6.734  -2.922  0.00  0.00    +0.002 A 
ATOM     16  C   UNL     1       6.025  -7.927  -2.928  0.00  0.00    +0.010 A 
ATOM     17  C   UNL     1       6.682  -9.127  -3.106  0.00  0.00    +0.001 A 
ATOM     18  C   UNL     1       8.055  -9.148  -3.279  0.00  0.00    +0.000 A 
ATOM     19  C   UNL     1       8.775  -7.967  -3.274  0.00  0.00    +0.001 A 
ATOM     20  C   UNL     1       8.128  -6.761  -3.102  0.00  0.00    +0.010 A 
ENDBRANCH  12  15
ENDBRANCH   4  10
BRANCH   1  21
ATOM     21  C   UNL     1       0.718  -0.497  -1.257  0.00  0.00    +0.051 C 
BRANCH  21  22
ATOM     22  C   UNL     1       2.141  -0.090  -0.970  0.00  0.00    -0.042 A 
ATOM     23  C   UNL     1       3.043   0.045  -2.009  0.00  0.00    +0.004 A 
ATOM     24  C   UNL     1       4.348   0.418  -1.746  0.00  0.00    +0.000 A 
ATOM     25  C   UNL     1       4.750   0.658  -0.445  0.00  0.00    +0.000 A 
ATOM     26  C   UNL     1       3.847   0.524   0.593  0.00  0.00    +0.000 A 
ATOM     27  C   UNL     1       2.541   0.154   0.330  0.00  0.00    +0.004 A 
ENDBRANCH  21  22
BRANCH  21  29
ATOM     28  C   UNL     1      -0.123   1.835  -0.948  0.00  0.00    +0.004 C 
ATOM     29  C   UNL     1      -0.237   0.390  -0.457  0.00  0.00    +0.007 C 
ENDBRANCH  21  29
ENDBRANCH   1  21
TORSDOF 5
