REMARK  Name = ZINC13501077
REMARK  11 active torsions:
REMARK  status: ('A' for Active; 'I' for Inactive)
REMARK    1  A    between atoms: C_1  and  C_2
REMARK    2  A    between atoms: C_2  and  C_3
REMARK    3  A    between atoms: C_3  and  C_5
REMARK    4  A    between atoms: C_3  and  N_66
REMARK    5  A    between atoms: N_9  and  C_10
REMARK    6  A    between atoms: C_10  and  C_11
REMARK    7  A    between atoms: C_16  and  C_17
REMARK    8  A    between atoms: C_16  and  N_66
REMARK    9  A    between atoms: C_21  and  C_30
REMARK   10  A    between atoms: C_23  and  C_29
REMARK   11  A    between atoms: C_31  and  N_66
REMARK                            x       y       z     vdW  Elec       q    Type
REMARK                         _______ _______ _______ _____ _____    ______ ____
ROOT
ATOM      1  N   UNL     1      -0.997   1.458   1.596  0.00  0.00    +0.391 N 
ATOM      2  H   UNL     1      -1.133   2.427   1.909  0.00  0.00    -0.080 HD
ENDROOT
BRANCH   1   3
ATOM      3  C   UNL     1       0.232   1.387   0.778  0.00  0.00    -0.067 C 
ATOM      4  C   UNL     1       0.213   2.498  -0.301  0.00  0.00    -0.015 C 
ATOM      5  C   UNL     1       1.718   2.699  -0.610  0.00  0.00    -0.002 C 
ATOM      6  C   UNL     1       2.408   2.556   0.763  0.00  0.00    -0.002 C 
ATOM      7  C   UNL     1       1.464   1.721   1.645  0.00  0.00    -0.015 C 
ENDBRANCH   1   3
BRANCH   1   8
ATOM      8  C   UNL     1      -2.165   1.046   0.789  0.00  0.00    +0.003 C 
BRANCH   8   9
ATOM      9  C   UNL     1      -1.798  -0.095  -0.124  0.00  0.00    +0.139 A 
ATOM     10  N   UNL     1      -0.882  -0.083  -1.061  0.00  0.00    -0.115 NA
ATOM     11  N   UNL     1      -0.869  -1.244  -1.620  0.00  0.00    -0.023 NA
ATOM     12  N   UNL     1      -1.753  -1.996  -1.063  0.00  0.00    -0.044 NA
ATOM     13  N   UNL     1      -2.344  -1.325  -0.133  0.00  0.00    -0.223 N 
BRANCH  13  14
ATOM     14  C   UNL     1      -3.410  -1.810   0.747  0.00  0.00    +0.221 C 
BRANCH  14  15
ATOM     15  C   UNL     1      -4.748  -1.539   0.111  0.00  0.00    +0.126 A 
ATOM     16  C   UNL     1      -5.408  -2.368  -0.718  0.00  0.00    +0.046 A 
ATOM     17  C   UNL     1      -6.614  -1.720  -1.072  0.00  0.00    +0.041 A 
ATOM     18  C   UNL     1      -6.615  -0.530  -0.445  0.00  0.00    +0.195 A 
ATOM     19  O   UNL     1      -5.483  -0.426   0.270  0.00  0.00    -0.466 OA
ENDBRANCH  14  15
ENDBRANCH  13  14
ENDBRANCH   8   9
BRANCH   8  21
ATOM     20  C   UNL     1      -3.028   3.389   0.881  0.00  0.00    +0.002 C 
ATOM     21  C   UNL     1      -2.627   2.241  -0.047  0.00  0.00    -0.011 C 
ENDBRANCH   8  21
ENDBRANCH   1   8
BRANCH   1  22
ATOM     22  C   UNL     1      -0.868   0.584   2.780  0.00  0.00    -0.036 C 
BRANCH  22  23
ATOM     23  C   UNL     1      -1.917   0.977   3.789  0.00  0.00    +0.001 A 
ATOM     24  C   UNL     1      -3.072   0.272   3.871  0.00  0.00    +0.017 A 
ATOM     25  C   UNL     1      -4.071   0.679   4.861  0.00  0.00    -0.001 A 
ATOM     26  C   UNL     1      -5.281  -0.009   4.994  0.00  0.00    +0.013 A 
ATOM     27  C   UNL     1      -6.192   0.396   5.927  0.00  0.00    -0.050 A 
ATOM     28  C   UNL     1      -5.927   1.485   6.746  0.00  0.00    +0.008 A 
ATOM     29  C   UNL     1      -4.742   2.178   6.634  0.00  0.00    -0.026 A 
ATOM     30  C   UNL     1      -3.799   1.784   5.690  0.00  0.00    +0.052 A 
ATOM     31  N   UNL     1      -2.604   2.459   5.556  0.00  0.00    -0.322 N 
ATOM     32  H   UNL     1      -2.418   3.220   6.128  0.00  0.00    +0.169 HD
ATOM     33  C   UNL     1      -1.690   2.074   4.647  0.00  0.00    +0.251 A 
ATOM     34  O   UNL     1      -0.643   2.691   4.560  0.00  0.00    -0.268 OA
ATOM     35  C   UNL     1      -4.467   3.359   7.529  0.00  0.00    +0.046 C 
ATOM     36  C   UNL     1      -7.496  -0.346   6.069  0.00  0.00    +0.044 C 
ENDBRANCH  22  23
ENDBRANCH   1  22
TORSDOF 8
