REMARK  Name = ZINC44676366
REMARK  10 active torsions:
REMARK  status: ('A' for Active; 'I' for Inactive)
REMARK    1  A    between atoms: C_1  and  O_2
REMARK    2  A    between atoms: O_2  and  C_3
REMARK    3  A    between atoms: C_6  and  N_9
REMARK    4  A    between atoms: N_9  and  S_10
REMARK    5  A    between atoms: S_10  and  C_13
REMARK    6  A    between atoms: C_26  and  C_29
REMARK    7  A    between atoms: C_33  and  O_37
REMARK    8  A    between atoms: C_34  and  O_35
REMARK    9  A    between atoms: O_35  and  C_36
REMARK   10  A    between atoms: O_37  and  C_38
REMARK                            x       y       z     vdW  Elec       q    Type
REMARK                         _______ _______ _______ _____ _____    ______ ____
ROOT
ATOM      1  C   UNL     1       2.143  -5.155   3.800  0.00  0.00    +0.109 A 
ATOM      2  C   UNL     1       1.095  -5.119   2.898  0.00  0.00    +0.030 A 
ATOM      3  C   UNL     1       1.016  -6.067   1.899  0.00  0.00    +0.025 A 
ATOM      4  C   UNL     1       1.990  -7.057   1.797  0.00  0.00    +0.031 A 
ATOM      5  C   UNL     1       3.045  -7.087   2.692  0.00  0.00    -0.018 A 
ATOM      6  C   UNL     1       3.115  -6.130   3.694  0.00  0.00    +0.034 A 
ATOM      7  C   UNL     1       4.141  -8.111   2.606  0.00  0.00    +0.049 C 
ATOM      8  C   UNL     1       5.470  -7.373   2.634  0.00  0.00    -0.023 C 
ATOM      9  C   UNL     1       5.975  -7.287   1.431  0.00  0.00    -0.030 C 
ATOM     10  C   UNL     1       5.074  -7.961   0.417  0.00  0.00    +0.033 C 
ATOM     11  C   UNL     1       4.150  -8.873   1.284  0.00  0.00    +0.029 C 
ATOM     12  C   UNL     1       2.810  -9.116   0.655  0.00  0.00    +0.109 C 
ATOM     13  N   UNL     1       1.881  -8.011   0.791  0.00  0.00    -0.336 N 
ATOM     14  H   UNL     1       1.139  -7.948   0.170  0.00  0.00    +0.147 HD
ENDROOT
BRANCH  12  15
ATOM     15  C   UNL     1       2.213 -10.356   1.270  0.00  0.00    +0.018 A 
ATOM     16  C   UNL     1       2.747 -10.876   2.435  0.00  0.00    +0.009 A 
ATOM     17  C   UNL     1       2.203 -12.013   3.001  0.00  0.00    +0.004 A 
ATOM     18  C   UNL     1       1.122 -12.636   2.404  0.00  0.00    +0.049 A 
ATOM     19  C   UNL     1       0.582 -12.121   1.237  0.00  0.00    +0.162 A 
ATOM     20  C   UNL     1       1.127 -10.972   0.670  0.00  0.00    +0.166 A 
BRANCH  20  21
ATOM     21  O   UNL     1       0.597 -10.459  -0.472  0.00  0.00    -0.491 OA
ATOM     22  C   UNL     1       1.055 -11.015  -1.706  0.00  0.00    +0.277 C 
ENDBRANCH  20  21
BRANCH  19  23
ATOM     23  O   UNL     1      -0.481 -12.732   0.649  0.00  0.00    -0.491 OA
ATOM     24  C   UNL     1      -0.991 -13.904   1.290  0.00  0.00    +0.277 C 
ENDBRANCH  19  23
ENDBRANCH  12  15
BRANCH   1  25
ATOM     25  S   UNL     1       2.243  -3.950   5.082  0.00  0.00    +0.072 S 
ATOM     26  O   UNL     1       3.121  -4.477   6.067  0.00  0.00    -0.150 OA
ATOM     27  O   UNL     1       0.908  -3.564   5.380  0.00  0.00    -0.150 OA
BRANCH  25  28
ATOM     28  N   UNL     1       2.990  -2.618   4.444  0.00  0.00    -0.216 N 
ATOM     29  H   UNL     1       2.522  -1.769   4.408  0.00  0.00    +0.174 HD
BRANCH  28  33
ATOM     30  C   UNL     1       6.888  -2.908   2.996  0.00  0.00    +0.120 A 
ATOM     31  C   UNL     1       5.918  -2.257   2.248  0.00  0.00    +0.047 A 
ATOM     32  C   UNL     1       4.626  -2.161   2.727  0.00  0.00    +0.028 A 
ATOM     33  C   UNL     1       4.299  -2.715   3.958  0.00  0.00    +0.048 A 
ATOM     34  C   UNL     1       5.271  -3.366   4.706  0.00  0.00    +0.028 A 
ATOM     35  C   UNL     1       6.561  -3.466   4.222  0.00  0.00    +0.047 A 
BRANCH  30  37
ATOM     36  C   UNL     1       8.426  -2.404   1.253  0.00  0.00    +0.277 C 
ATOM     37  O   UNL     1       8.160  -3.002   2.523  0.00  0.00    -0.495 OA
ENDBRANCH  30  37
ENDBRANCH  28  33
ENDBRANCH  25  28
ENDBRANCH   1  25
TORSDOF 7
