REMARK  Name = ZINC58018066
REMARK  8 active torsions:
REMARK  status: ('A' for Active; 'I' for Inactive)
REMARK    1  A    between atoms: C_1  and  C_2
REMARK    2  A    between atoms: C_2  and  C_3
REMARK    3  A    between atoms: C_3  and  C_4
REMARK    4  A    between atoms: C_4  and  O_5
REMARK    5  A    between atoms: O_5  and  C_6
REMARK    6  A    between atoms: C_6  and  C_8
REMARK    7  A    between atoms: C_8  and  S_9
REMARK    8  A    between atoms: S_9  and  C_10
REMARK                            x       y       z     vdW  Elec       q    Type
REMARK                         _______ _______ _______ _____ _____    ______ ____
ROOT
ATOM      1  C   UNL     1       3.018  -6.685  -5.214  0.00  0.00    +0.132 C 
ATOM      2  N   UNL     1       3.483  -5.789  -6.043  0.00  0.00    -0.234 NA
ATOM      3  C   UNL     1       4.163  -6.054  -7.192  0.00  0.00    +0.070 A 
ATOM      4  C   UNL     1       4.989  -5.033  -7.696  0.00  0.00    +0.028 A 
ATOM      5  C   UNL     1       5.706  -5.223  -8.854  0.00  0.00    +0.002 A 
ATOM      6  C   UNL     1       5.620  -6.425  -9.535  0.00  0.00    +0.000 A 
ATOM      7  C   UNL     1       4.814  -7.435  -9.049  0.00  0.00    +0.006 A 
ATOM      8  C   UNL     1       4.088  -7.258  -7.884  0.00  0.00    -0.012 A 
ATOM      9  C   UNL     1       3.232  -8.404  -7.400  0.00  0.00    +0.113 C 
ATOM     10  S   UNL     1       3.242  -8.399  -5.578  0.00  0.00    -0.094 S 
ENDROOT
BRANCH   1  11
ATOM     11  S   UNL     1       2.183  -6.189  -3.744  0.00  0.00    -0.088 S 
BRANCH  11  12
ATOM     12  C   UNL     1       2.205  -4.377  -3.817  0.00  0.00    +0.196 C 
BRANCH  12  13
ATOM     13  C   UNL     1       1.512  -3.817  -2.601  0.00  0.00    +0.317 C 
ATOM     14  O   UNL     1       1.051  -4.564  -1.771  0.00  0.00    -0.250 OA
BRANCH  13  15
ATOM     15  O   UNL     1       1.408  -2.488  -2.441  0.00  0.00    -0.464 OA
BRANCH  15  16
ATOM     16  C   UNL     1       0.739  -2.027  -1.265  0.00  0.00    +0.232 C 
BRANCH  16  17
ATOM     17  C   UNL     1       0.718  -0.497  -1.257  0.00  0.00    +0.041 C 
BRANCH  17  19
ATOM     18  C   UNL     1      -0.019   1.526   0.010  0.00  0.00    +0.004 C 
ATOM     19  C   UNL     1       0.002  -0.004   0.002  0.00  0.00    -0.000 C 
ENDBRANCH  17  19
ENDBRANCH  16  17
ENDBRANCH  15  16
ENDBRANCH  13  15
ENDBRANCH  12  13
ENDBRANCH  11  12
ENDBRANCH   1  11
TORSDOF 7
