REMARK  Name = ZINC14478068
REMARK  7 active torsions:
REMARK  status: ('A' for Active; 'I' for Inactive)
REMARK    1  A    between atoms: C_1  and  C_2
REMARK    2  A    between atoms: C_4  and  C_37
REMARK    3  A    between atoms: C_6  and  N_8
REMARK    4  A    between atoms: N_8  and  S_9
REMARK    5  A    between atoms: S_9  and  C_12
REMARK    6  A    between atoms: C_25  and  C_28
REMARK    7  A    between atoms: C_33  and  N_34
REMARK                            x       y       z     vdW  Elec       q    Type
REMARK                         _______ _______ _______ _____ _____    ______ ____
ROOT
ATOM      1  C   UNL     1       4.123   0.111   0.284  0.00  0.00    +0.109 A 
ATOM      2  C   UNL     1       4.217   1.487   0.385  0.00  0.00    +0.030 A 
ATOM      3  C   UNL     1       3.075   2.253   0.493  0.00  0.00    +0.025 A 
ATOM      4  C   UNL     1       1.823   1.649   0.502  0.00  0.00    +0.031 A 
ATOM      5  C   UNL     1       1.735   0.257   0.386  0.00  0.00    -0.018 A 
ATOM      6  C   UNL     1       2.882  -0.499   0.285  0.00  0.00    +0.034 A 
ATOM      7  C   UNL     1       0.383  -0.341   0.356  0.00  0.00    +0.049 C 
ATOM      8  C   UNL     1       0.129  -1.732   0.810  0.00  0.00    -0.023 C 
ATOM      9  C   UNL     1      -1.091  -1.815   1.296  0.00  0.00    -0.030 C 
ATOM     10  C   UNL     1      -1.752  -0.435   1.272  0.00  0.00    +0.033 C 
ATOM     11  C   UNL     1      -0.530   0.493   1.303  0.00  0.00    +0.029 C 
ATOM     12  C   UNL     1      -0.674   1.849   0.636  0.00  0.00    +0.107 C 
ATOM     13  N   UNL     1       0.679   2.445   0.645  0.00  0.00    -0.336 N 
ATOM     14  H   UNL     1       0.777   3.404   0.753  0.00  0.00    +0.147 HD
ENDROOT
BRANCH  12  15
ATOM     15  C   UNL     1      -1.160   1.683  -0.781  0.00  0.00    +0.003 A 
ATOM     16  C   UNL     1      -0.252   1.643  -1.823  0.00  0.00    +0.008 A 
ATOM     17  C   UNL     1      -0.697   1.486  -3.122  0.00  0.00    +0.000 A 
ATOM     18  C   UNL     1      -2.051   1.379  -3.381  0.00  0.00    +0.002 A 
ATOM     19  C   UNL     1      -2.959   1.425  -2.340  0.00  0.00    +0.033 A 
ATOM     20  C   UNL     1      -2.514   1.577  -1.040  0.00  0.00    +0.131 A 
BRANCH  20  21
ATOM     21  N   UNL     1      -3.486   1.626   0.075  0.00  0.00    +0.057 N 
ATOM     22  O   UNL     1      -4.668   1.427  -0.140  0.00  0.00    -0.126 OA
ATOM     23  O   UNL     1      -3.104   1.866   1.206  0.00  0.00    -0.126 OA
ENDBRANCH  20  21
ENDBRANCH  12  15
BRANCH   1  24
ATOM     24  S   UNL     1       5.585  -0.865   0.154  0.00  0.00    +0.072 S 
ATOM     25  O   UNL     1       6.657  -0.054   0.614  0.00  0.00    -0.150 OA
ATOM     26  O   UNL     1       5.283  -2.128   0.731  0.00  0.00    -0.150 OA
BRANCH  24  27
ATOM     27  N   UNL     1       5.852  -1.133  -1.458  0.00  0.00    -0.216 N 
ATOM     28  H   UNL     1       5.798  -2.033  -1.816  0.00  0.00    +0.174 HD
BRANCH  27  34
ATOM     29  C   UNL     1       4.473   1.983  -5.000  0.00  0.00    +0.044 C 
ATOM     30  C   UNL     1       5.506   1.468  -4.031  0.00  0.00    -0.048 A 
ATOM     31  C   UNL     1       6.757   2.056  -3.978  0.00  0.00    +0.006 A 
ATOM     32  C   UNL     1       7.708   1.587  -3.090  0.00  0.00    -0.048 A 
ATOM     33  C   UNL     1       7.411   0.529  -2.253  0.00  0.00    +0.028 A 
ATOM     34  C   UNL     1       6.156  -0.063  -2.303  0.00  0.00    +0.049 A 
ATOM     35  C   UNL     1       5.205   0.407  -3.200  0.00  0.00    +0.028 A 
ATOM     36  C   UNL     1       9.070   2.230  -3.036  0.00  0.00    +0.044 C 
ENDBRANCH  27  34
ENDBRANCH  24  27
ENDBRANCH   1  24
TORSDOF 5
