REMARK  Name = ZINC20919402
REMARK  10 active torsions:
REMARK  status: ('A' for Active; 'I' for Inactive)
REMARK    1  A    between atoms: C_1  and  C_2
REMARK    2  A    between atoms: C_8  and  C_10
REMARK    3  A    between atoms: C_10  and  S_11
REMARK    4  A    between atoms: S_11  and  C_12
REMARK    5  A    between atoms: N_16  and  N_17
REMARK    6  A    between atoms: N_18  and  N_19
REMARK    7  A    between atoms: C_20  and  C_21
REMARK    8  A    between atoms: C_20  and  C_28
REMARK    9  A    between atoms: C_21  and  C_22
REMARK   10  A    between atoms: C_28  and  C_29
REMARK                            x       y       z     vdW  Elec       q    Type
REMARK                         _______ _______ _______ _____ _____    ______ ____
ROOT
ATOM      1  C   UNL     1      -2.080   1.760  -1.031  0.00  0.00    +0.210 A 
ATOM      2  N   UNL     1      -2.411   2.210  -2.217  0.00  0.00    -0.119 NA
ATOM      3  N   UNL     1      -1.257   2.230  -3.011  0.00  0.00    -0.109 NA
ATOM      4  C   UNL     1      -0.257   1.797  -2.282  0.00  0.00    +0.254 A 
ATOM      5  N   UNL     1      -0.741   1.490  -1.041  0.00  0.00    -0.211 N 
ATOM      6  N   UNL     1       1.061   1.669  -2.699  0.00  0.00    -0.204 N 
ATOM      7  H   UNL     1       1.824   1.290  -2.002  0.00  0.00    +0.177 HD
ENDROOT
BRANCH   5   8
ATOM      8  N   UNL     1      -0.012   1.005   0.008  0.00  0.00    -0.294 N 
ATOM      9  H   UNL     1       1.067   0.823  -0.110  0.00  0.00    +0.163 HD
ATOM     10  H   UNL     1      -0.503   0.796   0.969  0.00  0.00    +0.163 HD
ENDBRANCH   5   8
BRANCH   6  11
ATOM     11  N   UNL     1       1.420   2.022  -4.006  0.00  0.00    -0.188 NA
ATOM     12  C   UNL     1       2.636   1.903  -4.390  0.00  0.00    +0.045 C 
BRANCH  12  13
ATOM     13  C   UNL     1       3.680   1.385  -3.436  0.00  0.00    +0.088 C 
BRANCH  13  14
ATOM     14  C   UNL     1       3.763  -0.116  -3.550  0.00  0.00    -0.042 A 
ATOM     15  C   UNL     1       2.972  -0.914  -2.745  0.00  0.00    +0.004 A 
ATOM     16  C   UNL     1       3.045  -2.291  -2.852  0.00  0.00    +0.000 A 
ATOM     17  C   UNL     1       3.916  -2.869  -3.757  0.00  0.00    +0.000 A 
ATOM     18  C   UNL     1       4.711  -2.070  -4.557  0.00  0.00    +0.000 A 
ATOM     19  C   UNL     1       4.635  -0.694  -4.454  0.00  0.00    +0.004 A 
ENDBRANCH  13  14
ENDBRANCH  12  13
BRANCH  12  20
ATOM     20  C   UNL     1       3.022   2.283  -5.797  0.00  0.00    +0.088 C 
BRANCH  20  21
ATOM     21  C   UNL     1       3.960   3.461  -5.759  0.00  0.00    -0.042 A 
ATOM     22  C   UNL     1       3.457   4.748  -5.803  0.00  0.00    +0.004 A 
ATOM     23  C   UNL     1       4.317   5.829  -5.764  0.00  0.00    +0.000 A 
ATOM     24  C   UNL     1       5.682   5.623  -5.691  0.00  0.00    +0.000 A 
ATOM     25  C   UNL     1       6.186   4.337  -5.653  0.00  0.00    +0.000 A 
ATOM     26  C   UNL     1       5.325   3.256  -5.687  0.00  0.00    +0.004 A 
ENDBRANCH  20  21
ENDBRANCH  12  20
ENDBRANCH   6  11
BRANCH   1  27
ATOM     27  S   UNL     1      -3.170   1.543   0.336  0.00  0.00    -0.075 S 
BRANCH  27  28
ATOM     28  C   UNL     1      -4.783   2.076  -0.300  0.00  0.00    +0.173 C 
BRANCH  28  36
ATOM     29  C   UNL     1     -11.410   2.061   3.947  0.00  0.00    +0.075 C 
ATOM     30  C   UNL     1     -10.109   2.041   3.186  0.00  0.00    +0.101 A 
ATOM     31  N   UNL     1      -8.906   1.670   3.577  0.00  0.00    -0.145 NA
ATOM     32  N   UNL     1      -7.926   1.726   2.783  0.00  0.00    -0.126 NA
ATOM     33  C   UNL     1      -8.059   2.153   1.538  0.00  0.00    +0.188 A 
ATOM     34  S   UNL     1      -9.759   2.520   1.499  0.00  0.00    -0.036 S 
ATOM     35  N   UNL     1      -7.101   2.280   0.538  0.00  0.00    -0.263 N 
ATOM     36  C   UNL     1      -5.821   1.939   0.784  0.00  0.00    +0.229 C 
ATOM     37  O   UNL     1      -5.503   1.522   1.878  0.00  0.00    -0.275 OA
ATOM     38  H   UNL     1      -7.389   2.658  -0.454  0.00  0.00    +0.157 HD
ENDBRANCH  28  36
ENDBRANCH  27  28
ENDBRANCH   1  27
TORSDOF 9
