REMARK  Name = ZINC12635356
REMARK  8 active torsions:
REMARK  status: ('A' for Active; 'I' for Inactive)
REMARK    1  A    between atoms: C_1  and  C_2
REMARK    2  A    between atoms: C_8  and  N_10
REMARK    3  A    between atoms: C_14  and  C_16
REMARK    4  A    between atoms: C_16  and  O_17
REMARK    5  A    between atoms: O_17  and  C_18
REMARK    6  A    between atoms: C_18  and  C_20
REMARK    7  A    between atoms: C_23  and  S_26
REMARK    8  A    between atoms: S_26  and  N_29
REMARK                            x       y       z     vdW  Elec       q    Type
REMARK                         _______ _______ _______ _____ _____    ______ ____
ROOT
ATOM      1  C   UNL     1      -8.436   1.573  -4.191  0.00  0.00    +0.340 C 
ATOM      2  O   UNL     1      -7.955   1.911  -5.254  0.00  0.00    -0.245 OA
ENDROOT
BRANCH   1   3
ATOM      3  C   UNL     1      -9.899   1.628  -3.991  0.00  0.00    +0.059 A 
ATOM      4  C   UNL     1     -10.456   1.234  -2.773  0.00  0.00    +0.017 A 
ATOM      5  C   UNL     1     -11.822   1.292  -2.591  0.00  0.00    +0.029 A 
ATOM      6  C   UNL     1     -12.641   1.730  -3.617  0.00  0.00    +0.109 A 
ATOM      7  C   UNL     1     -12.096   2.116  -4.829  0.00  0.00    +0.029 A 
ATOM      8  C   UNL     1     -10.731   2.068  -5.022  0.00  0.00    +0.017 A 
BRANCH   6   9
ATOM      9  S   UNL     1     -14.386   1.795  -3.379  0.00  0.00    +0.075 S 
ATOM     10  O   UNL     1     -14.601   1.899  -1.978  0.00  0.00    -0.150 OA
ATOM     11  O   UNL     1     -14.886   2.754  -4.300  0.00  0.00    -0.150 OA
BRANCH   9  12
ATOM     12  N   UNL     1     -14.998   0.328  -3.844  0.00  0.00    -0.203 N 
ATOM     13  C   UNL     1     -15.525   0.135  -5.202  0.00  0.00    +0.132 C 
ATOM     14  C   UNL     1     -16.847  -0.628  -5.092  0.00  0.00    +0.025 C 
ATOM     15  C   UNL     1     -16.576  -2.007  -4.491  0.00  0.00    +0.038 C 
ATOM     16  C   UNL     1     -15.775  -1.881  -3.222  0.00  0.00    -0.025 A 
ATOM     17  C   UNL     1     -15.027  -0.746  -2.947  0.00  0.00    +0.054 A 
ATOM     18  C   UNL     1     -14.294  -0.665  -1.769  0.00  0.00    +0.025 A 
ATOM     19  C   UNL     1     -14.313  -1.713  -0.870  0.00  0.00    +0.002 A 
ATOM     20  C   UNL     1     -15.061  -2.843  -1.144  0.00  0.00    +0.000 A 
ATOM     21  C   UNL     1     -15.789  -2.926  -2.315  0.00  0.00    +0.005 A 
ENDBRANCH   9  12
ENDBRANCH   6   9
ENDBRANCH   1   3
BRANCH   1  22
ATOM     22  O   UNL     1      -7.636   1.147  -3.195  0.00  0.00    -0.452 OA
BRANCH  22  23
ATOM     23  C   UNL     1      -6.209   1.120  -3.461  0.00  0.00    +0.328 C 
BRANCH  23  28
ATOM     24  N   UNL     1      -2.140  -0.047  -1.182  0.00  0.00    -0.296 N 
ATOM     25  C   UNL     1      -3.483   0.064  -1.166  0.00  0.00    +0.306 C 
ATOM     26  O   UNL     1      -4.106  -0.240  -0.167  0.00  0.00    -0.252 OA
ATOM     27  N   UNL     1      -4.136   0.510  -2.257  0.00  0.00    -0.237 N 
ATOM     28  C   UNL     1      -5.479   0.620  -2.241  0.00  0.00    +0.258 C 
ATOM     29  O   UNL     1      -6.100   0.318  -1.245  0.00  0.00    -0.272 OA
ATOM     30  H   UNL     1      -1.643   0.196  -1.979  0.00  0.00    +0.151 HD
ATOM     31  H   UNL     1      -3.639   0.752  -3.054  0.00  0.00    +0.159 HD
BRANCH  24  38
ATOM     32  C   UNL     1      -0.017   1.528   0.002  0.00  0.00    +0.009 C 
ATOM     33  C   UNL     1       0.004  -0.002  -0.007  0.00  0.00    +0.006 C 
ATOM     34  C   UNL     1       0.745  -0.509   1.232  0.00  0.00    +0.005 C 
ATOM     35  C   UNL     1       0.766  -2.039   1.223  0.00  0.00    +0.000 C 
ATOM     36  C   UNL     1      -0.669  -2.569   1.235  0.00  0.00    +0.002 C 
ATOM     37  C   UNL     1      -1.410  -2.062  -0.004  0.00  0.00    +0.022 C 
ATOM     38  C   UNL     1      -1.431  -0.532   0.005  0.00  0.00    +0.077 C 
ENDBRANCH  24  38
ENDBRANCH  23  28
ENDBRANCH  22  23
ENDBRANCH   1  22
TORSDOF 7
