REMARK  Name = ZINC09831575
REMARK  11 active torsions:
REMARK  status: ('A' for Active; 'I' for Inactive)
REMARK    1  A    between atoms: C_1  and  C_2
REMARK    2  A    between atoms: C_2  and  C_3
REMARK    3  A    between atoms: C_2  and  C_4
REMARK    4  A    between atoms: C_4  and  C_5
REMARK    5  A    between atoms: C_5  and  N_6
REMARK    6  A    between atoms: C_19  and  C_20
REMARK    7  A    between atoms: C_20  and  C_21
REMARK    8  A    between atoms: C_21  and  C_22
REMARK    9  A    between atoms: N_24  and  C_25
REMARK   10  A    between atoms: C_25  and  C_26
REMARK   11  A    between atoms: C_26  and  C_27
REMARK                            x       y       z     vdW  Elec       q    Type
REMARK                         _______ _______ _______ _____ _____    ______ ____
ROOT
ATOM      1  N   UNL     1      -1.284   3.751   3.932  0.00  0.00    -0.277 N 
ATOM      2  C   UNL     1      -0.360   4.732   3.867  0.00  0.00    +0.263 A 
ATOM      3  O   UNL     1      -0.343   5.622   4.696  0.00  0.00    -0.267 OA
ATOM      4  C   UNL     1       0.622   4.713   2.768  0.00  0.00    +0.063 A 
ATOM      5  C   UNL     1       1.593   5.706   2.644  0.00  0.00    +0.015 A 
ATOM      6  C   UNL     1       2.494   5.652   1.602  0.00  0.00    +0.001 A 
ATOM      7  C   UNL     1       2.437   4.618   0.680  0.00  0.00    +0.002 A 
ATOM      8  C   UNL     1       1.480   3.630   0.790  0.00  0.00    +0.027 A 
ATOM      9  C   UNL     1       0.566   3.667   1.832  0.00  0.00    +0.063 A 
ATOM     10  N   UNL     1      -0.410   2.688   1.972  0.00  0.00    -0.264 N 
ATOM     11  C   UNL     1      -1.308   2.733   2.998  0.00  0.00    +0.239 A 
ATOM     12  N   UNL     1      -2.087   1.682   2.867  0.00  0.00    -0.110 NA
ATOM     13  N   UNL     1      -1.734   1.002   1.835  0.00  0.00    -0.132 NA
ATOM     14  C   UNL     1      -0.718   1.572   1.248  0.00  0.00    +0.140 A 
ENDROOT
BRANCH   1  15
ATOM     15  C   UNL     1      -2.265   3.755   5.020  0.00  0.00    +0.128 C 
BRANCH  15  16
ATOM     16  C   UNL     1      -1.702   2.985   6.217  0.00  0.00    +0.025 C 
BRANCH  16  18
ATOM     17  C   UNL     1      -3.971   2.212   6.920  0.00  0.00    +0.007 C 
ATOM     18  C   UNL     1      -2.727   2.989   7.353  0.00  0.00    -0.016 C 
ATOM     19  C   UNL     1      -2.117   2.328   8.591  0.00  0.00    +0.007 C 
ENDBRANCH  16  18
ENDBRANCH  15  16
ENDBRANCH   1  15
BRANCH  14  20
ATOM     20  C   UNL     1      -0.013   1.086   0.008  0.00  0.00    +0.086 C 
BRANCH  20  21
ATOM     21  C   UNL     1       1.229   0.286   0.408  0.00  0.00    +0.103 C 
BRANCH  21  22
ATOM     22  C   UNL     1       1.934  -0.200  -0.832  0.00  0.00    +0.213 C 
ATOM     23  O   UNL     1       1.488   0.067  -1.928  0.00  0.00    -0.276 OA
ATOM     24  N   UNL     1       3.061  -0.931  -0.723  0.00  0.00    -0.315 N 
ATOM     25  H   UNL     1       3.418  -1.144   0.153  0.00  0.00    +0.149 HD
BRANCH  24  26
ATOM     26  C   UNL     1       3.747  -1.403  -1.929  0.00  0.00    +0.109 C 
BRANCH  26  27
ATOM     27  C   UNL     1       4.989  -2.203  -1.529  0.00  0.00    +0.056 C 
BRANCH  27  28
ATOM     28  C   UNL     1       5.694  -2.689  -2.769  0.00  0.00    -0.021 A 
ATOM     29  C   UNL     1       5.551  -3.890  -3.349  0.00  0.00    +0.087 A 
ATOM     30  N   UNL     1       6.350  -3.971  -4.457  0.00  0.00    -0.360 N 
ATOM     31  H   UNL     1       6.416  -4.743  -5.042  0.00  0.00    +0.165 HD
ATOM     32  C   UNL     1       7.051  -2.796  -4.616  0.00  0.00    +0.047 A 
ATOM     33  C   UNL     1       6.670  -1.941  -3.565  0.00  0.00    +0.003 A 
ATOM     34  C   UNL     1       7.227  -0.665  -3.470  0.00  0.00    +0.010 A 
ATOM     35  C   UNL     1       8.139  -0.251  -4.400  0.00  0.00    +0.001 A 
ATOM     36  C   UNL     1       8.518  -1.091  -5.438  0.00  0.00    +0.002 A 
ATOM     37  C   UNL     1       7.981  -2.355  -5.551  0.00  0.00    +0.026 A 
ENDBRANCH  27  28
ENDBRANCH  26  27
ENDBRANCH  24  26
ENDBRANCH  21  22
ENDBRANCH  20  21
ENDBRANCH  14  20
TORSDOF 9
