REMARK  Name = ZINC59590590
REMARK  8 active torsions:
REMARK  status: ('A' for Active; 'I' for Inactive)
REMARK    1  A    between atoms: C_1  and  C_2
REMARK    2  A    between atoms: C_5  and  C_8
REMARK    3  A    between atoms: C_9  and  C_31
REMARK    4  A    between atoms: C_17  and  C_19
REMARK    5  A    between atoms: C_22  and  S_25
REMARK    6  A    between atoms: S_25  and  N_28
REMARK    7  A    between atoms: N_28  and  C_29
REMARK    8  A    between atoms: N_28  and  C_30
REMARK                            x       y       z     vdW  Elec       q    Type
REMARK                         _______ _______ _______ _____ _____    ______ ____
ROOT
ATOM      1  C   UNL     1       0.061  -4.255  -0.021  0.00  0.00    +0.007 A 
ATOM      2  C   UNL     1      -0.987  -4.957  -0.518  0.00  0.00    -0.003 A 
ATOM      3  S   UNL     1      -0.486  -6.654  -0.305  0.00  0.00    -0.073 S 
ATOM      4  C   UNL     1       1.103  -6.385   0.438  0.00  0.00    +0.117 A 
ATOM      5  C   UNL     1       1.210  -4.984   0.499  0.00  0.00    +0.080 A 
ATOM      6  C   UNL     1       2.423  -4.476   1.064  0.00  0.00    +0.261 A 
ATOM      7  O   UNL     1       2.602  -3.274   1.161  0.00  0.00    -0.267 OA
ATOM      8  N   UNL     1       3.363  -5.341   1.486  0.00  0.00    -0.306 N 
ATOM      9  H   UNL     1       4.186  -5.001   1.870  0.00  0.00    +0.170 HD
ATOM     10  C   UNL     1       3.177  -6.692   1.384  0.00  0.00    +0.142 A 
ATOM     11  N   UNL     1       2.067  -7.185   0.877  0.00  0.00    -0.222 NA
ATOM     12  C   UNL     1      -2.269  -4.428  -1.108  0.00  0.00    +0.052 C 
ENDROOT
BRANCH   1  17
ATOM     13  C   UNL     1      -0.018   1.503   0.010  0.00  0.00    +0.044 C 
ATOM     14  C   UNL     1       0.002  -0.004   0.002  0.00  0.00    -0.050 A 
ATOM     15  C   UNL     1       0.006  -0.686  -1.201  0.00  0.00    +0.004 A 
ATOM     16  C   UNL     1       0.025  -2.066  -1.215  0.00  0.00    +0.009 A 
ATOM     17  C   UNL     1       0.041  -2.772  -0.013  0.00  0.00    -0.016 A 
ATOM     18  C   UNL     1       0.037  -2.079   1.196  0.00  0.00    +0.009 A 
ATOM     19  C   UNL     1       0.023  -0.699   1.198  0.00  0.00    +0.004 A 
ENDBRANCH   1  17
BRANCH  10  20
ATOM     20  C   UNL     1       4.232  -7.611   1.859  0.00  0.00    +0.017 A 
ATOM     21  C   UNL     1       5.408  -7.102   2.414  0.00  0.00    +0.013 A 
ATOM     22  C   UNL     1       6.389  -7.965   2.856  0.00  0.00    +0.029 A 
ATOM     23  C   UNL     1       6.209  -9.333   2.750  0.00  0.00    +0.105 A 
ATOM     24  C   UNL     1       5.046  -9.845   2.202  0.00  0.00    +0.029 A 
ATOM     25  C   UNL     1       4.055  -8.992   1.761  0.00  0.00    +0.013 A 
BRANCH  23  26
ATOM     26  S   UNL     1       7.468 -10.429   3.316  0.00  0.00    +0.060 S 
ATOM     27  O   UNL     1       7.293 -11.648   2.608  0.00  0.00    -0.153 OA
ATOM     28  O   UNL     1       8.686  -9.698   3.286  0.00  0.00    -0.153 OA
BRANCH  26  29
ATOM     29  N   UNL     1       7.152 -10.757   4.908  0.00  0.00    -0.183 NA
ATOM     30  C   UNL     1       6.303 -11.895   5.267  0.00  0.00    +0.131 C 
ATOM     31  C   UNL     1       7.722  -9.909   5.958  0.00  0.00    +0.131 C 
ENDBRANCH  26  29
ENDBRANCH  23  26
ENDBRANCH  10  20
TORSDOF 4
