REMARK  Name = ZINC40018335
REMARK  6 active torsions:
REMARK  status: ('A' for Active; 'I' for Inactive)
REMARK    1  A    between atoms: C_1  and  C_2
REMARK    2  A    between atoms: C_4  and  C_24
REMARK    3  A    between atoms: C_8  and  C_12
REMARK    4  A    between atoms: C_13  and  C_14
REMARK    5  A    between atoms: C_17  and  O_20
REMARK    6  A    between atoms: O_20  and  C_21
REMARK                            x       y       z     vdW  Elec       q    Type
REMARK                         _______ _______ _______ _____ _____    ______ ____
ROOT
ATOM      1  C   UNL     1      -0.309   2.335   0.918  0.00  0.00    +0.024 C 
ATOM      2  C   UNL     1      -0.303   0.832   0.628  0.00  0.00    +0.076 C 
ATOM      3  C   UNL     1      -1.700   0.260   0.707  0.00  0.00    -0.045 C 
ATOM      4  C   UNL     1      -1.939  -0.678   1.633  0.00  0.00    +0.071 C 
ATOM      5  C   UNL     1      -0.815  -1.082   2.507  0.00  0.00    +0.112 C 
ATOM      6  N   UNL     1      -0.982  -1.992   3.432  0.00  0.00    -0.222 NA
ATOM      7  C   UNL     1      -2.166  -2.584   3.617  0.00  0.00    +0.165 C 
ATOM      8  N   UNL     1      -3.238  -2.299   2.891  0.00  0.00    -0.156 NA
ATOM      9  C   UNL     1      -3.225  -1.395   1.913  0.00  0.00    +0.272 C 
ATOM     10  O   UNL     1      -4.230  -1.157   1.265  0.00  0.00    -0.268 OA
ATOM     11  S   UNL     1       0.557  -0.092   1.964  0.00  0.00    -0.098 S 
ATOM     12  C   UNL     1      -2.787   0.730  -0.224  0.00  0.00    +0.041 C 
ENDROOT
BRANCH   7  13
ATOM     13  C   UNL     1      -2.284  -3.596   4.672  0.00  0.00    +0.083 C 
ATOM     14  C   UNL     1      -3.465  -4.214   4.886  0.00  0.00    +0.031 C 
ATOM     15 CL   UNL     1      -0.905  -4.000   5.646  0.00  0.00    -0.080 Cl
BRANCH  14  16
ATOM     16  C   UNL     1      -3.629  -5.108   6.041  0.00  0.00    -0.023 A 
ATOM     17  C   UNL     1      -2.944  -4.846   7.234  0.00  0.00    +0.011 A 
ATOM     18  C   UNL     1      -3.101  -5.687   8.313  0.00  0.00    +0.046 A 
ATOM     19  C   UNL     1      -3.938  -6.793   8.220  0.00  0.00    +0.120 A 
ATOM     20  C   UNL     1      -4.620  -7.057   7.038  0.00  0.00    +0.046 A 
ATOM     21  C   UNL     1      -4.475  -6.220   5.955  0.00  0.00    +0.011 A 
BRANCH  19  22
ATOM     22  O   UNL     1      -4.089  -7.618   9.287  0.00  0.00    -0.495 OA
ATOM     23  C   UNL     1      -4.964  -8.736   9.124  0.00  0.00    +0.277 C 
ENDBRANCH  19  22
ENDBRANCH  14  16
ENDBRANCH   7  13
TORSDOF 3
