REMARK  Name = ZINC64107825
REMARK  8 active torsions:
REMARK  status: ('A' for Active; 'I' for Inactive)
REMARK    1  A    between atoms: C_1  and  C_2
REMARK    2  A    between atoms: C_2  and  C_3
REMARK    3  A    between atoms: C_3  and  C_4
REMARK    4  A    between atoms: C_4  and  C_5
REMARK    5  A    between atoms: C_4  and  N_18
REMARK    6  A    between atoms: N_7  and  C_8
REMARK    7  A    between atoms: C_8  and  C_9
REMARK    8  A    between atoms: C_8  and  C_10
REMARK                            x       y       z     vdW  Elec       q    Type
REMARK                         _______ _______ _______ _____ _____    ______ ____
ROOT
ATOM      1  C   UNL     1      -2.820  -2.586   0.139  0.00  0.00    +0.234 C 
ATOM      2  O   UNL     1      -3.423  -2.963  -0.843  0.00  0.00    -0.274 OA
ATOM      3  N   UNL     1      -3.408  -2.634   1.351  0.00  0.00    -0.307 N 
ATOM      4  H   UNL     1      -2.925  -2.332   2.136  0.00  0.00    +0.149 HD
ENDROOT
BRANCH   3   5
ATOM      5  C   UNL     1      -4.776  -3.142   1.481  0.00  0.00    +0.100 C 
ATOM      6  C   UNL     1      -5.768  -2.010   1.207  0.00  0.00    +0.033 C 
BRANCH   5   7
ATOM      7  C   UNL     1      -4.986  -3.666   2.878  0.00  0.00    -0.026 A 
ATOM      8  C   UNL     1      -4.460  -2.983   3.959  0.00  0.00    +0.007 A 
ATOM      9  C   UNL     1      -4.651  -3.463   5.241  0.00  0.00    +0.022 A 
ATOM     10  C   UNL     1      -5.369  -4.628   5.443  0.00  0.00    +0.059 A 
ATOM     11  C   UNL     1      -5.896  -5.312   4.361  0.00  0.00    +0.060 A 
ATOM     12  C   UNL     1      -5.708  -4.827   3.079  0.00  0.00    +0.027 A 
ATOM     13 CL   UNL     1      -6.797  -6.775   4.613  0.00  0.00    -0.082 Cl
ATOM     14 CL   UNL     1      -5.609  -5.232   7.053  0.00  0.00    -0.082 Cl
ENDBRANCH   5   7
ENDBRANCH   3   5
BRANCH   1  15
ATOM     15  C   UNL     1      -1.413  -2.063   0.004  0.00  0.00    +0.160 C 
BRANCH  15  16
ATOM     16  N   UNL     1      -0.834  -2.537  -1.256  0.00  0.00    -0.288 N 
ATOM     17  C   UNL     1      -1.415  -2.213  -2.428  0.00  0.00    +0.298 C 
ATOM     18  O   UNL     1      -2.419  -1.527  -2.439  0.00  0.00    -0.253 OA
ATOM     19  N   UNL     1      -0.883  -2.649  -3.587  0.00  0.00    -0.313 N 
ATOM     20  H   UNL     1      -0.033  -3.084  -1.246  0.00  0.00    +0.151 HD
ATOM     21  H   UNL     1      -0.082  -3.196  -3.577  0.00  0.00    +0.146 HD
ATOM     22  H   UNL     1      -1.301  -2.415  -4.430  0.00  0.00    +0.146 HD
ENDBRANCH  15  16
BRANCH  15  23
ATOM     23  C   UNL     1      -1.433  -0.534   0.013  0.00  0.00    +0.031 C 
BRANCH  23  25
ATOM     24  C   UNL     1      -0.019   1.526   0.010  0.00  0.00    +0.004 C 
ATOM     25  C   UNL     1       0.002  -0.004   0.002  0.00  0.00    -0.001 C 
ENDBRANCH  23  25
ENDBRANCH  15  23
ENDBRANCH   1  15
TORSDOF 6
