REMARK  Name = ZINC01023779
REMARK  4 active torsions:
REMARK  status: ('A' for Active; 'I' for Inactive)
REMARK    1  A    between atoms: C_3  and  N_14
REMARK    2  A    between atoms: C_4  and  N_11
REMARK    3  A    between atoms: C_6  and  C_7
REMARK    4  A    between atoms: C_17  and  C_19
REMARK                            x       y       z     vdW  Elec       q    Type
REMARK                         _______ _______ _______ _____ _____    ______ ____
ROOT
ATOM      1  C   UNL     1      -3.384   2.068   6.484  0.00  0.00    +0.014 A 
ATOM      2  C   UNL     1      -2.609   2.469   5.412  0.00  0.00    +0.030 A 
ATOM      3  C   UNL     1      -2.153   1.530   4.497  0.00  0.00    +0.095 A 
ATOM      4  C   UNL     1      -2.469   0.189   4.668  0.00  0.00    +0.152 A 
ATOM      5  C   UNL     1      -3.240  -0.207   5.743  0.00  0.00    +0.047 A 
ATOM      6  C   UNL     1      -3.697   0.732   6.650  0.00  0.00    +0.057 A 
ENDROOT
BRANCH   3   7
ATOM      7  N   UNL     1      -1.371   1.934   3.407  0.00  0.00    -0.237 N 
ATOM      8  C   UNL     1      -1.831   2.457   2.247  0.00  0.00    +0.115 A 
ATOM      9  C   UNL     1      -0.761   2.717   1.460  0.00  0.00    +0.054 A 
ATOM     10  C   UNL     1       0.390   2.334   2.157  0.00  0.00    +0.166 A 
ATOM     11  N   UNL     1       0.026   1.868   3.325  0.00  0.00    -0.162 NA
BRANCH  10  12
ATOM     12  C   UNL     1       1.806   2.446   1.653  0.00  0.00    +0.436 C 
ATOM     13  F   UNL     1       2.678   1.867   2.581  0.00  0.00    -0.164 F 
ATOM     14  F   UNL     1       2.135   3.795   1.482  0.00  0.00    -0.164 F 
ATOM     15  F   UNL     1       1.919   1.780   0.428  0.00  0.00    -0.164 F 
ENDBRANCH  10  12
ENDBRANCH   3   7
BRANCH   6  16
ATOM     16  C   UNL     1      -4.537   0.297   7.823  0.00  0.00    +0.417 C 
ATOM     17  F   UNL     1      -3.705  -0.002   8.907  0.00  0.00    -0.166 F 
ATOM     18  F   UNL     1      -5.412   1.330   8.178  0.00  0.00    -0.166 F 
ATOM     19  F   UNL     1      -5.274  -0.839   7.473  0.00  0.00    -0.166 F 
ENDBRANCH   6  16
BRANCH   4  20
ATOM     20  N   UNL     1      -1.979  -0.817   3.698  0.00  0.00    +0.059 N 
ATOM     21  O   UNL     1      -2.171  -2.002   3.901  0.00  0.00    -0.126 OA
ATOM     22  O   UNL     1      -1.385  -0.459   2.697  0.00  0.00    -0.126 OA
ENDBRANCH   4  20
TORSDOF 4
