REMARK  Name = ZINC63992818
REMARK  7 active torsions:
REMARK  status: ('A' for Active; 'I' for Inactive)
REMARK    1  A    between atoms: C_1  and  C_2
REMARK    2  A    between atoms: C_2  and  S_3
REMARK    3  A    between atoms: S_3  and  C_6
REMARK    4  A    between atoms: C_11  and  N_12
REMARK    5  A    between atoms: C_15  and  N_18
REMARK    6  A    between atoms: N_18  and  C_19
REMARK    7  A    between atoms: C_22  and  N_24
REMARK                            x       y       z     vdW  Elec       q    Type
REMARK                         _______ _______ _______ _____ _____    ______ ____
ROOT
ATOM      1  N   UNL     1      -0.538  -2.263  -2.432  0.00  0.00    -0.328 N 
ATOM      2  C   UNL     1       0.857  -1.869  -2.670  0.00  0.00    +0.107 C 
ATOM      3  C   UNL     1       0.896  -0.377  -3.013  0.00  0.00    +0.041 C 
ATOM      4  C   UNL     1      -0.043  -0.104  -4.190  0.00  0.00    +0.074 C 
ATOM      5  C   UNL     1      -1.476  -0.471  -3.797  0.00  0.00    +0.041 C 
ATOM      6  C   UNL     1      -1.541  -1.970  -3.465  0.00  0.00    +0.107 C 
ENDROOT
BRANCH   1  12
ATOM      7  C   UNL     1      -0.752  -4.285  -1.132  0.00  0.00    +0.109 A 
ATOM      8  C   UNL     1      -1.109  -4.921   0.041  0.00  0.00    +0.029 A 
ATOM      9  C   UNL     1      -1.623  -4.190   1.097  0.00  0.00    +0.002 A 
ATOM     10  C   UNL     1      -1.780  -2.821   0.982  0.00  0.00    +0.002 A 
ATOM     11  C   UNL     1      -1.425  -2.179  -0.189  0.00  0.00    +0.025 A 
ATOM     12  C   UNL     1      -0.904  -2.910  -1.249  0.00  0.00    +0.055 A 
BRANCH   7  13
ATOM     13  S   UNL     1      -0.098  -5.218  -2.476  0.00  0.00    -0.002 S 
ATOM     14  O   UNL     1       0.040  -6.538  -1.969  0.00  0.00    -0.169 OA
ATOM     15  O   UNL     1       1.041  -4.485  -2.906  0.00  0.00    -0.169 OA
BRANCH  13  17
ATOM     16  C   UNL     1      -0.873  -5.838  -5.025  0.00  0.00    +0.028 C 
ATOM     17  C   UNL     1      -1.390  -5.170  -3.749  0.00  0.00    +0.168 C 
ENDBRANCH  13  17
ENDBRANCH   7  13
ENDBRANCH   1  12
BRANCH   4  18
ATOM     18  N   UNL     1       0.017   1.317  -4.543  0.00  0.00    -0.335 N 
ATOM     19  H   UNL     1       0.279   1.972  -3.877  0.00  0.00    +0.147 HD
BRANCH  18  20
ATOM     20  C   UNL     1      -0.303   1.729  -5.838  0.00  0.00    +0.068 A 
ATOM     21  C   UNL     1      -0.304   2.986  -6.363  0.00  0.00    +0.033 A 
ATOM     22  C   UNL     1      -0.662   3.153  -7.690  0.00  0.00    +0.042 A 
ATOM     23  C   UNL     1      -0.999   2.066  -8.423  0.00  0.00    +0.165 A 
ATOM     24  S   UNL     1      -0.809   0.744  -7.239  0.00  0.00    -0.050 S 
BRANCH  23  25
ATOM     25  N   UNL     1      -1.412   1.992  -9.844  0.00  0.00    +0.063 N 
ATOM     26  O   UNL     1      -1.482   3.001 -10.506  0.00  0.00    -0.126 OA
ATOM     27  O   UNL     1      -1.679   0.923 -10.341  0.00  0.00    -0.126 OA
ENDBRANCH  23  25
ENDBRANCH  18  20
ENDBRANCH   4  18
TORSDOF 6
