REMARK  Name = ZINC66250809
REMARK  4 active torsions:
REMARK  status: ('A' for Active; 'I' for Inactive)
REMARK    1  A    between atoms: C_4  and  S_7
REMARK    2  A    between atoms: S_7  and  N_10
REMARK    3  A    between atoms: C_13  and  C_16
REMARK    4  A    between atoms: C_16  and  N_17
REMARK                            x       y       z     vdW  Elec       q    Type
REMARK                         _______ _______ _______ _____ _____    ______ ____
ROOT
ATOM      1  N   UNL     1       4.378  -1.079   1.536  0.00  0.00    -0.103 NA
ATOM      2  C   UNL     1       5.496  -1.704   1.811  0.00  0.00    +0.191 A 
ATOM      3  N   UNL     1       6.043  -2.015   3.037  0.00  0.00    -0.338 N 
ATOM      4  C   UNL     1       7.234  -2.680   3.067  0.00  0.00    +0.008 A 
ATOM      5  C   UNL     1       7.845  -3.014   1.931  0.00  0.00    +0.068 A 
ATOM      6  S   UNL     1       6.715  -2.387   0.699  0.00  0.00    -0.057 S 
ATOM      7  H   UNL     1       5.592  -1.768   3.859  0.00  0.00    +0.167 HD
ENDROOT
BRANCH   1   8
ATOM      8  S   UNL     1       3.934  -0.832  -0.041  0.00  0.00    +0.101 S 
ATOM      9  O   UNL     1       3.674  -2.114  -0.595  0.00  0.00    -0.146 OA
ATOM     10  O   UNL     1       4.890   0.060  -0.597  0.00  0.00    -0.146 OA
BRANCH   8  14
ATOM     11  C   UNL     1      -0.017   1.378   0.010  0.00  0.00    +0.000 A 
ATOM     12  C   UNL     1       1.171   2.086   0.002  0.00  0.00    +0.002 A 
ATOM     13  C   UNL     1       2.377   1.411  -0.013  0.00  0.00    +0.029 A 
ATOM     14  C   UNL     1       2.396   0.029  -0.020  0.00  0.00    +0.113 A 
ATOM     15  C   UNL     1       1.208  -0.679  -0.012  0.00  0.00    +0.029 A 
ATOM     16  C   UNL     1       0.002  -0.004   0.002  0.00  0.00    +0.002 A 
ENDBRANCH   8  14
ENDBRANCH   1   8
BRANCH   4  17
ATOM     17  C   UNL     1       7.862  -3.037   4.390  0.00  0.00    -0.024 C 
BRANCH  17  18
ATOM     18  N   UNL     1       8.228  -1.807   5.106  0.00  0.00    +0.383 N 
ATOM     19  C   UNL     1       9.212  -1.063   4.296  0.00  0.00    -0.078 C 
ATOM     20  C   UNL     1       9.134   0.394   4.677  0.00  0.00    -0.019 C 
ATOM     21  C   UNL     1      10.199   0.759   5.728  0.00  0.00    -0.002 C 
ATOM     22  C   UNL     1      10.348  -0.341   6.798  0.00  0.00    -0.002 C 
ATOM     23  C   UNL     1       9.020  -0.907   7.229  0.00  0.00    -0.019 C 
ATOM     24  C   UNL     1       8.701  -2.151   6.374  0.00  0.00    -0.078 C 
ATOM     25  H   UNL     1       7.402  -1.237   5.213  0.00  0.00    -0.081 HD
ENDBRANCH  17  18
ENDBRANCH   4  17
TORSDOF 4
