REMARK  Name = ZINC40892505
REMARK  15 active torsions:
REMARK  status: ('A' for Active; 'I' for Inactive)
REMARK    1  A    between atoms: C_1  and  C_2
REMARK    2  A    between atoms: C_2  and  C_3
REMARK    3  A    between atoms: C_2  and  O_4
REMARK    4  A    between atoms: O_4  and  C_5
REMARK    5  A    between atoms: C_7  and  C_18
REMARK    6  A    between atoms: C_10  and  C_11
REMARK    7  A    between atoms: N_13  and  S_14
REMARK    8  A    between atoms: S_14  and  C_17
REMARK    9  A    between atoms: C_21  and  C_24
REMARK   10  A    between atoms: C_24  and  C_25
REMARK   11  A    between atoms: C_25  and  N_26
REMARK   12  A    between atoms: N_26  and  C_27
REMARK   13  A    between atoms: C_27  and  C_28
REMARK   14  A    between atoms: C_28  and  C_30
REMARK   15  A    between atoms: C_28  and  O_36
REMARK                            x       y       z     vdW  Elec       q    Type
REMARK                         _______ _______ _______ _____ _____    ______ ____
ROOT
ATOM      1  C   UNL     1      -3.599  -0.263   3.440  0.00  0.00    -0.018 A 
ATOM      2  C   UNL     1      -4.237   0.082   2.249  0.00  0.00    +0.009 A 
ATOM      3  C   UNL     1      -5.599   0.304   2.238  0.00  0.00    +0.004 A 
ATOM      4  C   UNL     1      -6.331   0.184   3.405  0.00  0.00    -0.049 A 
ATOM      5  C   UNL     1      -5.704  -0.158   4.590  0.00  0.00    +0.004 A 
ATOM      6  C   UNL     1      -4.343  -0.388   4.612  0.00  0.00    +0.009 A 
ENDROOT
BRANCH   1   9
ATOM      7  C   UNL     1      -0.030  -0.599   2.302  0.00  0.00    +0.134 A 
ATOM      8  C   UNL     1      -1.396  -0.377   2.285  0.00  0.00    +0.055 A 
ATOM      9  C   UNL     1      -2.135  -0.502   3.458  0.00  0.00    -0.014 A 
ATOM     10  C   UNL     1      -1.502  -0.853   4.651  0.00  0.00    +0.009 A 
ATOM     11  C   UNL     1      -0.144  -1.075   4.674  0.00  0.00    +0.017 A 
ATOM     12  C   UNL     1       0.603  -0.957   3.499  0.00  0.00    +0.084 A 
BRANCH  12  13
ATOM     13  C   UNL     1       2.059  -1.202   3.522  0.00  0.00    +0.298 C 
ATOM     14  O   UNL     1       2.670  -1.547   4.678  0.00  0.00    -0.264 OA
ATOM     15  N   UNL     1       2.756  -1.086   2.428  0.00  0.00    -0.091 NA
BRANCH  15  16
ATOM     16  S   UNL     1       4.388  -1.360   2.453  0.00  0.00    +0.070 S 
ATOM     17  O   UNL     1       4.914  -0.348   3.300  0.00  0.00    -0.152 OA
ATOM     18  O   UNL     1       4.520  -2.733   2.797  0.00  0.00    -0.152 OA
ATOM     19  C   UNL     1       4.933  -1.089   0.744  0.00  0.00    +0.223 C 
ENDBRANCH  15  16
ENDBRANCH  12  13
BRANCH   7  20
ATOM     20  O   UNL     1       0.693  -0.477   1.160  0.00  0.00    -0.489 OA
BRANCH  20  22
ATOM     21  C   UNL     1      -0.296   1.264  -0.192  0.00  0.00    +0.051 C 
ATOM     22  C   UNL     1      -0.034  -0.236  -0.046  0.00  0.00    +0.167 C 
ATOM     23  C   UNL     1       0.783  -0.730  -1.242  0.00  0.00    +0.051 C 
ENDBRANCH  20  22
ENDBRANCH   7  20
ENDBRANCH   1   9
BRANCH   4  24
ATOM     24  C   UNL     1      -7.818   0.428   3.387  0.00  0.00    +0.016 C 
BRANCH  24  25
ATOM     25  C   UNL     1      -8.547  -0.886   3.097  0.00  0.00    -0.078 C 
BRANCH  25  26
ATOM     26  N   UNL     1      -9.996  -0.648   3.079  0.00  0.00    +0.381 N 
ATOM     27  H   UNL     1     -10.290  -0.292   3.976  0.00  0.00    -0.086 HD
ATOM     28  H   UNL     1     -10.218   0.025   2.360  0.00  0.00    -0.086 HD
BRANCH  26  29
ATOM     29  C   UNL     1     -10.696  -1.909   2.800  0.00  0.00    -0.046 C 
BRANCH  29  30
ATOM     30  C   UNL     1     -12.205  -1.662   2.781  0.00  0.00    +0.129 C 
BRANCH  30  31
ATOM     31  C   UNL     1     -12.923  -2.956   2.495  0.00  0.00    -0.003 A 
ATOM     32  C   UNL     1     -13.292  -3.283   1.199  0.00  0.00    +0.009 A 
ATOM     33  C   UNL     1     -13.950  -4.484   0.983  0.00  0.00    +0.020 A 
ATOM     34  C   UNL     1     -14.215  -5.309   2.059  0.00  0.00    +0.111 A 
ATOM     35  N   UNL     1     -13.850  -4.966   3.279  0.00  0.00    -0.263 NA
ATOM     36  C   UNL     1     -13.217  -3.834   3.520  0.00  0.00    +0.116 A 
ENDBRANCH  30  31
BRANCH  30  37
ATOM     37  O   UNL     1     -12.621  -1.157   4.052  0.00  0.00    -0.389 OA
ATOM     38  H   UNL     1     -12.439  -1.754   4.790  0.00  0.00    +0.210 HD
ENDBRANCH  30  37
ENDBRANCH  29  30
ENDBRANCH  26  29
ENDBRANCH  25  26
ENDBRANCH  24  25
ENDBRANCH   4  24
TORSDOF 12
