REMARK  Name = ZINC13165309
REMARK  8 active torsions:
REMARK  status: ('A' for Active; 'I' for Inactive)
REMARK    1  A    between atoms: C_1  and  C_2
REMARK    2  A    between atoms: C_4  and  C_25
REMARK    3  A    between atoms: C_6  and  S_8
REMARK    4  A    between atoms: S_8  and  C_9
REMARK    5  A    between atoms: C_9  and  C_10
REMARK    6  A    between atoms: N_12  and  C_13
REMARK    7  A    between atoms: C_21  and  C_22
REMARK    8  A    between atoms: C_22  and  C_24
REMARK                            x       y       z     vdW  Elec       q    Type
REMARK                         _______ _______ _______ _____ _____    ______ ____
ROOT
ATOM      1  C   UNL     1       2.464   7.109   0.028  0.00  0.00    +0.228 C 
ATOM      2  O   UNL     1       1.836   7.612   0.935  0.00  0.00    -0.275 OA
ATOM      3  N   UNL     1       3.382   7.835  -0.639  0.00  0.00    -0.281 N 
ATOM      4  H   UNL     1       3.955   7.408  -1.296  0.00  0.00    +0.155 HD
ENDROOT
BRANCH   3   5
ATOM      5  C   UNL     1       3.509   9.193  -0.388  0.00  0.00    +0.090 A 
ATOM      6  C   UNL     1       2.484  10.226  -0.567  0.00  0.00    +0.042 A 
ATOM      7  C   UNL     1       1.155  10.209  -0.995  0.00  0.00    +0.013 A 
ATOM      8  C   UNL     1       0.443  11.375  -1.044  0.00  0.00    +0.001 A 
ATOM      9  C   UNL     1       1.032  12.574  -0.667  0.00  0.00    +0.004 A 
ATOM     10  C   UNL     1       2.341  12.611  -0.237  0.00  0.00    +0.047 A 
ATOM     11  C   UNL     1       3.085  11.437  -0.178  0.00  0.00    +0.138 A 
ATOM     12  O   UNL     1       4.353  11.174   0.193  0.00  0.00    -0.450 OA
ATOM     13  C   UNL     1       4.631   9.855   0.079  0.00  0.00    +0.192 A 
BRANCH  13  14
ATOM     14  C   UNL     1       5.864   9.252   0.387  0.00  0.00    +0.197 C 
ATOM     15  O   UNL     1       5.953   8.041   0.437  0.00  0.00    -0.289 OA
ATOM     16  C   UNL     1       7.076  10.108   0.653  0.00  0.00    +0.095 C 
ENDBRANCH  13  14
ENDBRANCH   3   5
BRANCH   1  17
ATOM     17  C   UNL     1       2.218   5.671  -0.352  0.00  0.00    +0.173 C 
BRANCH  17  18
ATOM     18  S   UNL     1       0.937   4.974   0.720  0.00  0.00    -0.077 S 
BRANCH  18  24
ATOM     19  C   UNL     1       2.519   1.414  -2.596  0.00  0.00    +0.066 C 
ATOM     20  C   UNL     1       1.613   1.782  -1.450  0.00  0.00    +0.043 A 
ATOM     21  C   UNL     1       0.738   0.848  -0.923  0.00  0.00    +0.051 A 
ATOM     22  C   UNL     1      -0.088   1.233   0.137  0.00  0.00    +0.076 A 
ATOM     23  N   UNL     1       0.002   2.475   0.606  0.00  0.00    -0.222 NA
ATOM     24  C   UNL     1       0.854   3.337   0.073  0.00  0.00    +0.189 A 
ATOM     25  N   UNL     1       1.646   3.001  -0.936  0.00  0.00    -0.227 NA
BRANCH  22  26
ATOM     26  C   UNL     1      -1.046   0.271   0.732  0.00  0.00    +0.000 A 
ATOM     27  C   UNL     1      -1.135  -1.028   0.234  0.00  0.00    +0.010 A 
ATOM     28  C   UNL     1      -2.025  -1.921   0.796  0.00  0.00    +0.001 A 
ATOM     29  C   UNL     1      -2.836  -1.526   1.844  0.00  0.00    +0.000 A 
ATOM     30  C   UNL     1      -2.757  -0.236   2.339  0.00  0.00    +0.001 A 
ATOM     31  C   UNL     1      -1.866   0.663   1.789  0.00  0.00    +0.010 A 
ENDBRANCH  22  26
ENDBRANCH  18  24
ENDBRANCH  17  18
ENDBRANCH   1  17
TORSDOF 6
