REMARK  Name = ZINC44737563
REMARK  8 active torsions:
REMARK  status: ('A' for Active; 'I' for Inactive)
REMARK    1  A    between atoms: C_1  and  C_2
REMARK    2  A    between atoms: C_9  and  C_11
REMARK    3  A    between atoms: C_11  and  C_13
REMARK    4  A    between atoms: C_11  and  N_14
REMARK    5  A    between atoms: C_15  and  C_17
REMARK    6  A    between atoms: C_28  and  C_30
REMARK    7  A    between atoms: C_31  and  C_36
REMARK    8  A    between atoms: C_34  and  C_35
REMARK                            x       y       z     vdW  Elec       q    Type
REMARK                         _______ _______ _______ _____ _____    ______ ____
ROOT
ATOM      1  C   UNL     1       1.878  -8.733   0.984  0.00  0.00    +0.100 C 
ATOM      2  C   UNL     1       2.964  -8.094   0.090  0.00  0.00    +0.121 C 
ATOM      3  N   UNL     1       4.235  -8.339   0.812  0.00  0.00    -0.296 N 
ATOM      4  C   UNL     1       4.091  -9.712   1.355  0.00  0.00    +0.115 C 
ATOM      5  C   UNL     1       2.621  -9.797   1.809  0.00  0.00    -0.004 C 
ATOM      6  C   UNL     1       2.057 -11.184   1.515  0.00  0.00    -0.010 C 
ATOM      7  C   UNL     1       2.772 -12.217   2.390  0.00  0.00    -0.082 C 
ATOM      8  N   UNL     1       2.580 -11.879   3.806  0.00  0.00    +0.379 N 
ATOM      9  C   UNL     1       3.207 -10.585   4.101  0.00  0.00    -0.082 C 
ATOM     10  C   UNL     1       2.511  -9.483   3.298  0.00  0.00    -0.010 C 
ATOM     11  C   UNL     1       5.284  -7.504   0.945  0.00  0.00    +0.252 C 
ATOM     12  O   UNL     1       6.264  -7.854   1.573  0.00  0.00    -0.270 OA
ATOM     13  H   UNL     1       1.592 -11.826   4.007  0.00  0.00    -0.086 HD
ATOM     14  H   UNL     1       2.999 -12.594   4.381  0.00  0.00    -0.086 HD
ENDROOT
BRANCH  11  15
ATOM     15  C   UNL     1       5.243  -6.165   0.329  0.00  0.00    +0.101 A 
ATOM     16  C   UNL     1       4.751  -4.934   0.950  0.00  0.00    +0.093 A 
ATOM     17  N   UNL     1       4.889  -3.983   0.074  0.00  0.00    -0.083 NA
ATOM     18  O   UNL     1       5.452  -4.527  -1.103  0.00  0.00    -0.359 OA
ATOM     19  C   UNL     1       5.662  -5.835  -0.928  0.00  0.00    +0.147 A 
ATOM     20  C   UNL     1       6.253  -6.780  -1.941  0.00  0.00    +0.090 C 
ATOM     21  C   UNL     1       4.190  -4.795   2.341  0.00  0.00    +0.070 C 
ENDBRANCH  11  15
BRANCH   1  23
ATOM     22  N   UNL     1       0.005  -7.850   2.337  0.00  0.00    -0.305 N 
ATOM     23  C   UNL     1       1.268  -7.697   1.892  0.00  0.00    +0.219 C 
ATOM     24  O   UNL     1       1.913  -6.724   2.222  0.00  0.00    -0.275 OA
ATOM     25  H   UNL     1      -0.511  -8.628   2.073  0.00  0.00    +0.149 HD
BRANCH  22  26
ATOM     26  C   UNL     1      -0.588  -6.842   3.220  0.00  0.00    +0.136 C 
ATOM     27  C   UNL     1      -0.197  -7.139   4.669  0.00  0.00    +0.036 C 
BRANCH  26  36
ATOM     28  C   UNL     1      -7.945  -5.749   2.967  0.00  0.00    +0.044 C 
ATOM     29  C   UNL     1      -6.587  -6.395   2.874  0.00  0.00    -0.048 A 
ATOM     30  C   UNL     1      -6.478  -7.717   2.467  0.00  0.00    +0.005 A 
ATOM     31  C   UNL     1      -5.256  -8.320   2.376  0.00  0.00    +0.030 A 
ATOM     32  C   UNL     1      -4.100  -7.603   2.696  0.00  0.00    +0.089 A 
ATOM     33  C   UNL     1      -4.209  -6.264   3.108  0.00  0.00    +0.067 A 
ATOM     34  C   UNL     1      -5.459  -5.666   3.189  0.00  0.00    +0.031 A 
ATOM     35  N   UNL     1      -2.920  -5.833   3.348  0.00  0.00    -0.340 N 
ATOM     36  C   UNL     1      -2.089  -6.878   3.087  0.00  0.00    +0.128 A 
ATOM     37  N   UNL     1      -2.778  -7.914   2.705  0.00  0.00    -0.231 NA
ATOM     38  H   UNL     1      -2.655  -4.949   3.647  0.00  0.00    +0.167 HD
ENDBRANCH  26  36
ENDBRANCH  22  26
ENDBRANCH   1  23
TORSDOF 4
