REMARK  Name = ZINC39676975
REMARK  8 active torsions:
REMARK  status: ('A' for Active; 'I' for Inactive)
REMARK    1  A    between atoms: C_1  and  C_2
REMARK    2  A    between atoms: C_5  and  C_35
REMARK    3  A    between atoms: C_6  and  C_8
REMARK    4  A    between atoms: C_8  and  C_9
REMARK    5  A    between atoms: C_9  and  N_10
REMARK    6  A    between atoms: C_11  and  C_13
REMARK    7  A    between atoms: C_24  and  C_26
REMARK    8  A    between atoms: C_30  and  C_33
REMARK                            x       y       z     vdW  Elec       q    Type
REMARK                         _______ _______ _______ _____ _____    ______ ____
ROOT
ATOM      1  C   UNL     1       2.701  -5.104   5.948  0.00  0.00    +0.100 C 
ATOM      2  C   UNL     1       1.844  -6.385   5.833  0.00  0.00    +0.121 C 
ATOM      3  N   UNL     1       2.811  -7.453   5.485  0.00  0.00    -0.296 N 
ATOM      4  C   UNL     1       4.011  -7.143   6.299  0.00  0.00    +0.115 C 
ATOM      5  C   UNL     1       4.121  -5.606   6.257  0.00  0.00    -0.004 C 
ATOM      6  C   UNL     1       4.587  -5.073   7.609  0.00  0.00    -0.010 C 
ATOM      7  C   UNL     1       6.024  -5.536   7.867  0.00  0.00    -0.082 C 
ATOM      8  N   UNL     1       6.899  -5.045   6.797  0.00  0.00    +0.379 N 
ATOM      9  C   UNL     1       6.501  -5.636   5.513  0.00  0.00    -0.082 C 
ATOM     10  C   UNL     1       5.085  -5.176   5.155  0.00  0.00    -0.010 C 
ATOM     11  C   UNL     1       2.639  -8.474   4.623  0.00  0.00    +0.252 C 
ATOM     12  O   UNL     1       3.535  -9.276   4.443  0.00  0.00    -0.270 OA
ATOM     13  H   UNL     1       6.827  -4.040   6.740  0.00  0.00    -0.086 HD
ATOM     14  H   UNL     1       7.854  -5.299   7.001  0.00  0.00    -0.086 HD
ENDROOT
BRANCH  11  15
ATOM     15  C   UNL     1       1.363  -8.620   3.897  0.00  0.00    +0.107 A 
ATOM     16  C   UNL     1       1.189  -8.009   2.650  0.00  0.00    +0.138 A 
ATOM     17  C   UNL     1      -0.010  -8.151   1.977  0.00  0.00    +0.039 A 
ATOM     18  C   UNL     1      -1.036  -8.894   2.533  0.00  0.00    +0.009 A 
ATOM     19  C   UNL     1      -0.873  -9.501   3.764  0.00  0.00    -0.014 A 
ATOM     20  C   UNL     1       0.322  -9.374   4.449  0.00  0.00    +0.141 A 
ATOM     21  F   UNL     1       0.481  -9.972   5.650  0.00  0.00    -0.204 F 
ATOM     22  C   UNL     1      -1.998 -10.307   4.360  0.00  0.00    +0.047 C 
ATOM     23  F   UNL     1       2.189  -7.283   2.106  0.00  0.00    -0.205 F 
ENDBRANCH  11  15
BRANCH   1  25
ATOM     24  N   UNL     1       2.845  -3.006   4.647  0.00  0.00    -0.315 N 
ATOM     25  C   UNL     1       2.684  -4.344   4.647  0.00  0.00    +0.218 C 
ATOM     26  O   UNL     1       2.526  -4.936   3.600  0.00  0.00    -0.275 OA
ATOM     27  H   UNL     1       2.972  -2.532   5.484  0.00  0.00    +0.149 HD
BRANCH  24  28
ATOM     28  C   UNL     1       2.829  -2.267   3.382  0.00  0.00    +0.109 C 
BRANCH  28  29
ATOM     29  C   UNL     1       3.032  -0.776   3.660  0.00  0.00    +0.054 C 
BRANCH  29  35
ATOM     30  C   UNL     1       5.483   1.303  -0.176  0.00  0.00    +0.044 C 
ATOM     31  C   UNL     1       4.189   0.980   0.524  0.00  0.00    -0.050 A 
ATOM     32  C   UNL     1       2.986   1.381  -0.027  0.00  0.00    +0.003 A 
ATOM     33  C   UNL     1       1.798   1.085   0.616  0.00  0.00    +0.004 A 
ATOM     34  C   UNL     1       1.813   0.387   1.809  0.00  0.00    -0.047 A 
ATOM     35  C   UNL     1       3.016  -0.015   2.359  0.00  0.00    -0.043 A 
ATOM     36  C   UNL     1       4.204   0.278   1.714  0.00  0.00    +0.007 A 
ATOM     37  C   UNL     1       0.519   0.064   2.510  0.00  0.00    +0.044 C 
ENDBRANCH  29  35
ENDBRANCH  28  29
ENDBRANCH  24  28
ENDBRANCH   1  25
TORSDOF 5
