REMARK  Name = ZINC36046430
REMARK  3 active torsions:
REMARK  status: ('A' for Active; 'I' for Inactive)
REMARK    1  A    between atoms: C_18  and  C_21
REMARK    2  A    between atoms: C_24  and  O_30
REMARK    3  A    between atoms: C_25  and  N_27
REMARK                            x       y       z     vdW  Elec       q    Type
REMARK                         _______ _______ _______ _____ _____    ______ ____
ROOT
ATOM      1  C   UNL     1      -0.016   1.357   0.009  0.00  0.00    +0.001 A 
ATOM      2  C   UNL     1       1.168   2.091   0.002  0.00  0.00    +0.001 A 
ATOM      3  C   UNL     1       2.378   1.469  -0.015  0.00  0.00    +0.009 A 
ATOM      4  C   UNL     1       2.436   0.064  -0.027  0.00  0.00    -0.012 A 
ATOM      5  C   UNL     1       1.233  -0.682  -0.013  0.00  0.00    -0.017 A 
ATOM      6  C   UNL     1       0.002  -0.004   0.002  0.00  0.00    +0.008 A 
ATOM      7  C   UNL     1       1.291  -2.086  -0.013  0.00  0.00    +0.010 A 
ATOM      8  C   UNL     1       2.496  -2.709  -0.023  0.00  0.00    +0.024 A 
ATOM      9  C   UNL     1       3.695  -1.978  -0.040  0.00  0.00    +0.032 A 
ATOM     10  C   UNL     1       3.677  -0.606  -0.055  0.00  0.00    -0.012 A 
ATOM     11  C   UNL     1       4.932   0.218  -0.120  0.00  0.00    +0.049 C 
ATOM     12  C   UNL     1       4.777   1.212  -1.260  0.00  0.00    -0.023 C 
ATOM     13  C   UNL     1       5.441   0.812  -2.313  0.00  0.00    -0.030 C 
ATOM     14  C   UNL     1       6.149  -0.498  -2.041  0.00  0.00    +0.033 C 
ATOM     15  C   UNL     1       6.169  -0.597  -0.484  0.00  0.00    +0.029 C 
ATOM     16  C   UNL     1       6.189  -2.012   0.014  0.00  0.00    +0.105 C 
ATOM     17  N   UNL     1       4.900  -2.673  -0.033  0.00  0.00    -0.336 N 
ATOM     18  H   UNL     1       4.875  -3.643  -0.039  0.00  0.00    +0.147 HD
ENDROOT
BRANCH  16  19
ATOM     19  C   UNL     1       7.140  -2.807  -0.844  0.00  0.00    -0.025 A 
ATOM     20  C   UNL     1       6.734  -3.265  -2.083  0.00  0.00    +0.009 A 
ATOM     21  C   UNL     1       7.604  -3.993  -2.871  0.00  0.00    +0.048 A 
ATOM     22  C   UNL     1       8.887  -4.264  -2.418  0.00  0.00    +0.147 A 
ATOM     23  C   UNL     1       9.292  -3.803  -1.174  0.00  0.00    +0.168 A 
ATOM     24  C   UNL     1       8.420  -3.071  -0.392  0.00  0.00    +0.042 A 
BRANCH  23  25
ATOM     25  N   UNL     1      10.660  -4.091  -0.687  0.00  0.00    +0.060 N 
ATOM     26  O   UNL     1      11.013  -3.689   0.397  0.00  0.00    -0.126 OA
ATOM     27  O   UNL     1      11.424  -4.729  -1.373  0.00  0.00    -0.126 OA
ENDBRANCH  23  25
BRANCH  22  28
ATOM     28  O   UNL     1       9.745  -4.981  -3.191  0.00  0.00    -0.504 OA
ATOM     29  H   UNL     1      10.282  -4.441  -3.786  0.00  0.00    +0.292 HD
ENDBRANCH  22  28
ENDBRANCH  16  19
TORSDOF 3
