REMARK  Name = ZINC11911776
REMARK  11 active torsions:
REMARK  status: ('A' for Active; 'I' for Inactive)
REMARK    1  A    between atoms: C_1  and  C_2
REMARK    2  A    between atoms: C_2  and  C_3
REMARK    3  A    between atoms: C_3  and  C_14
REMARK    4  A    between atoms: N_6  and  C_10
REMARK    5  A    between atoms: C_10  and  C_11
REMARK    6  A    between atoms: C_11  and  C_13
REMARK    7  A    between atoms: C_19  and  C_20
REMARK    8  A    between atoms: C_19  and  N_66
REMARK    9  A    between atoms: C_25  and  C_26
REMARK   10  A    between atoms: C_29  and  O_32
REMARK   11  A    between atoms: O_32  and  C_33
REMARK                            x       y       z     vdW  Elec       q    Type
REMARK                         _______ _______ _______ _____ _____    ______ ____
ROOT
ATOM      1  C   UNL     1      -1.478  -0.359   0.314  0.00  0.00    +0.018 C 
ATOM      2  C   UNL     1      -2.941  -0.036   0.631  0.00  0.00    -0.013 C 
ATOM      3  C   UNL     1      -3.296  -0.599   2.009  0.00  0.00    -0.078 C 
ATOM      4  C   UNL     1      -1.009  -0.344   2.767  0.00  0.00    -0.078 C 
ATOM      5  C   UNL     1      -0.586   0.227   1.411  0.00  0.00    -0.013 C 
ATOM      6  N   UNL     1      -2.419   0.023   3.022  0.00  0.00    +0.382 N 
ATOM      7  H   UNL     1      -2.513   1.043   2.963  0.00  0.00    -0.081 HD
ENDROOT
BRANCH   1   8
ATOM      8  C   UNL     1      -1.099   0.254  -1.035  0.00  0.00    +0.115 C 
ATOM      9  C   UNL     1      -1.147   1.768  -0.965  0.00  0.00    +0.247 C 
ATOM     10  O   UNL     1      -2.113   2.460  -0.729  0.00  0.00    -0.273 OA
ATOM     11  N   UNL     1       0.108   2.183  -1.227  0.00  0.00    -0.220 N 
ATOM     12  C   UNL     1       0.933   1.154  -1.450  0.00  0.00    +0.310 C 
ATOM     13  O   UNL     1       2.115   1.278  -1.707  0.00  0.00    -0.252 OA
ATOM     14  N   UNL     1       0.309  -0.034  -1.358  0.00  0.00    -0.285 N 
ATOM     15  H   UNL     1       0.708  -0.910  -1.481  0.00  0.00    +0.151 HD
BRANCH   8  17
ATOM     16  C   UNL     1      -1.518   0.222  -3.498  0.00  0.00    +0.006 C 
ATOM     17  C   UNL     1      -2.025  -0.263  -2.138  0.00  0.00    +0.032 C 
ENDBRANCH   8  17
BRANCH  11  18
ATOM     18  C   UNL     1       0.518   3.590  -1.264  0.00  0.00    +0.148 C 
BRANCH  18  19
ATOM     19  C   UNL     1       0.966   4.018   0.110  0.00  0.00    -0.062 C 
ATOM     20  C   UNL     1       2.236   3.981   0.427  0.00  0.00    +0.009 C 
ATOM     21  C   UNL     1      -0.049   4.490   1.119  0.00  0.00    +0.040 C 
ENDBRANCH  18  19
ENDBRANCH  11  18
ENDBRANCH   1   8
BRANCH   6  22
ATOM     22  C   UNL     1      -2.817  -0.419   4.375  0.00  0.00    -0.039 C 
BRANCH  22  23
ATOM     23  C   UNL     1      -4.287  -0.147   4.566  0.00  0.00    -0.019 A 
ATOM     24  C   UNL     1      -5.271  -1.073   4.590  0.00  0.00    +0.107 A 
ATOM     25  N   UNL     1      -6.443  -0.431   4.786  0.00  0.00    -0.284 N 
ATOM     26  H   UNL     1      -7.343  -0.861   4.854  0.00  0.00    +0.188 HD
ATOM     27  N   UNL     1      -6.178   0.942   4.878  0.00  0.00    -0.174 NA
ATOM     28  C   UNL     1      -4.880   1.118   4.746  0.00  0.00    +0.094 A 
BRANCH  28  29
ATOM     29  C   UNL     1      -4.167   2.419   4.782  0.00  0.00    +0.003 A 
ATOM     30  C   UNL     1      -2.976   2.543   5.494  0.00  0.00    +0.013 A 
ATOM     31  C   UNL     1      -2.314   3.753   5.521  0.00  0.00    +0.046 A 
ATOM     32  C   UNL     1      -2.838   4.848   4.848  0.00  0.00    +0.120 A 
ATOM     33  C   UNL     1      -4.027   4.729   4.142  0.00  0.00    +0.046 A 
ATOM     34  C   UNL     1      -4.691   3.520   4.107  0.00  0.00    +0.013 A 
BRANCH  32  35
ATOM     35  O   UNL     1      -2.186   6.040   4.881  0.00  0.00    -0.495 OA
ATOM     36  C   UNL     1      -0.967   6.092   5.627  0.00  0.00    +0.277 C 
ENDBRANCH  32  35
ENDBRANCH  28  29
ENDBRANCH  22  23
ENDBRANCH   6  22
TORSDOF 8
