REMARK  Name = ZINC36567380
REMARK  10 active torsions:
REMARK  status: ('A' for Active; 'I' for Inactive)
REMARK    1  A    between atoms: C_1  and  C_2
REMARK    2  A    between atoms: C_2  and  C_3
REMARK    3  A    between atoms: C_3  and  N_4
REMARK    4  A    between atoms: N_4  and  C_5
REMARK    5  A    between atoms: C_5  and  C_7
REMARK    6  A    between atoms: C_5  and  C_16
REMARK    7  A    between atoms: C_10  and  N_13
REMARK    8  A    between atoms: N_18  and  C_19
REMARK    9  A    between atoms: C_25  and  C_27
REMARK   10  A    between atoms: C_27  and  C_28
REMARK                            x       y       z     vdW  Elec       q    Type
REMARK                         _______ _______ _______ _____ _____    ______ ____
ROOT
ATOM      1  C   UNL     1      -1.291  -2.821   1.087  0.00  0.00    +0.192 C 
ENDROOT
BRANCH   1   2
ATOM      2  C   UNL     1      -0.271  -3.570   1.906  0.00  0.00    -0.018 A 
ATOM      3  C   UNL     1       0.521  -2.892   2.813  0.00  0.00    +0.008 A 
ATOM      4  C   UNL     1       1.456  -3.579   3.564  0.00  0.00    +0.033 A 
ATOM      5  C   UNL     1       1.598  -4.945   3.409  0.00  0.00    +0.126 A 
ATOM      6  C   UNL     1       0.806  -5.624   2.502  0.00  0.00    +0.033 A 
ATOM      7  C   UNL     1      -0.132  -4.937   1.754  0.00  0.00    +0.008 A 
BRANCH   5   8
ATOM      8  N   UNL     1       2.600  -5.681   4.212  0.00  0.00    +0.056 N 
ATOM      9  O   UNL     1       3.294  -5.088   5.005  0.00  0.00    -0.126 OA
ATOM     10  O   UNL     1       2.725  -6.876   4.076  0.00  0.00    -0.126 OA
ENDBRANCH   5   8
ENDBRANCH   1   2
BRANCH   1  11
ATOM     11  C   UNL     1      -2.553  -2.648   1.892  0.00  0.00    +0.238 C 
ATOM     12  O   UNL     1      -3.465  -1.980   1.454  0.00  0.00    -0.273 OA
ATOM     13  N   UNL     1      -2.668  -3.236   3.100  0.00  0.00    -0.311 N 
ATOM     14  H   UNL     1      -1.938  -3.770   3.451  0.00  0.00    +0.149 HD
BRANCH  13  15
ATOM     15  C   UNL     1      -3.895  -3.068   3.882  0.00  0.00    +0.073 C 
ATOM     16  C   UNL     1      -3.814  -1.768   4.686  0.00  0.00    +0.022 C 
ATOM     17  C   UNL     1      -5.095  -1.593   5.503  0.00  0.00    +0.002 C 
ATOM     18  C   UNL     1      -5.255  -2.776   6.461  0.00  0.00    +0.000 C 
ATOM     19  C   UNL     1      -5.337  -4.075   5.657  0.00  0.00    +0.002 C 
ATOM     20  C   UNL     1      -4.055  -4.250   4.840  0.00  0.00    +0.022 C 
ENDBRANCH  13  15
ENDBRANCH   1  11
BRANCH   1  21
ATOM     21  N   UNL     1      -0.757  -1.505   0.728  0.00  0.00    -0.286 N 
ATOM     22  C   UNL     1       0.374  -1.412   0.001  0.00  0.00    +0.221 C 
ATOM     23  O   UNL     1       0.950  -2.418  -0.355  0.00  0.00    -0.275 OA
BRANCH  21  24
ATOM     24  C   UNL     1      -1.452  -0.289   1.160  0.00  0.00    +0.108 C 
BRANCH  24  26
ATOM     25  C   UNL     1      -2.010   1.150   3.124  0.00  0.00    +0.005 C 
ATOM     26  C   UNL     1      -1.209  -0.066   2.654  0.00  0.00    +0.016 C 
ENDBRANCH  24  26
ENDBRANCH  21  24
BRANCH  22  27
ATOM     27  C   UNL     1       0.924  -0.058  -0.368  0.00  0.00    +0.131 C 
BRANCH  27  28
ATOM     28  C   UNL     1       2.185  -0.231  -1.175  0.00  0.00    -0.039 A 
ATOM     29  C   UNL     1       3.409  -0.303  -0.537  0.00  0.00    +0.005 A 
ATOM     30  C   UNL     1       4.566  -0.462  -1.277  0.00  0.00    +0.015 A 
ATOM     31  C   UNL     1       4.498  -0.549  -2.656  0.00  0.00    +0.018 A 
ATOM     32  C   UNL     1       3.273  -0.476  -3.293  0.00  0.00    +0.015 A 
ATOM     33  C   UNL     1       2.116  -0.323  -2.553  0.00  0.00    +0.005 A 
ATOM     34 BR   UNL     1       6.080  -0.765  -3.668  0.00  0.00    -0.050 Br
ENDBRANCH  27  28
ENDBRANCH  22  27
ENDBRANCH   1  21
TORSDOF 9
