REMARK  Name = ZINC63743223
REMARK  7 active torsions:
REMARK  status: ('A' for Active; 'I' for Inactive)
REMARK    1  A    between atoms: C_1  and  C_2
REMARK    2  A    between atoms: C_7  and  C_32
REMARK    3  A    between atoms: C_10  and  N_12
REMARK    4  A    between atoms: C_15  and  C_18
REMARK    5  A    between atoms: N_20  and  C_21
REMARK    6  A    between atoms: C_21  and  C_22
REMARK    7  A    between atoms: C_22  and  C_23
REMARK                            x       y       z     vdW  Elec       q    Type
REMARK                         _______ _______ _______ _____ _____    ______ ____
ROOT
ATOM      1  N   UNL     1       0.327  -2.746   2.433  0.00  0.00    -0.317 N 
ATOM      2  C   UNL     1       0.536  -4.200   2.409  0.00  0.00    +0.107 C 
ATOM      3  C   UNL     1      -0.602  -4.875   3.179  0.00  0.00    +0.031 C 
ATOM      4  C   UNL     1      -0.688  -4.276   4.585  0.00  0.00    +0.078 C 
ATOM      5  C   UNL     1      -0.993  -2.780   4.486  0.00  0.00    +0.031 C 
ATOM      6  C   UNL     1       0.147  -2.079   3.731  0.00  0.00    +0.107 C 
ENDROOT
BRANCH   1  15
ATOM      7  C   UNL     1       1.557  -2.132  -2.273  0.00  0.00    +0.065 C 
ATOM      8  C   UNL     1       0.982  -1.580  -0.994  0.00  0.00    +0.038 C 
ATOM      9  N   UNL     1       0.450  -0.391  -1.018  0.00  0.00    -0.260 NA
ATOM     10  C   UNL     1      -0.066   0.215   0.211  0.00  0.00    +0.236 C 
ATOM     11  C   UNL     1      -1.351   0.966  -0.036  0.00  0.00    +0.045 C 
ATOM     12  C   UNL     1      -2.260   0.481   0.813  0.00  0.00    +0.051 C 
ATOM     13  N   UNL     1      -1.724  -0.535   1.604  0.00  0.00    -0.261 N 
ATOM     14  N   UNL     1      -0.460  -0.892   1.110  0.00  0.00    -0.212 N 
ATOM     15  C   UNL     1       0.304  -2.022   1.266  0.00  0.00    +0.109 C 
ATOM     16  C   UNL     1       1.042  -2.375   0.159  0.00  0.00    +0.063 C 
ATOM     17  H   UNL     1      -2.151  -0.928   2.381  0.00  0.00    +0.170 HD
BRANCH  12  18
ATOM     18  C   UNL     1      -3.659   0.960   0.903  0.00  0.00    -0.003 A 
ATOM     19  C   UNL     1      -4.104   1.980   0.063  0.00  0.00    +0.012 A 
ATOM     20  C   UNL     1      -5.408   2.422   0.150  0.00  0.00    +0.039 A 
ATOM     21  C   UNL     1      -6.274   1.856   1.072  0.00  0.00    +0.123 A 
ATOM     22  C   UNL     1      -5.836   0.842   1.909  0.00  0.00    +0.039 A 
ATOM     23  C   UNL     1      -4.536   0.389   1.825  0.00  0.00    +0.012 A 
ATOM     24  F   UNL     1      -7.550   2.293   1.154  0.00  0.00    -0.205 F 
ENDBRANCH  12  18
ENDBRANCH   1  15
BRANCH   4  25
ATOM     25  C   UNL     1      -1.785  -4.962   5.357  0.00  0.00    +0.216 C 
ATOM     26  O   UNL     1      -2.434  -5.843   4.835  0.00  0.00    -0.276 OA
ATOM     27  N   UNL     1      -2.044  -4.596   6.629  0.00  0.00    -0.315 N 
ATOM     28  H   UNL     1      -1.524  -3.892   7.046  0.00  0.00    +0.149 HD
BRANCH  27  29
ATOM     29  C   UNL     1      -3.111  -5.263   7.380  0.00  0.00    +0.108 C 
BRANCH  29  30
ATOM     30  C   UNL     1      -3.196  -4.664   8.785  0.00  0.00    +0.052 C 
BRANCH  30  31
ATOM     31  C   UNL     1      -4.293  -5.350   9.557  0.00  0.00    -0.040 C 
ATOM     32  C   UNL     1      -4.159  -6.393  10.408  0.00  0.00    -0.001 A 
ATOM     33  C   UNL     1      -2.997  -7.173  10.850  0.00  0.00    +0.010 A 
ATOM     34  C   UNL     1      -3.181  -8.184  11.729  0.00  0.00    +0.001 A 
ATOM     35  C   UNL     1      -4.451  -8.505  12.227  0.00  0.00    +0.002 A 
ATOM     36  C   UNL     1      -5.566  -7.835  11.868  0.00  0.00    +0.026 A 
ATOM     37  C   UNL     1      -5.489  -6.752  10.949  0.00  0.00    +0.043 A 
ATOM     38  N   UNL     1      -6.410  -5.962  10.453  0.00  0.00    -0.380 N 
ATOM     39  C   UNL     1      -5.766  -5.007   9.544  0.00  0.00    +0.144 C 
ATOM     40  H   UNL     1      -7.358  -5.999  10.656  0.00  0.00    +0.160 HD
ENDBRANCH  30  31
ENDBRANCH  29  30
ENDBRANCH  27  29
ENDBRANCH   4  25
TORSDOF 6
