REMARK  Name = ZINC39930561
REMARK  5 active torsions:
REMARK  status: ('A' for Active; 'I' for Inactive)
REMARK    1  A    between atoms: C_12  and  N_15
REMARK    2  A    between atoms: C_16  and  C_18
REMARK    3  A    between atoms: C_19  and  C_27
REMARK    4  A    between atoms: C_27  and  S_28
REMARK    5  A    between atoms: S_28  and  C_29
REMARK                            x       y       z     vdW  Elec       q    Type
REMARK                         _______ _______ _______ _____ _____    ______ ____
ROOT
ATOM      1  N   UNL     1       6.952  -0.604   1.139  0.00  0.00    -0.282 N 
ATOM      2  C   UNL     1       8.222  -1.053   1.179  0.00  0.00    +0.282 C 
ATOM      3  O   UNL     1       8.694  -1.632   0.218  0.00  0.00    -0.267 OA
ATOM      4  H   UNL     1       6.577  -0.142   1.905  0.00  0.00    +0.152 HD
ENDROOT
BRANCH   1  16
ATOM      5  C   UNL     1      -0.016   1.357   0.009  0.00  0.00    +0.001 A 
ATOM      6  C   UNL     1       1.168   2.091   0.002  0.00  0.00    +0.001 A 
ATOM      7  C   UNL     1       2.378   1.468  -0.013  0.00  0.00    +0.010 A 
ATOM      8  C   UNL     1       2.434   0.064  -0.021  0.00  0.00    +0.004 A 
ATOM      9  C   UNL     1       1.236  -0.683  -0.013  0.00  0.00    -0.016 A 
ATOM     10  C   UNL     1       0.002  -0.004   0.002  0.00  0.00    +0.008 A 
ATOM     11  C   UNL     1       1.278  -2.088  -0.022  0.00  0.00    +0.010 A 
ATOM     12  C   UNL     1       2.490  -2.712  -0.037  0.00  0.00    +0.017 A 
ATOM     13  C   UNL     1       3.670  -1.982  -0.044  0.00  0.00    +0.033 A 
ATOM     14  C   UNL     1       3.702  -0.594  -0.037  0.00  0.00    +0.051 A 
ATOM     15  N   UNL     1       4.942   0.039  -0.045  0.00  0.00    -0.316 N 
ATOM     16  C   UNL     1       6.139  -0.813  -0.061  0.00  0.00    +0.224 C 
ATOM     17  S   UNL     1       5.377  -2.485  -0.063  0.00  0.00    -0.082 S 
ATOM     18  H   UNL     1       5.013   1.007  -0.041  0.00  0.00    +0.149 HD
ENDBRANCH   1  16
BRANCH   2  19
ATOM     19  C   UNL     1       9.038  -0.843   2.384  0.00  0.00    +0.194 A 
ATOM     20  C   UNL     1      10.327  -1.245   2.535  0.00  0.00    +0.021 A 
ATOM     21  C   UNL     1      10.727  -0.827   3.878  0.00  0.00    +0.025 A 
ATOM     22  C   UNL     1      11.903  -0.940   4.623  0.00  0.00    +0.012 A 
ATOM     23  C   UNL     1      11.955  -0.428   5.888  0.00  0.00    +0.001 A 
ATOM     24  C   UNL     1      10.847   0.203   6.438  0.00  0.00    +0.004 A 
ATOM     25  C   UNL     1       9.677   0.324   5.720  0.00  0.00    +0.047 A 
ATOM     26  C   UNL     1       9.601  -0.188   4.429  0.00  0.00    +0.136 A 
ATOM     27  O   UNL     1       8.622  -0.216   3.504  0.00  0.00    -0.450 OA
BRANCH  20  28
ATOM     28  C   UNL     1      11.172  -1.976   1.523  0.00  0.00    +0.117 C 
BRANCH  28  29
ATOM     29  S   UNL     1      12.053  -0.772   0.490  0.00  0.00    -0.082 S 
BRANCH  29  30
ATOM     30  C   UNL     1      12.984  -1.769  -0.625  0.00  0.00    +0.184 A 
ATOM     31  N   UNL     1      13.811  -1.319  -1.594  0.00  0.00    -0.254 N 
ATOM     32  H   UNL     1      14.006  -0.394  -1.808  0.00  0.00    +0.191 HD
ATOM     33  N   UNL     1      14.333  -2.458  -2.228  0.00  0.00    -0.160 NA
ATOM     34  C   UNL     1      13.814  -3.498  -1.633  0.00  0.00    +0.245 A 
ATOM     35  N   UNL     1      13.002  -3.085  -0.659  0.00  0.00    -0.209 NA
ENDBRANCH  29  30
ENDBRANCH  28  29
ENDBRANCH  20  28
ENDBRANCH   2  19
TORSDOF 5
