REMARK  Name = ZINC43044616
REMARK  8 active torsions:
REMARK  status: ('A' for Active; 'I' for Inactive)
REMARK    1  A    between atoms: C_1  and  C_2
REMARK    2  A    between atoms: C_2  and  C_3
REMARK    3  A    between atoms: C_3  and  C_5
REMARK    4  A    between atoms: C_3  and  N_6
REMARK    5  A    between atoms: C_7  and  C_9
REMARK    6  A    between atoms: C_9  and  N_10
REMARK    7  A    between atoms: N_18  and  C_19
REMARK    8  A    between atoms: C_25  and  C_27
REMARK                            x       y       z     vdW  Elec       q    Type
REMARK                         _______ _______ _______ _____ _____    ______ ____
ROOT
ATOM      1  N   UNL     1       4.803   0.557  -3.668  0.00  0.00    -0.291 NA
ATOM      2  C   UNL     1       4.146   1.631  -4.426  0.00  0.00    +0.104 C 
ATOM      3  C   UNL     1       4.595   1.567  -5.890  0.00  0.00    +0.124 C 
ATOM      4  N   UNL     1       6.065   1.587  -5.929  0.00  0.00    -0.283 N 
ATOM      5  C   UNL     1       6.797   0.627  -5.088  0.00  0.00    +0.124 C 
ATOM      6  C   UNL     1       6.262   0.729  -3.656  0.00  0.00    +0.104 C 
ATOM      7  C   UNL     1       6.724   2.461  -6.716  0.00  0.00    +0.303 C 
ATOM      8  O   UNL     1       6.105   3.184  -7.472  0.00  0.00    -0.253 OA
ATOM      9  N   UNL     1       8.069   2.532  -6.664  0.00  0.00    -0.296 N 
ATOM     10  H   UNL     1       8.567   1.906  -6.116  0.00  0.00    +0.151 HD
ENDROOT
BRANCH   9  11
ATOM     11  C   UNL     1       8.778   3.557  -7.435  0.00  0.00    +0.077 C 
ATOM     12  C   UNL     1       9.006   3.054  -8.862  0.00  0.00    +0.022 C 
ATOM     13  C   UNL     1       9.843   1.774  -8.823  0.00  0.00    +0.002 C 
ATOM     14  C   UNL     1      11.192   2.066  -8.163  0.00  0.00    +0.000 C 
ATOM     15  C   UNL     1      10.964   2.569  -6.737  0.00  0.00    +0.005 C 
ATOM     16  C   UNL     1      10.127   3.849  -6.775  0.00  0.00    +0.006 C 
ATOM     17  C   UNL     1       9.898   4.352  -5.348  0.00  0.00    +0.009 C 
ENDBRANCH   9  11
BRANCH   1  18
ATOM     18  C   UNL     1       4.271   0.476  -2.301  0.00  0.00    +0.180 C 
BRANCH  18  20
ATOM     19  N   UNL     1       2.124  -0.084  -1.206  0.00  0.00    -0.312 N 
ATOM     20  C   UNL     1       2.824   0.058  -2.350  0.00  0.00    +0.227 C 
ATOM     21  O   UNL     1       2.288  -0.152  -3.418  0.00  0.00    -0.274 OA
ATOM     22  H   UNL     1       2.552   0.084  -0.352  0.00  0.00    +0.149 HD
BRANCH  19  23
ATOM     23  C   UNL     1       0.718  -0.490  -1.254  0.00  0.00    +0.070 C 
ATOM     24  C   UNL     1       0.630  -2.016  -1.323  0.00  0.00    +0.028 C 
BRANCH  23  26
ATOM     25  C   UNL     1      -0.019   1.535   0.011  0.00  0.00    +0.005 C 
ATOM     26  C   UNL     1       0.001   0.005   0.005  0.00  0.00    +0.018 C 
ENDBRANCH  23  26
ENDBRANCH  19  23
ENDBRANCH  18  20
ENDBRANCH   1  18
TORSDOF 5
