REMARK  Name = ZINC34782698
REMARK  10 active torsions:
REMARK  status: ('A' for Active; 'I' for Inactive)
REMARK    1  A    between atoms: C_1  and  C_2
REMARK    2  A    between atoms: N_6  and  C_27
REMARK    3  A    between atoms: N_9  and  C_17
REMARK    4  A    between atoms: C_12  and  C_13
REMARK    5  A    between atoms: N_15  and  N_16
REMARK    6  A    between atoms: C_17  and  C_18
REMARK    7  A    between atoms: N_20  and  C_21
REMARK    8  A    between atoms: C_27  and  C_28
REMARK    9  A    between atoms: C_28  and  C_29
REMARK   10  A    between atoms: C_29  and  C_30
REMARK                            x       y       z     vdW  Elec       q    Type
REMARK                         _______ _______ _______ _____ _____    ______ ____
ROOT
ATOM      1  C   UNL     1      -0.001   1.509   0.002  0.00  0.00    +0.046 C 
ATOM      2  C   UNL     1       0.019   0.002  -0.003  0.00  0.00    -0.017 A 
ATOM      3  C   UNL     1       0.014  -0.725  -1.200  0.00  0.00    +0.074 A 
ATOM      4  C   UNL     1      -0.010  -0.215  -2.593  0.00  0.00    +0.265 A 
ATOM      5  O   UNL     1      -0.027   0.982  -2.811  0.00  0.00    -0.267 OA
ATOM      6  N   UNL     1      -0.011  -1.093  -3.612  0.00  0.00    -0.260 N 
ATOM      7  C   UNL     1       0.008  -2.419  -3.404  0.00  0.00    +0.333 A 
ATOM      8  O   UNL     1       0.006  -3.171  -4.360  0.00  0.00    -0.246 OA
ATOM      9  N   UNL     1       0.030  -2.936  -2.161  0.00  0.00    -0.278 N 
ATOM     10  C   UNL     1       0.033  -2.121  -1.065  0.00  0.00    +0.098 A 
ATOM     11  S   UNL     1       0.057  -2.398   0.583  0.00  0.00    -0.065 S 
ATOM     12  C   UNL     1       0.048  -0.713   1.160  0.00  0.00    +0.081 A 
ENDROOT
BRANCH  12  13
ATOM     13  C   UNL     1       0.065  -0.217   2.538  0.00  0.00    +0.264 C 
ATOM     14  O   UNL     1       0.053   0.980   2.754  0.00  0.00    -0.268 OA
ATOM     15  N   UNL     1       0.093  -1.088   3.567  0.00  0.00    -0.249 N 
ATOM     16  H   UNL     1       0.102  -2.042   3.394  0.00  0.00    +0.169 HD
BRANCH  15  17
ATOM     17  N   UNL     1       0.109  -0.626   4.852  0.00  0.00    -0.254 NA
ATOM     18  H   UNL     1      -0.677  -0.018   5.028  0.00  0.00    +0.140 HD
ATOM     19  H   UNL     1       0.130  -1.390   5.511  0.00  0.00    +0.140 HD
ENDBRANCH  15  17
ENDBRANCH  12  13
BRANCH   9  20
ATOM     20  C   UNL     1       0.050  -4.390  -1.982  0.00  0.00    +0.223 C 
BRANCH  20  21
ATOM     21  C   UNL     1       1.477  -4.871  -1.938  0.00  0.00    +0.237 C 
ATOM     22  O   UNL     1       2.388  -4.078  -2.046  0.00  0.00    -0.274 OA
ATOM     23  N   UNL     1       1.741  -6.183  -1.780  0.00  0.00    -0.284 N 
ATOM     24  H   UNL     1       1.016  -6.809  -1.626  0.00  0.00    +0.155 HD
BRANCH  23  25
ATOM     25  C   UNL     1       3.062  -6.643  -1.836  0.00  0.00    +0.033 A 
ATOM     26  C   UNL     1       3.343  -7.883  -2.394  0.00  0.00    +0.023 A 
ATOM     27  C   UNL     1       4.648  -8.334  -2.448  0.00  0.00    +0.002 A 
ATOM     28  C   UNL     1       5.673  -7.552  -1.947  0.00  0.00    +0.000 A 
ATOM     29  C   UNL     1       5.395  -6.317  -1.391  0.00  0.00    +0.002 A 
ATOM     30  C   UNL     1       4.093  -5.858  -1.339  0.00  0.00    +0.023 A 
ENDBRANCH  23  25
ENDBRANCH  20  21
ENDBRANCH   9  20
BRANCH   6  31
ATOM     31  C   UNL     1      -0.034  -0.588  -4.987  0.00  0.00    +0.130 C 
BRANCH  31  32
ATOM     32  C   UNL     1       1.400  -0.393  -5.483  0.00  0.00    +0.026 C 
BRANCH  32  33
ATOM     33  C   UNL     1       1.375   0.134  -6.919  0.00  0.00    +0.037 C 
BRANCH  33  34
ATOM     34  C   UNL     1       2.788   0.326  -7.408  0.00  0.00    -0.047 A 
ATOM     35  C   UNL     1       3.429   1.535  -7.214  0.00  0.00    +0.003 A 
ATOM     36  C   UNL     1       4.724   1.711  -7.662  0.00  0.00    +0.000 A 
ATOM     37  C   UNL     1       5.380   0.677  -8.304  0.00  0.00    +0.000 A 
ATOM     38  C   UNL     1       4.739  -0.533  -8.497  0.00  0.00    +0.000 A 
ATOM     39  C   UNL     1       3.445  -0.710  -8.045  0.00  0.00    +0.003 A 
ENDBRANCH  33  34
ENDBRANCH  32  33
ENDBRANCH  31  32
ENDBRANCH   6  31
TORSDOF 9
