REMARK  Name = ZINC64502510
REMARK  10 active torsions:
REMARK  status: ('A' for Active; 'I' for Inactive)
REMARK    1  A    between atoms: C_1  and  C_2
REMARK    2  A    between atoms: C_2  and  C_3
REMARK    3  A    between atoms: C_2  and  C_4
REMARK    4  A    between atoms: C_4  and  C_5
REMARK    5  A    between atoms: C_9  and  C_12
REMARK    6  A    between atoms: N_14  and  C_15
REMARK    7  A    between atoms: C_19  and  C_21
REMARK    8  A    between atoms: N_23  and  C_24
REMARK    9  A    between atoms: C_24  and  C_25
REMARK   10  A    between atoms: C_25  and  C_26
REMARK                            x       y       z     vdW  Elec       q    Type
REMARK                         _______ _______ _______ _____ _____    ______ ____
ROOT
ATOM      1  C   UNL     1      -6.646   3.342  -0.814  0.00  0.00    +0.034 A 
ATOM      2  C   UNL     1      -6.007   4.166   0.105  0.00  0.00    +0.023 A 
ATOM      3  C   UNL     1      -6.729   5.106   0.816  0.00  0.00    +0.003 A 
ATOM      4  C   UNL     1      -8.089   5.232   0.620  0.00  0.00    +0.013 A 
ATOM      5  C   UNL     1      -8.741   4.409  -0.301  0.00  0.00    +0.038 A 
ATOM      6  C   UNL     1      -8.011   3.465  -1.023  0.00  0.00    +0.036 A 
ENDROOT
BRANCH   1   9
ATOM      7  C   UNL     1      -6.236   2.115  -2.811  0.00  0.00    +0.254 C 
ATOM      8  O   UNL     1      -7.215   2.624  -3.312  0.00  0.00    -0.272 OA
ATOM      9  N   UNL     1      -5.911   2.392  -1.532  0.00  0.00    -0.283 N 
ATOM     10  H   UNL     1      -5.168   1.934  -1.110  0.00  0.00    +0.155 HD
BRANCH   7  14
ATOM     11  C   UNL     1      -4.443   1.091  -6.176  0.00  0.00    +0.187 C 
ATOM     12  N   UNL     1      -3.661   1.750  -5.105  0.00  0.00    -0.177 NA
ATOM     13  N   UNL     1      -4.079   1.786  -3.965  0.00  0.00    -0.167 NA
ATOM     14  C   UNL     1      -5.381   1.171  -3.617  0.00  0.00    +0.272 C 
ATOM     15  S   UNL     1      -6.069   0.919  -5.316  0.00  0.00    -0.095 S 
BRANCH  11  16
ATOM     16  C   UNL     1      -4.558   1.984  -7.413  0.00  0.00    +0.042 C 
BRANCH  16  18
ATOM     17  C   UNL     1      -5.750   2.306  -9.585  0.00  0.00    +0.007 C 
ATOM     18  C   UNL     1      -5.520   1.345  -8.416  0.00  0.00    -0.014 C 
ATOM     19  C   UNL     1      -4.917   0.040  -8.941  0.00  0.00    +0.007 C 
ENDBRANCH  16  18
ENDBRANCH  11  16
ENDBRANCH   7  14
ENDBRANCH   1   9
BRANCH   5  20
ATOM     20  C   UNL     1     -10.198   4.542  -0.513  0.00  0.00    +0.244 C 
ATOM     21  O   UNL     1     -10.763   3.824  -1.315  0.00  0.00    -0.270 OA
ATOM     22  N   UNL     1     -10.899   5.459   0.182  0.00  0.00    -0.311 N 
ATOM     23  H   UNL     1     -10.448   6.031   0.822  0.00  0.00    +0.149 HD
BRANCH  22  24
ATOM     24  C   UNL     1     -12.343   5.590  -0.028  0.00  0.00    +0.109 C 
BRANCH  24  25
ATOM     25  C   UNL     1     -12.892   6.694   0.878  0.00  0.00    +0.052 C 
BRANCH  25  26
ATOM     26  C   UNL     1     -14.377   6.829   0.661  0.00  0.00    -0.040 C 
ATOM     27  C   UNL     1     -15.361   6.250   1.387  0.00  0.00    -0.001 A 
ATOM     28  C   UNL     1     -15.344   5.355   2.550  0.00  0.00    +0.010 A 
ATOM     29  C   UNL     1     -16.518   4.931   3.068  0.00  0.00    +0.001 A 
ATOM     30  C   UNL     1     -17.749   5.323   2.525  0.00  0.00    +0.002 A 
ATOM     31  C   UNL     1     -17.846   6.143   1.457  0.00  0.00    +0.026 A 
ATOM     32  C   UNL     1     -16.674   6.651   0.831  0.00  0.00    +0.043 A 
ATOM     33  N   UNL     1     -16.508   7.446  -0.198  0.00  0.00    -0.380 N 
ATOM     34  C   UNL     1     -15.070   7.645  -0.408  0.00  0.00    +0.144 C 
ATOM     35  H   UNL     1     -17.218   7.840  -0.729  0.00  0.00    +0.160 HD
ENDBRANCH  25  26
ENDBRANCH  24  25
ENDBRANCH  22  24
ENDBRANCH   5  20
TORSDOF 8
