REMARK  Name = ZINC33587837
REMARK  7 active torsions:
REMARK  status: ('A' for Active; 'I' for Inactive)
REMARK    1  A    between atoms: C_3  and  O_27
REMARK    2  A    between atoms: C_6  and  C_7
REMARK    3  A    between atoms: C_7  and  C_8
REMARK    4  A    between atoms: C_8  and  C_10
REMARK    5  A    between atoms: C_8  and  N_13
REMARK    6  A    between atoms: C_14  and  C_16
REMARK    7  A    between atoms: C_19  and  C_21
REMARK                            x       y       z     vdW  Elec       q    Type
REMARK                         _______ _______ _______ _____ _____    ______ ____
ROOT
ATOM      1  N   UNL     1      -5.611   0.952  -2.974  0.00  0.00    -0.298 N 
ATOM      2  C   UNL     1      -5.684   1.564  -1.775  0.00  0.00    +0.264 C 
ATOM      3  O   UNL     1      -6.767   1.872  -1.315  0.00  0.00    -0.268 OA
ATOM      4  H   UNL     1      -4.631   0.674  -3.390  0.00  0.00    +0.150 HD
ENDROOT
BRANCH   2   5
ATOM      5  C   UNL     1      -4.454   1.860  -1.022  0.00  0.00    +0.133 A 
ATOM      6  C   UNL     1      -4.499   2.482   0.199  0.00  0.00    +0.079 A 
ATOM      7  S   UNL     1      -2.815   2.572   0.605  0.00  0.00    -0.081 S 
ATOM      8  C   UNL     1      -2.176   1.808  -0.815  0.00  0.00    +0.065 A 
ATOM      9  N   UNL     1      -3.253   1.538  -1.506  0.00  0.00    -0.241 NA
BRANCH   8  10
ATOM     10  C   UNL     1      -0.738   1.531  -1.168  0.00  0.00    -0.015 C 
ATOM     11  C   UNL     1      -0.007   2.849  -1.526  0.00  0.00    -0.011 C 
ATOM     12  C   UNL     1       1.470   2.479  -1.231  0.00  0.00    -0.020 C 
ATOM     13  C   UNL     1       1.357   1.552  -0.003  0.00  0.00    -0.082 C 
ATOM     14  N   UNL     1      -0.012   1.005   0.008  0.00  0.00    +0.385 N 
ATOM     15  H   UNL     1      -0.531   1.312   0.927  0.00  0.00    -0.085 HD
ATOM     16  H   UNL     1       0.023  -0.093  -0.045  0.00  0.00    -0.085 HD
ENDBRANCH   8  10
ENDBRANCH   2   5
BRANCH   1  17
ATOM     17  C   UNL     1      -6.835   0.657  -3.722  0.00  0.00    +0.163 C 
BRANCH  17  18
ATOM     18  C   UNL     1      -7.236   1.867  -4.526  0.00  0.00    +0.231 C 
ATOM     19  O   UNL     1      -6.564   2.876  -4.479  0.00  0.00    -0.274 OA
ATOM     20  N   UNL     1      -8.340   1.828  -5.298  0.00  0.00    -0.328 N 
ATOM     21  H   UNL     1      -8.632   2.711  -5.885  0.00  0.00    +0.145 HD
ATOM     22  H   UNL     1      -8.948   0.913  -5.341  0.00  0.00    +0.145 HD
ENDBRANCH  17  18
BRANCH  17  23
ATOM     23  C   UNL     1      -6.585  -0.522  -4.665  0.00  0.00    +0.067 C 
BRANCH  23  29
ATOM     24  C   UNL     1      -5.006  -2.075  -3.500  0.00  0.00    +0.007 A 
ATOM     25  C   UNL     1      -4.747  -3.208  -2.753  0.00  0.00    +0.045 A 
ATOM     26  C   UNL     1      -5.791  -4.037  -2.369  0.00  0.00    +0.117 A 
ATOM     27  C   UNL     1      -7.093  -3.723  -2.730  0.00  0.00    +0.045 A 
ATOM     28  C   UNL     1      -7.347  -2.586  -3.472  0.00  0.00    +0.007 A 
ATOM     29  C   UNL     1      -6.305  -1.762  -3.855  0.00  0.00    -0.045 A 
BRANCH  26  30
ATOM     30  O   UNL     1      -5.538  -5.156  -1.639  0.00  0.00    -0.507 OA
ATOM     31  H   UNL     1      -6.366  -5.813  -1.335  0.00  0.00    +0.292 HD
ENDBRANCH  26  30
ENDBRANCH  23  29
ENDBRANCH  17  23
ENDBRANCH   1  17
TORSDOF 7
