REMARK  Name = ZINC36306876
REMARK  14 active torsions:
REMARK  status: ('A' for Active; 'I' for Inactive)
REMARK    1  A    between atoms: C_1  and  N_2
REMARK    2  A    between atoms: C_3  and  O_27
REMARK    3  A    between atoms: C_4  and  C_13
REMARK    4  A    between atoms: C_5  and  C_7
REMARK    5  A    between atoms: C_13  and  N_14
REMARK    6  A    between atoms: N_14  and  C_15
REMARK    7  A    between atoms: N_14  and  C_19
REMARK    8  A    between atoms: C_15  and  C_16
REMARK    9  A    between atoms: C_19  and  C_20
REMARK   10  A    between atoms: C_20  and  C_22
REMARK   11  A    between atoms: C_20  and  O_26
REMARK   12  A    between atoms: C_22  and  C_23
REMARK   13  A    between atoms: C_23  and  C_24
REMARK   14  A    between atoms: O_27  and  C_28
REMARK                            x       y       z     vdW  Elec       q    Type
REMARK                         _______ _______ _______ _____ _____    ______ ____
ROOT
ATOM      1  C   UNL     1       0.342  -0.659   3.275  0.00  0.00    +0.176 C 
ATOM      2  N   UNL     1       0.424  -0.860   1.826  0.00  0.00    -0.235 N 
ATOM      3  C   UNL     1       0.347  -2.052   1.181  0.00  0.00    +0.221 A 
ATOM      4  C   UNL     1       0.466  -1.811  -0.150  0.00  0.00    +0.025 A 
ATOM      5  C   UNL     1       0.621  -0.423  -0.323  0.00  0.00    +0.098 A 
ATOM      6  N   UNL     1       0.589   0.144   0.864  0.00  0.00    -0.168 NA
ENDROOT
BRANCH   5   7
ATOM      7  C   UNL     1       0.786   0.280  -1.620  0.00  0.00    +0.002 A 
ATOM      8  C   UNL     1       1.622  -0.249  -2.601  0.00  0.00    +0.010 A 
ATOM      9  C   UNL     1       1.771   0.409  -3.805  0.00  0.00    +0.001 A 
ATOM     10  C   UNL     1       1.092   1.591  -4.039  0.00  0.00    +0.000 A 
ATOM     11  C   UNL     1       0.261   2.121  -3.069  0.00  0.00    +0.001 A 
ATOM     12  C   UNL     1       0.100   1.469  -1.863  0.00  0.00    +0.010 A 
ENDBRANCH   5   7
BRANCH   4  13
ATOM     13  C   UNL     1       0.437  -2.845  -1.246  0.00  0.00    -0.035 C 
BRANCH  13  14
ATOM     14  N   UNL     1       1.785  -3.399  -1.431  0.00  0.00    +0.384 N 
ATOM     15  H   UNL     1       2.438  -2.648  -1.598  0.00  0.00    -0.081 HD
BRANCH  14  16
ATOM     16  C   UNL     1       1.785  -4.312  -2.582  0.00  0.00    -0.075 C 
BRANCH  16  17
ATOM     17  C   UNL     1       1.483  -3.524  -3.858  0.00  0.00    -0.028 C 
ATOM     18  C   UNL     1       0.191  -3.860  -4.606  0.00  0.00    +0.002 C 
ATOM     19  C   UNL     1       1.543  -4.281  -5.187  0.00  0.00    +0.002 C 
ENDBRANCH  16  17
ENDBRANCH  14  16
BRANCH  14  20
ATOM     20  C   UNL     1       2.183  -4.134  -0.223  0.00  0.00    -0.047 C 
BRANCH  20  21
ATOM     21  C   UNL     1       3.631  -4.605  -0.366  0.00  0.00    +0.098 C 
BRANCH  21  22
ATOM     22  O   UNL     1       4.498  -3.470  -0.420  0.00  0.00    -0.394 OA
ATOM     23  H   UNL     1       4.457  -2.906   0.364  0.00  0.00    +0.210 HD
ENDBRANCH  21  22
BRANCH  21  24
ATOM     24  C   UNL     1       4.006  -5.475   0.835  0.00  0.00    +0.033 C 
BRANCH  24  25
ATOM     25  C   UNL     1       5.410  -6.047   0.632  0.00  0.00    +0.029 C 
BRANCH  25  26
ATOM     26  C   UNL     1       5.779  -6.905   1.816  0.00  0.00    -0.034 C 
ATOM     27  C   UNL     1       6.153  -8.147   1.633  0.00  0.00    +0.004 C 
ENDBRANCH  25  26
ENDBRANCH  24  25
ENDBRANCH  21  24
ENDBRANCH  20  21
ENDBRANCH  14  20
ENDBRANCH  13  14
ENDBRANCH   4  13
BRANCH   3  28
ATOM     28  O   UNL     1       0.181  -3.268   1.762  0.00  0.00    -0.435 OA
BRANCH  28  29
ATOM     29  C   UNL     1      -1.088  -3.712   1.962  0.00  0.00    +0.165 A 
ATOM     30  C   UNL     1      -2.164  -2.979   1.484  0.00  0.00    +0.049 A 
ATOM     31  C   UNL     1      -3.453  -3.432   1.688  0.00  0.00    +0.004 A 
ATOM     32  C   UNL     1      -3.672  -4.616   2.368  0.00  0.00    +0.003 A 
ATOM     33  C   UNL     1      -2.603  -5.350   2.847  0.00  0.00    +0.042 A 
ATOM     34  C   UNL     1      -1.310  -4.904   2.640  0.00  0.00    +0.165 A 
ATOM     35  F   UNL     1      -0.264  -5.623   3.103  0.00  0.00    -0.202 F 
ENDBRANCH  28  29
ENDBRANCH   3  28
TORSDOF 13
