REMARK  Name = ZINC09165012
REMARK  5 active torsions:
REMARK  status: ('A' for Active; 'I' for Inactive)
REMARK    1  A    between atoms: C_8  and  O_28
REMARK    2  A    between atoms: N_13  and  C_14
REMARK    3  A    between atoms: C_14  and  C_15
REMARK    4  A    between atoms: N_17  and  C_18
REMARK    5  A    between atoms: C_21  and  C_24
REMARK                            x       y       z     vdW  Elec       q    Type
REMARK                         _______ _______ _______ _____ _____    ______ ____
ROOT
ATOM      1  C   UNL     1      -0.022   1.367  -0.012  0.00  0.00    +0.002 A 
ATOM      2  C   UNL     1       1.159   2.088  -0.024  0.00  0.00    +0.002 A 
ATOM      3  C   UNL     1       2.377   1.432  -0.031  0.00  0.00    +0.026 A 
ATOM      4  C   UNL     1       2.412   0.052  -0.028  0.00  0.00    +0.064 A 
ATOM      5  C   UNL     1       1.219  -0.686  -0.020  0.00  0.00    +0.089 A 
ATOM      6  C   UNL     1      -0.001  -0.013  -0.010  0.00  0.00    +0.030 A 
ATOM      7  N   UNL     1       1.269  -2.054  -0.031  0.00  0.00    -0.214 NA
ATOM      8  C   UNL     1       2.358  -2.699   0.243  0.00  0.00    +0.206 C 
ATOM      9  C   UNL     1       3.632  -1.981   0.604  0.00  0.00    +0.210 C 
ATOM     10  N   UNL     1       3.627  -0.651  -0.026  0.00  0.00    -0.245 N 
ATOM     11  C   UNL     1       4.740  -0.130  -0.579  0.00  0.00    +0.307 C 
ATOM     12  O   UNL     1       4.706   0.971  -1.094  0.00  0.00    -0.252 OA
ATOM     13  N   UNL     1       5.892  -0.830  -0.562  0.00  0.00    -0.290 N 
ATOM     14  H   UNL     1       5.919  -1.709  -0.151  0.00  0.00    +0.151 HD
ENDROOT
BRANCH   8  15
ATOM     15  O   UNL     1       2.351  -4.048   0.205  0.00  0.00    -0.494 OA
ATOM     16  H   UNL     1       1.495  -4.430  -0.034  0.00  0.00    +0.293 HD
ENDBRANCH   8  15
BRANCH  13  17
ATOM     17  C   UNL     1       7.102  -0.265  -1.163  0.00  0.00    +0.202 C 
BRANCH  17  18
ATOM     18  C   UNL     1       8.241  -1.240  -1.011  0.00  0.00    +0.234 C 
ATOM     19  O   UNL     1       8.060  -2.302  -0.456  0.00  0.00    -0.274 OA
ATOM     20  N   UNL     1       9.462  -0.930  -1.492  0.00  0.00    -0.284 N 
ATOM     21  H   UNL     1       9.591  -0.111  -1.995  0.00  0.00    +0.155 HD
BRANCH  20  22
ATOM     22  C   UNL     1      10.541  -1.792  -1.267  0.00  0.00    +0.033 A 
ATOM     23  C   UNL     1      11.813  -1.274  -1.061  0.00  0.00    +0.024 A 
ATOM     24  C   UNL     1      12.877  -2.126  -0.839  0.00  0.00    +0.014 A 
ATOM     25  C   UNL     1      12.676  -3.494  -0.822  0.00  0.00    +0.055 A 
ATOM     26  C   UNL     1      11.411  -4.013  -1.027  0.00  0.00    +0.014 A 
ATOM     27  C   UNL     1      10.342  -3.166  -1.244  0.00  0.00    +0.024 A 
BRANCH  25  28
ATOM     28  C   UNL     1      13.839  -4.422  -0.579  0.00  0.00    +0.417 C 
ATOM     29  F   UNL     1      13.968  -4.659   0.793  0.00  0.00    -0.166 F 
ATOM     30  F   UNL     1      13.616  -5.633  -1.243  0.00  0.00    -0.166 F 
ATOM     31  F   UNL     1      15.013  -3.834  -1.063  0.00  0.00    -0.166 F 
ENDBRANCH  25  28
ENDBRANCH  20  22
ENDBRANCH  17  18
ENDBRANCH  13  17
TORSDOF 5
