REMARK  Name = ZINC22753132
REMARK  7 active torsions:
REMARK  status: ('A' for Active; 'I' for Inactive)
REMARK    1  A    between atoms: C_1  and  C_2
REMARK    2  A    between atoms: C_2  and  O_3
REMARK    3  A    between atoms: O_3  and  C_4
REMARK    4  A    between atoms: C_4  and  C_6
REMARK    5  A    between atoms: C_7  and  C_17
REMARK    6  A    between atoms: C_17  and  N_18
REMARK    7  A    between atoms: N_21  and  C_24
REMARK                            x       y       z     vdW  Elec       q    Type
REMARK                         _______ _______ _______ _____ _____    ______ ____
ROOT
ATOM      1  C   UNL     1       1.453  -2.346  -2.524  0.00  0.00    +0.194 A 
ATOM      2  C   UNL     1       1.621  -3.672  -2.808  0.00  0.00    +0.095 A 
ATOM      3  N   UNL     1       2.287  -3.739  -3.981  0.00  0.00    -0.191 N 
ATOM      4  N   UNL     1       2.514  -2.418  -4.393  0.00  0.00    -0.058 NA
ATOM      5  N   UNL     1       2.005  -1.625  -3.516  0.00  0.00    -0.122 NA
ATOM      6  C   UNL     1       2.675  -4.902  -4.655  0.00  0.00    +0.240 A 
ATOM      7  C   UNL     1       3.404  -4.954  -5.926  0.00  0.00    +0.206 A 
ATOM      8  N   UNL     1       3.588  -6.207  -6.242  0.00  0.00    -0.032 NA
ATOM      9  O   UNL     1       3.007  -7.001  -5.224  0.00  0.00    -0.239 OA
ATOM     10  N   UNL     1       2.457  -6.123  -4.257  0.00  0.00    -0.027 NA
ATOM     11  N   UNL     1       3.825  -3.857  -6.669  0.00  0.00    -0.337 N 
ATOM     12  H   UNL     1       3.641  -2.958  -6.353  0.00  0.00    +0.144 HD
ATOM     13  H   UNL     1       4.303  -3.990  -7.502  0.00  0.00    +0.144 HD
ENDROOT
BRANCH   1  14
ATOM     14  C   UNL     1       0.776  -1.799  -1.335  0.00  0.00    +0.361 C 
ATOM     15  O   UNL     1       0.312  -2.550  -0.500  0.00  0.00    -0.243 OA
BRANCH  14  16
ATOM     16  O   UNL     1       0.671  -0.465  -1.174  0.00  0.00    -0.460 OA
BRANCH  16  18
ATOM     17  C   UNL     1      -0.019   1.526   0.010  0.00  0.00    +0.048 C 
ATOM     18  C   UNL     1       0.002  -0.004   0.002  0.00  0.00    +0.229 C 
ENDBRANCH  16  18
ENDBRANCH  14  16
ENDBRANCH   1  14
BRANCH   2  19
ATOM     19  C   UNL     1       1.154  -4.836  -1.972  0.00  0.00    +0.142 C 
BRANCH  19  20
ATOM     20  N   UNL     1       2.207  -5.208  -1.017  0.00  0.00    -0.300 NA
ATOM     21  C   UNL     1       2.423  -4.141  -0.030  0.00  0.00    +0.066 C 
ATOM     22  C   UNL     1       3.565  -4.540   0.907  0.00  0.00    -0.062 C 
ATOM     23  N   UNL     1       3.224  -5.797   1.586  0.00  0.00    +0.385 N 
ATOM     24  C   UNL     1       3.035  -6.859   0.589  0.00  0.00    -0.062 C 
ATOM     25  C   UNL     1       1.889  -6.479  -0.351  0.00  0.00    +0.066 C 
ATOM     26  H   UNL     1       2.372  -5.674   2.112  0.00  0.00    -0.081 HD
BRANCH  23  27
ATOM     27  C   UNL     1       4.312  -6.171   2.499  0.00  0.00    -0.065 C 
ATOM     28  C   UNL     1       5.605  -6.356   1.702  0.00  0.00    -0.009 C 
ATOM     29  C   UNL     1       6.739  -6.746   2.652  0.00  0.00    -0.012 C 
ATOM     30  C   UNL     1       6.384  -8.055   3.360  0.00  0.00    +0.007 C 
ATOM     31  C   UNL     1       5.091  -7.869   4.157  0.00  0.00    -0.012 C 
ATOM     32  C   UNL     1       3.958  -7.480   3.207  0.00  0.00    -0.009 C 
ATOM     33  C   UNL     1       5.287  -6.764   5.197  0.00  0.00    +0.007 C 
ATOM     34  C   UNL     1       5.642  -5.455   4.489  0.00  0.00    -0.012 C 
ATOM     35  C   UNL     1       6.935  -5.641   3.692  0.00  0.00    +0.007 C 
ATOM     36  C   UNL     1       4.508  -5.066   3.539  0.00  0.00    -0.009 C 
ENDBRANCH  23  27
ENDBRANCH  19  20
ENDBRANCH   2  19
TORSDOF 6
