REMARK  Name = ZINC44785122
REMARK  6 active torsions:
REMARK  status: ('A' for Active; 'I' for Inactive)
REMARK    1  A    between atoms: C_1  and  C_2
REMARK    2  A    between atoms: C_2  and  C_4
REMARK    3  A    between atoms: C_2  and  N_10
REMARK    4  A    between atoms: C_11  and  C_13
REMARK    5  A    between atoms: C_13  and  C_19
REMARK    6  A    between atoms: N_20  and  O_21
REMARK                            x       y       z     vdW  Elec       q    Type
REMARK                         _______ _______ _______ _____ _____    ______ ____
ROOT
ATOM      1  C   UNL     1       2.689  -1.159   2.417  0.00  0.00    +0.105 C 
ATOM      2  C   UNL     1       2.325  -0.276   3.613  0.00  0.00    +0.024 C 
ATOM      3  C   UNL     1       2.835   1.146   3.371  0.00  0.00    +0.001 C 
ATOM      4  C   UNL     1       4.355   1.120   3.200  0.00  0.00    +0.000 C 
ATOM      5  C   UNL     1       4.719   0.237   2.005  0.00  0.00    +0.001 C 
ATOM      6  C   UNL     1       4.209  -1.185   2.247  0.00  0.00    +0.024 C 
ENDROOT
BRANCH   1   7
ATOM      7  C   UNL     1       2.187  -2.560   2.656  0.00  0.00    +0.147 C 
ATOM      8  N   UNL     1       3.026  -3.534   2.786  0.00  0.00    -0.076 NA
ATOM      9  N   UNL     1       0.833  -2.802   2.735  0.00  0.00    -0.343 N 
ATOM     10  H   UNL     1       0.206  -2.062   2.712  0.00  0.00    +0.144 HD
ATOM     11  H   UNL     1       0.507  -3.712   2.814  0.00  0.00    +0.144 HD
BRANCH   8  12
ATOM     12  O   UNL     1       2.554  -4.850   3.010  0.00  0.00    -0.408 OA
ATOM     13  H   UNL     1       3.255  -5.510   3.094  0.00  0.00    +0.328 HD
ENDBRANCH   8  12
ENDBRANCH   1   7
BRANCH   1  15
ATOM     14  N   UNL     1       2.352  -1.133  -0.033  0.00  0.00    -0.309 N 
ATOM     15  C   UNL     1       2.053  -0.603   1.170  0.00  0.00    +0.227 C 
ATOM     16  O   UNL     1       1.272   0.322   1.248  0.00  0.00    -0.275 OA
ATOM     17  H   UNL     1       3.030  -1.822  -0.104  0.00  0.00    +0.149 HD
BRANCH  14  19
ATOM     18  C   UNL     1       0.337  -1.434  -1.386  0.00  0.00    +0.030 C 
ATOM     19  C   UNL     1       1.652  -0.667  -1.233  0.00  0.00    +0.099 C 
BRANCH  19  20
ATOM     20  C   UNL     1       2.530  -0.910  -2.462  0.00  0.00    +0.138 C 
ATOM     21  C   UNL     1       3.929  -0.275  -2.258  0.00  0.00    +0.035 C 
ATOM     22  C   UNL     1       4.789  -1.142  -3.217  0.00  0.00    +0.031 C 
ATOM     23  C   UNL     1       4.111  -2.525  -3.106  0.00  0.00    +0.160 C 
ATOM     24  O   UNL     1       2.775  -2.316  -2.630  0.00  0.00    -0.375 OA
ENDBRANCH  19  20
ENDBRANCH  14  19
ENDBRANCH   1  15
TORSDOF 5
