REMARK  Name = ZINC40937998
REMARK  9 active torsions:
REMARK  status: ('A' for Active; 'I' for Inactive)
REMARK    1  A    between atoms: C_1  and  O_2
REMARK    2  A    between atoms: O_2  and  C_3
REMARK    3  A    between atoms: C_3  and  N_5
REMARK    4  A    between atoms: N_5  and  C_6
REMARK    5  A    between atoms: C_6  and  C_7
REMARK    6  A    between atoms: N_10  and  C_14
REMARK    7  A    between atoms: C_17  and  C_21
REMARK    8  A    between atoms: C_24  and  C_27
REMARK    9  A    between atoms: C_27  and  C_35
REMARK                            x       y       z     vdW  Elec       q    Type
REMARK                         _______ _______ _______ _____ _____    ______ ____
ROOT
ATOM      1  C   UNL     1       3.140  -7.118  -3.141  0.00  0.00    +0.042 A 
ATOM      2  C   UNL     1       3.098  -7.255  -4.524  0.00  0.00    +0.024 A 
ATOM      3  C   UNL     1       3.642  -8.370  -5.125  0.00  0.00    +0.013 A 
ATOM      4  C   UNL     1       4.235  -9.361  -4.345  0.00  0.00    +0.019 A 
ATOM      5  C   UNL     1       4.278  -9.222  -2.957  0.00  0.00    +0.133 A 
ATOM      6  C   UNL     1       3.736  -8.100  -2.361  0.00  0.00    +0.062 A 
ATOM      7  F   UNL     1       4.852 -10.181  -2.198  0.00  0.00    -0.205 F 
ENDROOT
BRANCH   1  10
ATOM      8  C   UNL     1       1.205  -4.139  -2.065  0.00  0.00    +0.213 C 
ATOM      9  C   UNL     1       1.924  -4.863  -3.228  0.00  0.00    +0.163 C 
ATOM     10  N   UNL     1       2.587  -5.985  -2.535  0.00  0.00    -0.234 N 
ATOM     11  C   UNL     1       2.564  -5.723  -1.214  0.00  0.00    +0.408 C 
ATOM     12  O   UNL     1       3.011  -6.476  -0.371  0.00  0.00    -0.226 OA
ATOM     13  O   UNL     1       1.992  -4.541  -0.927  0.00  0.00    -0.444 OA
BRANCH   8  14
ATOM     14  C   UNL     1       1.251  -2.622  -2.254  0.00  0.00    +0.151 C 
BRANCH  14  15
ATOM     15  N   UNL     1       0.624  -1.967  -1.103  0.00  0.00    -0.306 N 
ATOM     16  H   UNL     1       0.263  -2.502  -0.378  0.00  0.00    +0.150 HD
BRANCH  15  17
ATOM     17  C   UNL     1       0.550  -0.623  -1.050  0.00  0.00    +0.228 C 
ATOM     18  S   UNL     1       1.188   0.321  -2.328  0.00  0.00    +0.006 S 
BRANCH  17  20
ATOM     19  C   UNL     1      -0.071   1.408  -0.002  0.00  0.00    +0.279 C 
ATOM     20  O   UNL     1      -0.027  -0.021   0.009  0.00  0.00    -0.477 OA
ENDBRANCH  17  20
ENDBRANCH  15  17
ENDBRANCH  14  15
ENDBRANCH   8  14
ENDBRANCH   1  10
BRANCH   4  21
ATOM     21  C   UNL     1       4.821 -10.562  -4.990  0.00  0.00    +0.003 A 
ATOM     22  C   UNL     1       6.115 -10.982  -4.668  0.00  0.00    +0.012 A 
ATOM     23  C   UNL     1       6.615 -12.108  -5.298  0.00  0.00    +0.025 A 
ATOM     24  C   UNL     1       5.826 -12.777  -6.216  0.00  0.00    +0.062 A 
ATOM     25  N   UNL     1       4.608 -12.357  -6.500  0.00  0.00    -0.258 NA
ATOM     26  C   UNL     1       4.087 -11.294  -5.922  0.00  0.00    +0.119 A 
BRANCH  24  27
ATOM     27  C   UNL     1       6.367 -14.004  -6.904  0.00  0.00    +0.102 C 
ATOM     28  C   UNL     1       5.397 -15.164  -7.141  0.00  0.00    +0.001 C 
ATOM     29  C   UNL     1       6.501 -15.279  -6.069  0.00  0.00    +0.001 C 
ATOM     30  C   UNL     1       5.747 -15.350  -4.723  0.00  0.00    -0.077 C 
ATOM     31  N   UNL     1       4.398 -15.862  -5.077  0.00  0.00    +0.379 N 
ATOM     32  C   UNL     1       4.054 -15.157  -6.380  0.00  0.00    -0.077 C 
ATOM     33  H   UNL     1       4.424 -16.862  -5.210  0.00  0.00    -0.086 HD
ATOM     34  H   UNL     1       3.730 -15.617  -4.362  0.00  0.00    -0.086 HD
BRANCH  27  35
ATOM     35  C   UNL     1       7.390 -13.755  -7.932  0.00  0.00    +0.076 C 
ATOM     36  N   UNL     1       8.180 -13.564  -8.726  0.00  0.00    -0.196 NA
ENDBRANCH  27  35
ENDBRANCH  24  27
ENDBRANCH   4  21
TORSDOF 8
