REMARK  Name = ZINC20664736
REMARK  8 active torsions:
REMARK  status: ('A' for Active; 'I' for Inactive)
REMARK    1  A    between atoms: C_1  and  C_2
REMARK    2  A    between atoms: C_6  and  N_9
REMARK    3  A    between atoms: C_7  and  C_8
REMARK    4  A    between atoms: C_10  and  C_12
REMARK    5  A    between atoms: C_14  and  S_19
REMARK    6  A    between atoms: S_19  and  N_22
REMARK    7  A    between atoms: N_25  and  C_28
REMARK    8  A    between atoms: C_28  and  C_29
REMARK                            x       y       z     vdW  Elec       q    Type
REMARK                         _______ _______ _______ _____ _____    ______ ____
ROOT
ATOM      1  C   UNL     1       8.516  -6.592   2.383  0.00  0.00    +0.074 A 
ATOM      2  C   UNL     1       8.473  -5.809   1.228  0.00  0.00    +0.044 A 
ATOM      3  C   UNL     1       9.287  -4.701   1.119  0.00  0.00    +0.106 A 
ATOM      4  C   UNL     1      10.150  -4.366   2.149  0.00  0.00    +0.031 A 
ATOM      5  C   UNL     1      10.195  -5.131   3.298  0.00  0.00    +0.041 A 
ATOM      6  C   UNL     1       9.385  -6.246   3.423  0.00  0.00    +0.136 A 
ATOM      7  F   UNL     1       9.433  -6.997   4.545  0.00  0.00    -0.205 F 
ENDROOT
BRANCH   1   9
ATOM      8  N   UNL     1       6.810  -8.110   1.504  0.00  0.00    -0.281 N 
ATOM      9  C   UNL     1       7.647  -7.779   2.507  0.00  0.00    +0.251 C 
ATOM     10  O   UNL     1       7.687  -8.459   3.514  0.00  0.00    -0.270 OA
ATOM     11  H   UNL     1       6.708  -7.446   0.632  0.00  0.00    +0.155 HD
BRANCH   8  17
ATOM     12  C   UNL     1       2.861 -10.717   0.173  0.00  0.00    +0.044 C 
ATOM     13  C   UNL     1       4.155 -10.588   0.935  0.00  0.00    -0.046 A 
ATOM     14  C   UNL     1       4.614 -11.643   1.701  0.00  0.00    +0.004 A 
ATOM     15  C   UNL     1       5.800 -11.528   2.402  0.00  0.00    +0.002 A 
ATOM     16  C   UNL     1       6.531 -10.358   2.339  0.00  0.00    +0.023 A 
ATOM     17  C   UNL     1       6.073  -9.296   1.570  0.00  0.00    +0.037 A 
ATOM     18  C   UNL     1       4.878  -9.413   0.872  0.00  0.00    -0.026 A 
ATOM     19  C   UNL     1       4.374  -8.260   0.041  0.00  0.00    +0.046 C 
ENDBRANCH   8  17
ENDBRANCH   1   9
BRANCH   3  20
ATOM     20  S   UNL     1       9.234  -3.712  -0.339  0.00  0.00    +0.061 S 
ATOM     21  O   UNL     1       8.746  -4.549  -1.379  0.00  0.00    -0.153 OA
ATOM     22  O   UNL     1      10.485  -3.044  -0.422  0.00  0.00    -0.153 OA
BRANCH  20  23
ATOM     23  N   UNL     1       8.087  -2.543  -0.096  0.00  0.00    -0.174 NA
ATOM     24  C   UNL     1       8.445  -1.247   0.500  0.00  0.00    +0.125 C 
ATOM     25  C   UNL     1       7.490  -0.966   1.665  0.00  0.00    +0.102 C 
ATOM     26  N   UNL     1       6.103  -1.070   1.193  0.00  0.00    -0.296 NA
ATOM     27  C   UNL     1       5.797  -2.431   0.734  0.00  0.00    +0.102 C 
ATOM     28  C   UNL     1       6.683  -2.772  -0.469  0.00  0.00    +0.125 C 
BRANCH  26  29
ATOM     29  C   UNL     1       5.159  -0.640   2.233  0.00  0.00    +0.119 C 
BRANCH  29  30
ATOM     30  C   UNL     1       3.777  -0.525   1.641  0.00  0.00    -0.030 A 
ATOM     31  C   UNL     1       2.931  -1.618   1.648  0.00  0.00    +0.009 A 
ATOM     32  C   UNL     1       1.663  -1.518   1.106  0.00  0.00    +0.050 A 
ATOM     33  C   UNL     1       1.238  -0.321   0.554  0.00  0.00    +0.166 A 
ATOM     34  C   UNL     1       2.091   0.780   0.547  0.00  0.00    +0.167 A 
ATOM     35  C   UNL     1       3.360   0.673   1.093  0.00  0.00    +0.054 A 
ATOM     36  O   UNL     1       1.446   1.828  -0.045  0.00  0.00    -0.453 OA
ATOM     37  C   UNL     1       0.050   1.477  -0.032  0.00  0.00    +0.466 C 
ATOM     38  O   UNL     1       0.059   0.037  -0.034  0.00  0.00    -0.453 OA
ENDBRANCH  29  30
ENDBRANCH  26  29
ENDBRANCH  20  23
ENDBRANCH   3  20
TORSDOF 6
