REMARK  Name = ZINC28228051
REMARK  4 active torsions:
REMARK  status: ('A' for Active; 'I' for Inactive)
REMARK    1  A    between atoms: C_1  and  C_2
REMARK    2  A    between atoms: C_12  and  C_14
REMARK    3  A    between atoms: C_16  and  C_20
REMARK    4  A    between atoms: N_18  and  C_19
REMARK                            x       y       z     vdW  Elec       q    Type
REMARK                         _______ _______ _______ _____ _____    ______ ____
ROOT
ATOM      1  C   UNL     1      -0.823   1.212   1.265  0.00  0.00    +0.008 C 
ATOM      2  C   UNL     1      -0.084   0.766   0.002  0.00  0.00    -0.009 C 
ATOM      3  C   UNL     1       1.343   1.321   0.018  0.00  0.00    +0.010 C 
ATOM      4  C   UNL     1       2.168   0.685  -1.102  0.00  0.00    +0.056 C 
ATOM      5  C   UNL     1       1.418   0.854  -2.419  0.00  0.00    +0.054 A 
ATOM      6  C   UNL     1       0.088   1.132  -2.418  0.00  0.00    +0.015 A 
ATOM      7  S   UNL     1      -0.290   1.228  -4.147  0.00  0.00    -0.057 S 
ATOM      8  C   UNL     1       1.313   0.898  -4.734  0.00  0.00    +0.165 A 
ATOM      9  N   UNL     1       1.991   0.745  -3.615  0.00  0.00    -0.229 NA
ATOM     10  N   UNL     1       1.763   0.817  -6.045  0.00  0.00    -0.259 N 
ATOM     11  C   UNL     1       3.059   0.547  -6.297  0.00  0.00    +0.268 C 
ATOM     12  O   UNL     1       3.855   0.473  -5.380  0.00  0.00    -0.268 OA
ATOM     13  C   UNL     1      -0.809   1.308  -1.241  0.00  0.00    +0.047 C 
ATOM     14  H   UNL     1       1.062   0.972  -6.878  0.00  0.00    +0.157 HD
ENDROOT
BRANCH  11  15
ATOM     15  C   UNL     1       3.513   0.343  -7.682  0.00  0.00    +0.124 A 
ATOM     16  C   UNL     1       2.757   0.486  -8.833  0.00  0.00    +0.066 A 
ATOM     17  C   UNL     1       3.626   0.186  -9.885  0.00  0.00    +0.166 A 
ATOM     18  N   UNL     1       4.793  -0.107  -9.371  0.00  0.00    -0.167 NA
ATOM     19  N   UNL     1       4.765  -0.020  -8.090  0.00  0.00    -0.262 N 
ATOM     20  C   UNL     1       5.902  -0.275  -7.201  0.00  0.00    +0.173 C 
BRANCH  17  21
ATOM     21  C   UNL     1       3.280   0.197 -11.352  0.00  0.00    +0.436 C 
ATOM     22  F   UNL     1       3.523   1.470 -11.879  0.00  0.00    -0.164 F 
ATOM     23  F   UNL     1       4.067  -0.744 -12.024  0.00  0.00    -0.164 F 
ATOM     24  F   UNL     1       1.928  -0.124 -11.515  0.00  0.00    -0.164 F 
ENDBRANCH  17  21
ENDBRANCH  11  15
TORSDOF 2
