REMARK  Name = ZINC14656389
REMARK  10 active torsions:
REMARK  status: ('A' for Active; 'I' for Inactive)
REMARK    1  A    between atoms: C_1  and  C_2
REMARK    2  A    between atoms: C_2  and  C_3
REMARK    3  A    between atoms: C_3  and  C_4
REMARK    4  A    between atoms: C_4  and  N_5
REMARK    5  A    between atoms: C_6  and  N_28
REMARK    6  A    between atoms: C_7  and  N_14
REMARK    7  A    between atoms: N_14  and  C_15
REMARK    8  A    between atoms: C_16  and  C_18
REMARK    9  A    between atoms: C_22  and  O_24
REMARK   10  A    between atoms: O_24  and  C_25
REMARK                            x       y       z     vdW  Elec       q    Type
REMARK                         _______ _______ _______ _____ _____    ______ ____
ROOT
ATOM      1  N   UNL     1       2.063   9.412   0.017  0.00  0.00    -0.280 N 
ATOM      2  C   UNL     1       2.176   8.046   0.129  0.00  0.00    +0.127 A 
ATOM      3  C   UNL     1       1.032   7.273   0.119  0.00  0.00    +0.140 A 
ATOM      4  C   UNL     1      -0.218   7.910   0.006  0.00  0.00    +0.277 A 
ATOM      5  O   UNL     1      -1.244   7.252  -0.000  0.00  0.00    -0.266 OA
ATOM      6  N   UNL     1      -0.273   9.252  -0.096  0.00  0.00    -0.273 N 
ATOM      7  H   UNL     1      -1.160   9.706  -0.177  0.00  0.00    +0.173 HD
ATOM      8  C   UNL     1       0.853   9.989  -0.090  0.00  0.00    +0.331 A 
ATOM      9  O   UNL     1       0.774  11.199  -0.183  0.00  0.00    -0.246 OA
ENDROOT
BRANCH   3  10
ATOM     10  N   UNL     1       1.115   5.869   0.228  0.00  0.00    -0.263 N 
ATOM     11  C   UNL     1       1.794   5.262   1.375  0.00  0.00    +0.139 C 
ATOM     12  C   UNL     1       0.568   5.087  -0.724  0.00  0.00    +0.251 C 
ATOM     13  O   UNL     1       0.552   3.879  -0.583  0.00  0.00    -0.270 OA
BRANCH  12  14
ATOM     14  C   UNL     1      -0.013   5.696  -1.939  0.00  0.00    +0.041 A 
ATOM     15  C   UNL     1       0.381   6.975  -2.337  0.00  0.00    +0.013 A 
ATOM     16  C   UNL     1      -0.163   7.541  -3.472  0.00  0.00    +0.004 A 
ATOM     17  C   UNL     1      -1.099   6.846  -4.216  0.00  0.00    +0.046 A 
ATOM     18  C   UNL     1      -1.501   5.577  -3.824  0.00  0.00    +0.128 A 
ATOM     19  C   UNL     1      -0.957   4.997  -2.690  0.00  0.00    +0.059 A 
BRANCH  18  20
ATOM     20  O   UNL     1      -2.426   4.901  -4.556  0.00  0.00    -0.434 OA
BRANCH  20  21
ATOM     21  C   UNL     1      -2.941   5.557  -5.716  0.00  0.00    +0.541 C 
ATOM     22  F   UNL     1      -3.561   6.753  -5.338  0.00  0.00    -0.166 F 
ATOM     23  F   UNL     1      -1.892   5.835  -6.599  0.00  0.00    -0.166 F 
ENDBRANCH  20  21
ENDBRANCH  18  20
ENDBRANCH  12  14
ENDBRANCH   3  10
BRANCH   2  24
ATOM     24  N   UNL     1       3.412   7.457   0.243  0.00  0.00    -0.343 N 
ATOM     25  H   UNL     1       3.500   6.494   0.164  0.00  0.00    +0.144 HD
ATOM     26  H   UNL     1       4.197   8.004   0.404  0.00  0.00    +0.144 HD
ENDBRANCH   2  24
BRANCH   1  27
ATOM     27  C   UNL     1       3.269  10.245   0.020  0.00  0.00    +0.128 C 
BRANCH  27  28
ATOM     28  C   UNL     1       3.612  10.640   1.458  0.00  0.00    +0.021 C 
BRANCH  28  30
ATOM     29  C   UNL     1       5.214  11.904   2.899  0.00  0.00    +0.004 C 
ATOM     30  C   UNL     1       4.871  11.509   1.461  0.00  0.00    -0.002 C 
ENDBRANCH  28  30
ENDBRANCH  27  28
ENDBRANCH   1  27
TORSDOF 8
