REMARK  Name = ZINC12624512
REMARK  6 active torsions:
REMARK  status: ('A' for Active; 'I' for Inactive)
REMARK    1  A    between atoms: C_6  and  N_7
REMARK    2  A    between atoms: C_8  and  C_10
REMARK    3  A    between atoms: C_10  and  C_11
REMARK    4  A    between atoms: C_11  and  C_12
REMARK    5  A    between atoms: C_12  and  C_13
REMARK    6  A    between atoms: C_13  and  C_14
REMARK                            x       y       z     vdW  Elec       q    Type
REMARK                         _______ _______ _______ _____ _____    ______ ____
ROOT
ATOM      1  C   UNL     1       6.698   2.313  -1.753  0.00  0.00    +0.009 C 
ENDROOT
BRANCH   1   2
ATOM      2  C   UNL     1       7.567   2.434  -3.007  0.00  0.00    +0.096 C 
BRANCH   2   4
ATOM      3  N   UNL     1       9.838   3.225  -3.587  0.00  0.00    -0.285 N 
ATOM      4  C   UNL     1       8.903   3.024  -2.637  0.00  0.00    +0.217 C 
ATOM      5  O   UNL     1       9.138   3.318  -1.484  0.00  0.00    -0.275 OA
ATOM      6  H   UNL     1       9.676   2.929  -4.496  0.00  0.00    +0.155 HD
BRANCH   3  12
ATOM      7  C   UNL     1      11.658   4.696  -4.184  0.00  0.00    +0.026 A 
ATOM      8  C   UNL     1      12.843   5.327  -3.859  0.00  0.00    +0.040 A 
ATOM      9  C   UNL     1      13.422   5.119  -2.619  0.00  0.00    +0.124 A 
ATOM     10  C   UNL     1      12.811   4.283  -1.699  0.00  0.00    +0.040 A 
ATOM     11  C   UNL     1      11.624   3.654  -2.018  0.00  0.00    +0.026 A 
ATOM     12  C   UNL     1      11.042   3.861  -3.262  0.00  0.00    +0.034 A 
ATOM     13  F   UNL     1      14.583   5.734  -2.305  0.00  0.00    -0.205 F 
ENDBRANCH   3  12
ENDBRANCH   2   4
ENDBRANCH   1   2
BRANCH   1  14
ATOM     14  C   UNL     1       5.341   1.714  -2.128  0.00  0.00    +0.002 C 
BRANCH  14  15
ATOM     15  C   UNL     1       4.473   1.592  -0.875  0.00  0.00    +0.016 C 
BRANCH  15  16
ATOM     16  C   UNL     1       3.116   0.993  -1.250  0.00  0.00    +0.069 C 
ATOM     17  C   UNL     1       2.222   0.819  -0.013  0.00  0.00    +0.108 C 
ATOM     18  C   UNL     1       1.409  -0.480  -0.006  0.00  0.00    +0.105 C 
ATOM     19  C   UNL     1       1.645  -1.356  -1.255  0.00  0.00    +0.093 C 
ATOM     20  S   UNL     1       3.297  -0.754  -1.817  0.00  0.00    -0.154 S 
ATOM     21  N   UNL     1       0.010  -0.025   0.005  0.00  0.00    -0.294 N 
ATOM     22  C   UNL     1      -0.014   1.315   0.004  0.00  0.00    +0.300 C 
ATOM     23  O   UNL     1      -1.045   1.960   0.007  0.00  0.00    -0.253 OA
ATOM     24  N   UNL     1       1.202   1.879  -0.006  0.00  0.00    -0.294 N 
ATOM     25  H   UNL     1      -0.769  -0.602   0.012  0.00  0.00    +0.151 HD
ATOM     26  H   UNL     1       1.380   2.832  -0.007  0.00  0.00    +0.151 HD
ENDBRANCH  15  16
ENDBRANCH  14  15
ENDBRANCH   1  14
TORSDOF 6
