REMARK  Name = ZINC64674414
REMARK  10 active torsions:
REMARK  status: ('A' for Active; 'I' for Inactive)
REMARK    1  A    between atoms: C_1  and  C_2
REMARK    2  A    between atoms: C_7  and  N_8
REMARK    3  A    between atoms: C_9  and  C_11
REMARK    4  A    between atoms: C_11  and  O_12
REMARK    5  A    between atoms: O_12  and  C_13
REMARK    6  A    between atoms: C_13  and  C_15
REMARK    7  A    between atoms: C_15  and  C_17
REMARK    8  A    between atoms: C_15  and  N_27
REMARK    9  A    between atoms: C_17  and  C_18
REMARK   10  A    between atoms: C_28  and  C_30
REMARK                            x       y       z     vdW  Elec       q    Type
REMARK                         _______ _______ _______ _____ _____    ______ ____
ROOT
ATOM      1  C   UNL     1      -0.423  -1.299   8.388  0.00  0.00    +0.186 C 
ENDROOT
BRANCH   1   2
ATOM      2  N   UNL     1      -0.053  -0.567   9.602  0.00  0.00    -0.298 N 
ATOM      3  C   UNL     1      -0.765   0.513   9.981  0.00  0.00    +0.251 C 
ATOM      4  O   UNL     1      -1.715   0.880   9.314  0.00  0.00    -0.270 OA
ATOM      5  H   UNL     1       0.704  -0.860  10.133  0.00  0.00    +0.150 HD
BRANCH   3   6
ATOM      6  C   UNL     1      -0.395   1.245  11.195  0.00  0.00    +0.074 A 
ATOM      7  C   UNL     1      -0.991   2.364  11.757  0.00  0.00    +0.021 A 
ATOM      8  C   UNL     1      -0.413   2.832  12.913  0.00  0.00    +0.008 A 
ATOM      9  C   UNL     1       0.670   2.188  13.415  0.00  0.00    +0.046 A 
ATOM     10  S   UNL     1       0.934   0.925  12.340  0.00  0.00    -0.092 S 
ENDBRANCH   3   6
ENDBRANCH   1   2
BRANCH   1  11
ATOM     11  C   UNL     1      -0.343  -0.375   7.200  0.00  0.00    +0.328 C 
ATOM     12  O   UNL     1      -0.371   0.822   7.363  0.00  0.00    -0.249 OA
BRANCH  11  13
ATOM     13  O   UNL     1      -0.239  -0.882   5.961  0.00  0.00    -0.454 OA
BRANCH  13  14
ATOM     14  C   UNL     1      -0.168   0.052   4.882  0.00  0.00    +0.328 C 
BRANCH  14  16
ATOM     15  N   UNL     1       0.025  -0.015   2.417  0.00  0.00    -0.282 N 
ATOM     16  C   UNL     1      -0.056  -0.694   3.578  0.00  0.00    +0.255 C 
ATOM     17  O   UNL     1      -0.040  -1.907   3.573  0.00  0.00    -0.272 OA
ATOM     18  H   UNL     1       0.078   0.954   2.425  0.00  0.00    +0.155 HD
BRANCH  15  25
ATOM     19  C   UNL     1      -1.264   1.184   0.181  0.00  0.00    +0.045 C 
ATOM     20  C   UNL     1      -0.584  -0.158   0.084  0.00  0.00    -0.029 A 
ATOM     21  C   UNL     1      -0.568  -0.840  -1.117  0.00  0.00    +0.005 A 
ATOM     22  C   UNL     1       0.055  -2.071  -1.206  0.00  0.00    +0.000 A 
ATOM     23  C   UNL     1       0.666  -2.622  -0.095  0.00  0.00    +0.002 A 
ATOM     24  C   UNL     1       0.655  -1.945   1.108  0.00  0.00    +0.023 A 
ATOM     25  C   UNL     1       0.034  -0.706   1.201  0.00  0.00    +0.036 A 
ENDBRANCH  15  25
ENDBRANCH  14  16
ENDBRANCH  13  14
ENDBRANCH  11  13
ENDBRANCH   1  11
BRANCH   1  26
ATOM     26  C   UNL     1      -1.852  -1.828   8.527  0.00  0.00    +0.067 C 
BRANCH  26  27
ATOM     27  C   UNL     1      -1.905  -2.845   9.637  0.00  0.00    -0.039 C 
ATOM     28  C   UNL     1      -2.253  -2.625  10.926  0.00  0.00    -0.001 A 
ATOM     29  C   UNL     1      -2.668  -1.418  11.651  0.00  0.00    +0.010 A 
ATOM     30  C   UNL     1      -2.957  -1.512  12.969  0.00  0.00    +0.001 A 
ATOM     31  C   UNL     1      -2.871  -2.730  13.658  0.00  0.00    +0.002 A 
ATOM     32  C   UNL     1      -2.497  -3.881  13.059  0.00  0.00    +0.026 A 
ATOM     33  C   UNL     1      -2.170  -3.899  11.675  0.00  0.00    +0.043 A 
ATOM     34  N   UNL     1      -1.786  -4.869  10.882  0.00  0.00    -0.380 N 
ATOM     35  C   UNL     1      -1.588  -4.320   9.535  0.00  0.00    +0.144 C 
ATOM     36  H   UNL     1      -1.658  -5.795  11.140  0.00  0.00    +0.160 HD
ENDBRANCH  26  27
ENDBRANCH   1  26
TORSDOF 9
