REMARK  Name = ZINC33370527
REMARK  12 active torsions:
REMARK  status: ('A' for Active; 'I' for Inactive)
REMARK    1  A    between atoms: C_1  and  C_2
REMARK    2  A    between atoms: C_2  and  C_3
REMARK    3  A    between atoms: C_3  and  O_4
REMARK    4  A    between atoms: O_4  and  C_5
REMARK    5  A    between atoms: C_9  and  C_11
REMARK    6  A    between atoms: C_13  and  C_14
REMARK    7  A    between atoms: C_14  and  C_15
REMARK    8  A    between atoms: C_29  and  C_38
REMARK    9  A    between atoms: C_30  and  C_32
REMARK   10  A    between atoms: C_32  and  O_34
REMARK   11  A    between atoms: O_34  and  C_35
REMARK   12  A    between atoms: C_35  and  C_36
REMARK                            x       y       z     vdW  Elec       q    Type
REMARK                         _______ _______ _______ _____ _____    ______ ____
ROOT
ATOM      1  C   UNL     1      -0.090   1.260  -0.165  0.00  0.00    +0.152 C 
ATOM      2  C   UNL     1       1.350   1.691  -0.011  0.00  0.00    +0.077 C 
ATOM      3  C   UNL     1       2.091   0.511   0.188  0.00  0.00    +0.250 C 
ATOM      4  O   UNL     1       3.295   0.442   0.354  0.00  0.00    -0.282 OA
ATOM      5  C   UNL     1       1.147  -0.638   0.158  0.00  0.00    +0.293 C 
ATOM      6  O   UNL     1       1.463  -1.802   0.298  0.00  0.00    -0.266 OA
ATOM      7  N   UNL     1      -0.107  -0.201  -0.044  0.00  0.00    -0.232 N 
ATOM      8  C   UNL     1      -1.232  -0.999  -0.126  0.00  0.00    +0.169 A 
ATOM      9  N   UNL     1      -1.322  -2.317  -0.026  0.00  0.00    -0.229 NA
ATOM     10  C   UNL     1      -2.469  -2.935  -0.126  0.00  0.00    +0.062 A 
ATOM     11  C   UNL     1      -3.603  -2.162  -0.341  0.00  0.00    +0.120 A 
ATOM     12  S   UNL     1      -2.884  -0.526  -0.378  0.00  0.00    -0.045 S 
ATOM     13  C   UNL     1      -2.558  -4.435  -0.012  0.00  0.00    +0.067 C 
ENDROOT
BRANCH   1  18
ATOM     14  C   UNL     1      -2.037   3.048  -2.865  0.00  0.00    +0.121 A 
ATOM     15  C   UNL     1      -1.559   2.422  -4.008  0.00  0.00    +0.045 A 
ATOM     16  C   UNL     1      -0.610   1.425  -3.902  0.00  0.00    +0.004 A 
ATOM     17  C   UNL     1      -0.131   1.054  -2.659  0.00  0.00    +0.006 A 
ATOM     18  C   UNL     1      -0.610   1.671  -1.518  0.00  0.00    -0.019 A 
ATOM     19  C   UNL     1      -1.559   2.670  -1.619  0.00  0.00    +0.051 A 
BRANCH  14  20
ATOM     20  O   UNL     1      -2.971   4.029  -2.967  0.00  0.00    -0.492 OA
BRANCH  20  21
ATOM     21  C   UNL     1      -3.417   4.367  -4.282  0.00  0.00    +0.229 C 
BRANCH  21  23
ATOM     22  C   UNL     1      -4.938   5.844  -5.604  0.00  0.00    +0.007 C 
ATOM     23  C   UNL     1      -4.461   5.483  -4.196  0.00  0.00    +0.038 C 
ENDBRANCH  21  23
ENDBRANCH  20  21
ENDBRANCH  14  20
ENDBRANCH   1  18
BRANCH   2  24
ATOM     24  C   UNL     1       1.838   2.977  -0.054  0.00  0.00    +0.195 C 
ATOM     25  O   UNL     1       3.170   3.195  -0.028  0.00  0.00    -0.287 OA
BRANCH  24  26
ATOM     26  C   UNL     1       0.905   4.119  -0.131  0.00  0.00    +0.025 A 
ATOM     27  C   UNL     1       1.091   5.139  -1.073  0.00  0.00    +0.031 A 
ATOM     28  C   UNL     1       0.190   6.185  -1.112  0.00  0.00    +0.111 A 
ATOM     29  N   UNL     1      -0.825   6.236  -0.272  0.00  0.00    -0.263 NA
ATOM     30  C   UNL     1      -1.034   5.300   0.633  0.00  0.00    +0.111 A 
ATOM     31  C   UNL     1      -0.188   4.215   0.740  0.00  0.00    +0.031 A 
ENDBRANCH  24  26
ENDBRANCH   2  24
BRANCH  11  32
ATOM     32  C   UNL     1      -4.998  -2.573  -0.492  0.00  0.00    +0.348 C 
ATOM     33  O   UNL     1      -5.295  -3.751  -0.432  0.00  0.00    -0.244 OA
BRANCH  32  34
ATOM     34  O   UNL     1      -5.956  -1.645  -0.697  0.00  0.00    -0.457 OA
BRANCH  34  35
ATOM     35  C   UNL     1      -7.297  -2.117  -0.835  0.00  0.00    +0.259 C 
BRANCH  35  36
ATOM     36  C   UNL     1      -8.221  -0.947  -1.056  0.00  0.00    +0.006 C 
ATOM     37  C   UNL     1      -9.143  -1.007  -1.985  0.00  0.00    +0.007 C 
ENDBRANCH  35  36
ENDBRANCH  34  35
ENDBRANCH  32  34
ENDBRANCH  11  32
TORSDOF 10
