REMARK  Name = ZINC11440762
REMARK  12 active torsions:
REMARK  status: ('A' for Active; 'I' for Inactive)
REMARK    1  A    between atoms: C_1  and  C_2
REMARK    2  A    between atoms: C_2  and  C_3
REMARK    3  A    between atoms: C_2  and  C_4
REMARK    4  A    between atoms: C_4  and  N_5
REMARK    5  A    between atoms: N_5  and  C_6
REMARK    6  A    between atoms: C_14  and  C_16
REMARK    7  A    between atoms: C_16  and  O_17
REMARK    8  A    between atoms: O_17  and  C_18
REMARK    9  A    between atoms: C_18  and  C_20
REMARK   10  A    between atoms: C_20  and  C_21
REMARK   11  A    between atoms: C_21  and  N_22
REMARK   12  A    between atoms: N_25  and  C_26
REMARK                            x       y       z     vdW  Elec       q    Type
REMARK                         _______ _______ _______ _____ _____    ______ ____
ROOT
ATOM      1  C   UNL     1       2.642  -5.712   2.048  0.00  0.00    +0.309 C 
ATOM      2  O   UNL     1       2.460  -6.527   1.175  0.00  0.00    -0.251 OA
ENDROOT
BRANCH   1   3
ATOM      3  O   UNL     1       2.409  -4.412   1.812  0.00  0.00    -0.455 OA
BRANCH   3   4
ATOM      4  C   UNL     1       1.940  -4.057   0.484  0.00  0.00    +0.327 C 
BRANCH   4   6
ATOM      5  N   UNL     1       1.299  -2.005  -0.740  0.00  0.00    -0.294 N 
ATOM      6  C   UNL     1       1.735  -2.566   0.406  0.00  0.00    +0.254 C 
ATOM      7  O   UNL     1       1.962  -1.871   1.373  0.00  0.00    -0.272 OA
BRANCH   5   8
ATOM      8  C   UNL     1       1.100  -0.556  -0.816  0.00  0.00    +0.099 C 
ATOM      9  C   UNL     1      -0.007  -0.140   0.166  0.00  0.00    +0.046 C 
ATOM     10  C   UNL     1       0.017   1.409   0.297  0.00  0.00    +0.168 C 
ATOM     11  S   UNL     1       1.834   1.715   0.338  0.00  0.00    -0.029 S 
ATOM     12  O   UNL     1       2.137   2.813  -0.511  0.00  0.00    -0.174 OA
ATOM     13  O   UNL     1       2.269   1.736   1.690  0.00  0.00    -0.174 OA
ATOM     14  C   UNL     1       2.422   0.164  -0.457  0.00  0.00    +0.188 C 
ENDBRANCH   5   8
BRANCH   5  15
ATOM     15  C   UNL     1       1.025  -2.845  -1.909  0.00  0.00    +0.111 C 
BRANCH  15  17
ATOM     16  C   UNL     1       2.071  -4.097  -3.801  0.00  0.00    +0.009 C 
ATOM     17  C   UNL     1       2.327  -3.095  -2.673  0.00  0.00    +0.000 C 
ATOM     18  C   UNL     1       2.832  -1.778  -3.265  0.00  0.00    +0.009 C 
ENDBRANCH  15  17
ENDBRANCH   5  15
ENDBRANCH   4   6
ENDBRANCH   3   4
ENDBRANCH   1   3
BRANCH   1  19
ATOM     19  C   UNL     1       3.130  -6.156   3.403  0.00  0.00    +0.139 C 
BRANCH  19  20
ATOM     20  C   UNL     1       3.315  -7.675   3.406  0.00  0.00    +0.117 C 
BRANCH  20  21
ATOM     21  N   UNL     1       3.789  -8.106   4.724  0.00  0.00    -0.299 N 
ATOM     22  C   UNL     1       4.023  -9.412   4.961  0.00  0.00    +0.300 C 
ATOM     23  O   UNL     1       3.840 -10.232   4.083  0.00  0.00    -0.253 OA
ATOM     24  N   UNL     1       4.460  -9.809   6.173  0.00  0.00    -0.294 N 
ATOM     25  H   UNL     1       3.936  -7.452   5.425  0.00  0.00    +0.150 HD
ATOM     26  H   UNL     1       4.606  -9.155   6.874  0.00  0.00    +0.151 HD
BRANCH  24  27
ATOM     27  C   UNL     1       4.714 -11.228   6.431  0.00  0.00    +0.037 C 
ATOM     28  C   UNL     1       3.423 -12.023   6.225  0.00  0.00    +0.029 C 
ATOM     29  C   UNL     1       3.689 -13.506   6.495  0.00  0.00    -0.008 C 
ATOM     30  C   UNL     1       4.173 -13.683   7.936  0.00  0.00    +0.007 C 
ATOM     31  C   UNL     1       5.464 -12.888   8.142  0.00  0.00    -0.008 C 
ATOM     32  C   UNL     1       5.198 -11.406   7.872  0.00  0.00    +0.029 C 
ATOM     33  C   UNL     1       6.536 -13.398   7.177  0.00  0.00    +0.007 C 
ATOM     34  C   UNL     1       6.052 -13.221   5.736  0.00  0.00    -0.008 C 
ATOM     35  C   UNL     1       4.761 -14.016   5.530  0.00  0.00    +0.007 C 
ATOM     36  C   UNL     1       5.787 -11.738   5.466  0.00  0.00    +0.029 C 
ENDBRANCH  24  27
ENDBRANCH  20  21
ENDBRANCH  19  20
ENDBRANCH   1  19
TORSDOF 10
