REMARK  Name = ZINC35502227
REMARK  4 active torsions:
REMARK  status: ('A' for Active; 'I' for Inactive)
REMARK    1  A    between atoms: C_1  and  N_2
REMARK    2  A    between atoms: N_2  and  C_3
REMARK    3  A    between atoms: C_3  and  C_5
REMARK    4  A    between atoms: C_3  and  C_13
REMARK                            x       y       z     vdW  Elec       q    Type
REMARK                         _______ _______ _______ _____ _____    ______ ____
ROOT
ATOM      1  C   UNL     1      -1.376  -0.512   0.012  0.00  0.00    -0.008 C 
ENDROOT
BRANCH   1   2
ATOM      2  C   UNL     1      -2.067  -0.116  -1.267  0.00  0.00    -0.056 A 
ATOM      3  C   UNL     1      -1.384  -0.171  -2.467  0.00  0.00    +0.004 A 
ATOM      4  C   UNL     1      -2.016   0.193  -3.641  0.00  0.00    +0.021 A 
ATOM      5  C   UNL     1      -3.335   0.612  -3.615  0.00  0.00    +0.059 A 
ATOM      6  C   UNL     1      -4.020   0.665  -2.413  0.00  0.00    +0.059 A 
ATOM      7  C   UNL     1      -3.386   0.296  -1.240  0.00  0.00    +0.023 A 
ATOM      8 CL   UNL     1      -5.674   1.191  -2.379  0.00  0.00    -0.082 Cl
ATOM      9 CL   UNL     1      -4.130   1.069  -5.089  0.00  0.00    -0.082 Cl
ENDBRANCH   1   2
BRANCH   1  10
ATOM     10  C   UNL     1      -1.356  -2.015   0.128  0.00  0.00    -0.030 A 
ATOM     11  C   UNL     1      -0.217  -2.729  -0.198  0.00  0.00    +0.031 A 
ATOM     12  C   UNL     1      -0.234  -4.080  -0.082  0.00  0.00    +0.080 A 
ATOM     13  S   UNL     1      -1.894  -4.381   0.503  0.00  0.00    -0.065 S 
ATOM     14  C   UNL     1      -2.453  -2.687   0.558  0.00  0.00    +0.081 A 
ATOM     15 CL   UNL     1      -4.000  -2.062   1.037  0.00  0.00    -0.076 Cl
ATOM     16 CL   UNL     1       1.031  -5.222  -0.415  0.00  0.00    -0.076 Cl
ENDBRANCH   1  10
BRANCH   1  18
ATOM     17  C   UNL     1      -0.018   1.465   0.010  0.00  0.00    -0.099 C 
ATOM     18  N   UNL     1       0.002  -0.004   0.002  0.00  0.00    +0.384 N 
ATOM     19  H   UNL     1       0.474  -0.330  -0.828  0.00  0.00    -0.085 HD
ATOM     20  H   UNL     1       0.490  -0.338   0.820  0.00  0.00    -0.085 HD
ENDBRANCH   1  18
TORSDOF 3
