REMARK  Name = ZINC39421761
REMARK  11 active torsions:
REMARK  status: ('A' for Active; 'I' for Inactive)
REMARK    1  A    between atoms: C_1  and  C_2
REMARK    2  A    between atoms: C_2  and  C_3
REMARK    3  A    between atoms: C_8  and  C_12
REMARK    4  A    between atoms: C_12  and  C_14
REMARK    5  A    between atoms: C_14  and  C_16
REMARK    6  A    between atoms: C_14  and  O_22
REMARK    7  A    between atoms: O_22  and  C_23
REMARK    8  A    between atoms: C_23  and  C_25
REMARK    9  A    between atoms: C_25  and  N_26
REMARK   10  A    between atoms: N_35  and  C_40
REMARK   11  A    between atoms: N_38  and  C_39
REMARK                            x       y       z     vdW  Elec       q    Type
REMARK                         _______ _______ _______ _____ _____    ______ ____
ROOT
ATOM      1  C   UNL     1       6.604  -1.554  -2.885  0.00  0.00    +0.277 C 
ENDROOT
BRANCH   1   2
ATOM      2  C   UNL     1       6.920  -2.788  -2.079  0.00  0.00    +0.000 A 
ATOM      3  C   UNL     1       7.235  -3.971  -2.721  0.00  0.00    +0.008 A 
ATOM      4  C   UNL     1       7.525  -5.102  -1.982  0.00  0.00    +0.000 A 
ATOM      5  C   UNL     1       7.500  -5.051  -0.601  0.00  0.00    +0.000 A 
ATOM      6  C   UNL     1       7.187  -3.868   0.041  0.00  0.00    +0.000 A 
ATOM      7  C   UNL     1       6.901  -2.735  -0.698  0.00  0.00    +0.008 A 
ENDBRANCH   1   2
BRANCH   1   8
ATOM      8  C   UNL     1       5.146  -1.561  -3.264  0.00  0.00    +0.206 C 
ATOM      9  O   UNL     1       4.809  -1.916  -4.375  0.00  0.00    -0.288 OA
BRANCH   8  15
ATOM     10  C   UNL     1       0.707  -0.490  -1.238  0.00  0.00    -0.024 A 
ATOM     11  C   UNL     1       0.003  -0.812  -2.344  0.00  0.00    +0.005 A 
ATOM     12  C   UNL     1       0.628  -1.268  -3.517  0.00  0.00    +0.001 A 
ATOM     13  C   UNL     1       1.968  -1.413  -3.615  0.00  0.00    +0.010 A 
ATOM     14  C   UNL     1       2.802  -1.105  -2.514  0.00  0.00    +0.007 A 
ATOM     15  C   UNL     1       4.172  -1.156  -2.327  0.00  0.00    +0.027 C 
ATOM     16  C   UNL     1       4.406  -0.688  -0.908  0.00  0.00    +0.152 C 
ATOM     17  N   UNL     1       3.082  -0.386  -0.356  0.00  0.00    -0.380 N 
ATOM     18  C   UNL     1       2.174  -0.615  -1.262  0.00  0.00    +0.046 A 
ATOM     19  H   UNL     1       2.908  -0.062   0.542  0.00  0.00    +0.160 HD
BRANCH  10  21
ATOM     20  C   UNL     1      -0.019   1.526   0.010  0.00  0.00    +0.009 C 
ATOM     21  C   UNL     1       0.002  -0.004   0.002  0.00  0.00    +0.034 C 
ENDBRANCH  10  21
ENDBRANCH   8  15
ENDBRANCH   1   8
BRANCH   1  22
ATOM     22  O   UNL     1       7.404  -1.541  -4.069  0.00  0.00    -0.447 OA
BRANCH  22  23
ATOM     23  C   UNL     1       8.600  -0.935  -3.991  0.00  0.00    +0.326 C 
ATOM     24  O   UNL     1       8.955  -0.433  -2.951  0.00  0.00    -0.249 OA
BRANCH  23  25
ATOM     25  C   UNL     1       9.498  -0.882  -5.199  0.00  0.00    +0.227 C 
BRANCH  25  26
ATOM     26  N   UNL     1      10.734  -0.173  -4.858  0.00  0.00    -0.296 N 
ATOM     27  C   UNL     1      10.939   1.169  -4.970  0.00  0.00    +0.181 C 
ATOM     28  N   UNL     1      12.105   1.563  -4.614  0.00  0.00    -0.252 NA
ATOM     29  C   UNL     1      12.918   0.422  -4.172  0.00  0.00    +0.225 C 
ATOM     30  C   UNL     1      11.961  -0.790  -4.330  0.00  0.00    +0.204 C 
ATOM     31  C   UNL     1      12.388  -1.834  -5.342  0.00  0.00    +0.247 C 
ATOM     32  O   UNL     1      11.702  -2.813  -5.541  0.00  0.00    -0.273 OA
ATOM     33  N   UNL     1      13.537  -1.658  -6.017  0.00  0.00    -0.227 N 
ATOM     34  C   UNL     1      14.346  -0.610  -5.855  0.00  0.00    +0.312 C 
ATOM     35  O   UNL     1      15.359  -0.573  -6.525  0.00  0.00    -0.252 OA
ATOM     36  N   UNL     1      14.131   0.421  -5.005  0.00  0.00    -0.264 N 
ATOM     37  C   UNL     1      15.090   1.524  -4.898  0.00  0.00    +0.136 C 
ATOM     38  C   UNL     1      13.926  -2.682  -6.990  0.00  0.00    +0.143 C 
ENDBRANCH  25  26
ENDBRANCH  23  25
ENDBRANCH  22  23
ENDBRANCH   1  22
TORSDOF 8
