REMARK  Name = ZINC57898442
REMARK  9 active torsions:
REMARK  status: ('A' for Active; 'I' for Inactive)
REMARK    1  A    between atoms: C_1  and  C_2
REMARK    2  A    between atoms: C_7  and  C_25
REMARK    3  A    between atoms: C_10  and  C_12
REMARK    4  A    between atoms: C_13  and  C_14
REMARK    5  A    between atoms: C_17  and  O_21
REMARK    6  A    between atoms: C_18  and  N_20
REMARK    7  A    between atoms: O_21  and  C_22
REMARK    8  A    between atoms: C_22  and  C_23
REMARK    9  A    between atoms: C_22  and  C_24
REMARK                            x       y       z     vdW  Elec       q    Type
REMARK                         _______ _______ _______ _____ _____    ______ ____
ROOT
ATOM      1  C   UNL     1       2.720   2.323   4.272  0.00  0.00    -0.023 A 
ATOM      2  C   UNL     1       1.487   2.880   3.916  0.00  0.00    +0.011 A 
ATOM      3  C   UNL     1       1.420   4.188   3.488  0.00  0.00    +0.048 A 
ATOM      4  C   UNL     1       2.573   4.957   3.408  0.00  0.00    +0.141 A 
ATOM      5  C   UNL     1       3.807   4.409   3.762  0.00  0.00    +0.067 A 
ATOM      6  C   UNL     1       3.883   3.099   4.197  0.00  0.00    +0.034 A 
ENDROOT
BRANCH   5   7
ATOM      7  N   UNL     1       4.968   5.187   3.679  0.00  0.00    -0.355 N 
ATOM      8  H   UNL     1       4.914   6.107   3.377  0.00  0.00    +0.142 HD
ATOM      9  H   UNL     1       5.825   4.806   3.925  0.00  0.00    +0.142 HD
ENDBRANCH   5   7
BRANCH   1  11
ATOM     10  C   UNL     1       2.146  -0.041   4.050  0.00  0.00    +0.068 C 
ATOM     11  C   UNL     1       2.794   0.927   4.730  0.00  0.00    +0.013 C 
BRANCH  10  19
ATOM     12  C   UNL     1       0.655   0.983   0.319  0.00  0.00    +0.028 C 
ATOM     13  C   UNL     1       0.304  -0.440   0.757  0.00  0.00    +0.074 C 
ATOM     14  C   UNL     1      -1.218  -0.619   0.749  0.00  0.00    +0.022 C 
ATOM     15  C   UNL     1      -1.568  -1.995   1.321  0.00  0.00    +0.004 C 
ATOM     16  C   UNL     1      -1.079  -2.088   2.767  0.00  0.00    +0.022 C 
ATOM     17  C   UNL     1       0.445  -1.926   2.798  0.00  0.00    +0.074 C 
ATOM     18  N   UNL     1       0.803  -0.672   2.119  0.00  0.00    -0.292 N 
ATOM     19  C   UNL     1       1.572   0.247   2.735  0.00  0.00    +0.240 C 
ATOM     20  O   UNL     1       1.789   1.317   2.198  0.00  0.00    -0.271 OA
ATOM     21  C   UNL     1       1.101  -3.105   2.078  0.00  0.00    +0.028 C 
ENDBRANCH  10  19
ENDBRANCH   1  11
BRANCH   4  22
ATOM     22  O   UNL     1       2.500   6.245   2.985  0.00  0.00    -0.488 OA
BRANCH  22  23
ATOM     23  C   UNL     1       1.212   6.728   2.596  0.00  0.00    +0.167 C 
ATOM     24  C   UNL     1       0.444   7.188   3.837  0.00  0.00    +0.051 C 
ATOM     25  C   UNL     1       1.379   7.907   1.635  0.00  0.00    +0.051 C 
ENDBRANCH  22  23
ENDBRANCH   4  22
TORSDOF 5
