REMARK  Name = ZINC12218425
REMARK  8 active torsions:
REMARK  status: ('A' for Active; 'I' for Inactive)
REMARK    1  A    between atoms: C_1  and  C_2
REMARK    2  A    between atoms: C_2  and  C_4
REMARK    3  A    between atoms: C_2  and  N_61
REMARK    4  A    between atoms: C_4  and  C_5
REMARK    5  A    between atoms: C_10  and  N_61
REMARK    6  A    between atoms: N_13  and  C_16
REMARK    7  A    between atoms: C_19  and  N_22
REMARK    8  A    between atoms: C_23  and  C_25
REMARK                            x       y       z     vdW  Elec       q    Type
REMARK                         _______ _______ _______ _____ _____    ______ ____
ROOT
ATOM      1  C   UNL     1      -3.258  -2.420   1.134  0.00  0.00    -0.069 C 
ATOM      2  C   UNL     1      -2.264  -2.931   0.088  0.00  0.00    +0.003 C 
ATOM      3  C   UNL     1      -0.948  -2.163   0.224  0.00  0.00    +0.103 C 
ATOM      4  N   UNL     1      -1.195  -0.728   0.031  0.00  0.00    -0.330 N 
ATOM      5  C   UNL     1      -2.110  -0.205   1.053  0.00  0.00    +0.103 C 
ATOM      6  C   UNL     1      -3.461  -0.914   0.942  0.00  0.00    +0.003 C 
ENDROOT
BRANCH   4   7
ATOM      7  C   UNL     1       0.006  -0.010   0.018  0.00  0.00    +0.030 A 
ATOM      8  C   UNL     1      -0.011   1.368  -0.154  0.00  0.00    +0.025 A 
ATOM      9  C   UNL     1       1.174   2.076  -0.167  0.00  0.00    +0.025 A 
ATOM     10  C   UNL     1       2.382   1.411  -0.007  0.00  0.00    +0.034 A 
ATOM     11  C   UNL     1       2.400   0.033   0.164  0.00  0.00    +0.025 A 
ATOM     12  C   UNL     1       1.215  -0.675   0.176  0.00  0.00    +0.025 A 
BRANCH  10  13
ATOM     13  N   UNL     1       3.585   2.131  -0.020  0.00  0.00    -0.285 N 
ATOM     14  C   UNL     1       4.701   1.569  -0.527  0.00  0.00    +0.220 C 
ATOM     15  O   UNL     1       4.644   0.481  -1.058  0.00  0.00    -0.275 OA
ATOM     16  H   UNL     1       3.615   3.032   0.337  0.00  0.00    +0.155 HD
BRANCH  14  17
ATOM     17  C   UNL     1       6.019   2.295  -0.433  0.00  0.00    +0.075 C 
ATOM     18  C   UNL     1       5.951   3.618  -1.224  0.00  0.00    +0.013 C 
ATOM     19  C   UNL     1       7.358   3.753  -1.859  0.00  0.00    +0.001 C 
ATOM     20  C   UNL     1       7.702   2.292  -2.242  0.00  0.00    +0.001 C 
ATOM     21  C   UNL     1       7.131   1.452  -1.080  0.00  0.00    +0.013 C 
ENDBRANCH  14  17
ENDBRANCH  10  13
ENDBRANCH   4   7
BRANCH   1  22
ATOM     22  N   UNL     1      -4.547  -3.118   0.962  0.00  0.00    +0.383 N 
ATOM     23  H   UNL     1      -5.099  -2.635   0.243  0.00  0.00    -0.085 HD
ATOM     24  H   UNL     1      -4.371  -4.085   0.666  0.00  0.00    -0.085 HD
BRANCH  22  26
ATOM     25  C   UNL     1      -4.844  -4.309   3.087  0.00  0.00    -0.013 C 
ATOM     26  C   UNL     1      -5.299  -3.125   2.230  0.00  0.00    -0.070 C 
BRANCH  26  27
ATOM     27  C   UNL     1      -6.793  -3.259   1.928  0.00  0.00    +0.026 C 
BRANCH  27  28
ATOM     28  C   UNL     1      -7.267  -2.034   1.190  0.00  0.00    -0.012 A 
ATOM     29  C   UNL     1      -7.303  -1.802  -0.145  0.00  0.00    +0.011 A 
ATOM     30  C   UNL     1      -7.789  -0.591  -0.602  0.00  0.00    +0.008 A 
ATOM     31  C   UNL     1      -8.204   0.333   0.298  0.00  0.00    +0.045 A 
ATOM     32  S   UNL     1      -7.920  -0.508   1.847  0.00  0.00    -0.102 S 
ENDBRANCH  27  28
ENDBRANCH  26  27
ENDBRANCH  22  26
ENDBRANCH   1  22
TORSDOF 7
