REMARK  Name = ZINC35480192
REMARK  3 active torsions:
REMARK  status: ('A' for Active; 'I' for Inactive)
REMARK    1  A    between atoms: C_3  and  N_18
REMARK    2  A    between atoms: C_6  and  C_7
REMARK    3  A    between atoms: C_9  and  C_12
REMARK                            x       y       z     vdW  Elec       q    Type
REMARK                         _______ _______ _______ _____ _____    ______ ____
ROOT
ATOM      1  C   UNL     1      -0.017   1.390   0.027  0.00  0.00    +0.013 A 
ATOM      2  C   UNL     1       1.168   2.094   0.019  0.00  0.00    +0.024 A 
ATOM      3  C   UNL     1       2.381   1.416  -0.013  0.00  0.00    +0.030 A 
ATOM      4  C   UNL     1       2.402   0.025  -0.038  0.00  0.00    +0.024 A 
ATOM      5  C   UNL     1       1.220  -0.683  -0.030  0.00  0.00    +0.013 A 
ATOM      6  C   UNL     1       0.002  -0.004   0.002  0.00  0.00    +0.023 A 
ENDROOT
BRANCH   3   7
ATOM      7  N   UNL     1       3.579   2.130  -0.022  0.00  0.00    -0.330 N 
ATOM      8  C   UNL     1       4.868   1.431   0.066  0.00  0.00    +0.105 C 
ATOM      9  C   UNL     1       5.750   1.875  -1.106  0.00  0.00    +0.019 C 
ATOM     10  C   UNL     1       5.861   3.401  -1.106  0.00  0.00    +0.003 C 
ATOM     11  C   UNL     1       4.471   4.015  -1.288  0.00  0.00    +0.019 C 
ATOM     12  C   UNL     1       3.575   3.596  -0.125  0.00  0.00    +0.105 C 
ENDBRANCH   3   7
BRANCH   6  13
ATOM     13  C   UNL     1      -1.272  -0.764   0.011  0.00  0.00    +0.202 A 
ATOM     14  N   UNL     1      -1.386  -2.104  -0.005  0.00  0.00    -0.189 NA
ATOM     15  C   UNL     1      -2.643  -2.445   0.009  0.00  0.00    +0.257 A 
ATOM     16  O   UNL     1      -3.385  -1.330   0.035  0.00  0.00    -0.335 OA
ATOM     17  N   UNL     1      -2.473  -0.242   0.041  0.00  0.00    -0.056 NA
BRANCH  15  18
ATOM     18  C   UNL     1      -3.173  -3.856  -0.002  0.00  0.00    +0.206 C 
ATOM     19  C   UNL     1      -3.734  -4.194  -1.400  0.00  0.00    +0.043 C 
ATOM     20  C   UNL     1      -5.001  -5.022  -1.054  0.00  0.00    +0.031 C 
ATOM     21  C   UNL     1      -5.461  -4.327   0.252  0.00  0.00    +0.161 C 
ATOM     22  O   UNL     1      -4.246  -3.978   0.939  0.00  0.00    -0.367 OA
ENDBRANCH  15  18
ENDBRANCH   6  13
TORSDOF 3
