REMARK  Name = ZINC13461822
REMARK  4 active torsions:
REMARK  status: ('A' for Active; 'I' for Inactive)
REMARK    1  A    between atoms: N_13  and  C_15
REMARK    2  A    between atoms: C_18  and  S_23
REMARK    3  A    between atoms: C_20  and  C_21
REMARK    4  A    between atoms: S_23  and  N_26
REMARK                            x       y       z     vdW  Elec       q    Type
REMARK                         _______ _______ _______ _____ _____    ______ ____
ROOT
ATOM      1  C   UNL     1       4.864  -1.802  -2.688  0.00  0.00    +0.044 A 
ATOM      2  C   UNL     1       5.245  -0.616  -2.072  0.00  0.00    +0.026 A 
ATOM      3  C   UNL     1       4.799  -0.323  -0.800  0.00  0.00    +0.030 A 
ATOM      4  C   UNL     1       3.967  -1.205  -0.127  0.00  0.00    +0.106 A 
ATOM      5  C   UNL     1       3.583  -2.388  -0.719  0.00  0.00    +0.045 A 
ATOM      6  C   UNL     1       4.023  -2.697  -2.009  0.00  0.00    +0.086 A 
ENDROOT
BRANCH   1  19
ATOM      7  C   UNL     1       4.090   0.242  -9.373  0.00  0.00    +0.001 A 
ATOM      8  C   UNL     1       4.962  -0.357 -10.267  0.00  0.00    +0.002 A 
ATOM      9  C   UNL     1       5.944  -1.243  -9.858  0.00  0.00    +0.026 A 
ATOM     10  C   UNL     1       6.024  -1.511  -8.494  0.00  0.00    +0.047 A 
ATOM     11  C   UNL     1       5.129  -0.894  -7.582  0.00  0.00    +0.005 A 
ATOM     12  C   UNL     1       4.145  -0.003  -8.023  0.00  0.00    +0.010 A 
ATOM     13  C   UNL     1       5.490  -1.389  -6.272  0.00  0.00    -0.002 A 
ATOM     14  C   UNL     1       6.531  -2.236  -6.441  0.00  0.00    +0.023 A 
ATOM     15  N   UNL     1       6.855  -2.316  -7.767  0.00  0.00    -0.358 N 
ATOM     16  H   UNL     1       7.568  -2.861  -8.136  0.00  0.00    +0.166 HD
ATOM     17  C   UNL     1       7.194  -2.958  -5.290  0.00  0.00    +0.072 C 
ATOM     18  C   UNL     1       6.773  -2.264  -3.989  0.00  0.00    +0.111 C 
ATOM     19  N   UNL     1       5.313  -2.099  -3.968  0.00  0.00    -0.324 N 
ATOM     20  C   UNL     1       4.877  -1.075  -4.932  0.00  0.00    +0.142 C 
ENDBRANCH   1  19
BRANCH   6  21
ATOM     21  C   UNL     1       3.611  -3.958  -2.650  0.00  0.00    +0.388 C 
ATOM     22  O   UNL     1       4.072  -4.269  -3.731  0.00  0.00    -0.241 OA
ATOM     23  O   UNL     1       2.724  -4.767  -2.037  0.00  0.00    -0.241 OA
ENDBRANCH   6  21
BRANCH   4  24
ATOM     24  S   UNL     1       3.407  -0.814   1.497  0.00  0.00    +0.061 S 
ATOM     25  O   UNL     1       4.351   0.095   2.045  0.00  0.00    -0.153 OA
ATOM     26  O   UNL     1       3.085  -2.049   2.123  0.00  0.00    -0.153 OA
BRANCH  24  27
ATOM     27  N   UNL     1       1.985   0.020   1.336  0.00  0.00    -0.177 NA
ATOM     28  C   UNL     1       0.700  -0.691   1.303  0.00  0.00    +0.109 C 
ATOM     29  C   UNL     1      -0.065  -0.268   0.045  0.00  0.00    +0.017 C 
ATOM     30  C   UNL     1      -0.190   1.257   0.016  0.00  0.00    +0.003 C 
ATOM     31  C   UNL     1       1.206   1.883  -0.034  0.00  0.00    +0.017 C 
ATOM     32  C   UNL     1       1.985   1.485   1.224  0.00  0.00    +0.109 C 
ENDBRANCH  24  27
ENDBRANCH   4  24
TORSDOF 4
