REMARK  Name = ZINC19940983
REMARK  10 active torsions:
REMARK  status: ('A' for Active; 'I' for Inactive)
REMARK    1  A    between atoms: C_1  and  C_2
REMARK    2  A    between atoms: C_4  and  C_42
REMARK    3  A    between atoms: C_7  and  C_14
REMARK    4  A    between atoms: C_14  and  C_16
REMARK    5  A    between atoms: C_14  and  N_28
REMARK    6  A    between atoms: N_20  and  C_21
REMARK    7  A    between atoms: C_21  and  C_22
REMARK    8  A    between atoms: N_31  and  C_34
REMARK    9  A    between atoms: C_39  and  O_40
REMARK   10  A    between atoms: O_40  and  C_41
REMARK                            x       y       z     vdW  Elec       q    Type
REMARK                         _______ _______ _______ _____ _____    ______ ____
ROOT
ATOM      1  C   UNL     1       1.181  -2.252  -0.008  0.00  0.00    +0.162 C 
ENDROOT
BRANCH   1   8
ATOM      2  C   UNL     1       2.292   5.646  -0.041  0.00  0.00    +0.044 C 
ATOM      3  C   UNL     1       2.315   4.139  -0.051  0.00  0.00    -0.048 A 
ATOM      4  C   UNL     1       3.528   3.471  -0.145  0.00  0.00    +0.007 A 
ATOM      5  C   UNL     1       3.571   2.106  -0.156  0.00  0.00    -0.041 A 
ATOM      6  C   UNL     1       2.382   1.374  -0.072  0.00  0.00    +0.002 A 
ATOM      7  C   UNL     1       2.391  -0.090  -0.083  0.00  0.00    +0.021 A 
ATOM      8  C   UNL     1       1.207  -0.746   0.000  0.00  0.00    +0.042 A 
ATOM      9  C   UNL     1      -0.002  -0.022   0.094  0.00  0.00    +0.254 A 
ATOM     10  O   UNL     1      -1.055  -0.631   0.168  0.00  0.00    -0.268 OA
ATOM     11  N   UNL     1      -0.020   1.323   0.104  0.00  0.00    -0.322 N 
ATOM     12  H   UNL     1      -0.977   1.859   0.178  0.00  0.00    +0.169 HD
ATOM     13  C   UNL     1       1.150   2.048   0.022  0.00  0.00    +0.050 A 
ATOM     14  C   UNL     1       1.131   3.439   0.032  0.00  0.00    +0.029 A 
ATOM     15  C   UNL     1       4.894   1.391  -0.258  0.00  0.00    +0.044 C 
ENDBRANCH   1   8
BRANCH   1  16
ATOM     16  N   UNL     1       0.272  -2.721  -1.063  0.00  0.00    -0.286 NA
ATOM     17  C   UNL     1       0.079  -4.175  -0.984  0.00  0.00    +0.104 C 
ATOM     18  C   UNL     1      -0.933  -4.611  -2.046  0.00  0.00    +0.120 C 
ATOM     19  N   UNL     1      -0.444  -4.220  -3.375  0.00  0.00    -0.325 N 
ATOM     20  C   UNL     1      -0.250  -2.765  -3.454  0.00  0.00    +0.120 C 
ATOM     21  C   UNL     1       0.761  -2.329  -2.392  0.00  0.00    +0.104 C 
BRANCH  19  22
ATOM     22  C   UNL     1      -1.310  -4.666  -4.380  0.00  0.00    +0.072 A 
ATOM     23  C   UNL     1      -2.548  -5.194  -4.047  0.00  0.00    +0.027 A 
ATOM     24  C   UNL     1      -3.402  -5.634  -5.041  0.00  0.00    +0.002 A 
ATOM     25  C   UNL     1      -3.024  -5.550  -6.369  0.00  0.00    +0.004 A 
ATOM     26  C   UNL     1      -1.790  -5.025  -6.708  0.00  0.00    +0.047 A 
ATOM     27  C   UNL     1      -0.932  -4.576  -5.718  0.00  0.00    +0.141 A 
BRANCH  27  28
ATOM     28  O   UNL     1       0.279  -4.054  -6.051  0.00  0.00    -0.493 OA
ATOM     29  C   UNL     1       0.599  -3.993  -7.442  0.00  0.00    +0.277 C 
ENDBRANCH  27  28
ENDBRANCH  19  22
ENDBRANCH   1  16
BRANCH   1  30
ATOM     30  C   UNL     1       0.699  -2.753   1.329  0.00  0.00    +0.173 A 
ATOM     31  N   UNL     1      -0.533  -2.734   1.775  0.00  0.00    -0.111 NA
ATOM     32  N   UNL     1      -0.539  -3.251   2.954  0.00  0.00    -0.023 NA
ATOM     33  N   UNL     1       0.660  -3.594   3.276  0.00  0.00    -0.044 NA
ATOM     34  N   UNL     1       1.452  -3.303   2.300  0.00  0.00    -0.225 N 
BRANCH  34  35
ATOM     35  C   UNL     1       2.899  -3.529   2.257  0.00  0.00    +0.179 C 
BRANCH  35  36
ATOM     36  C   UNL     1       3.624  -2.300   2.810  0.00  0.00    +0.140 C 
ATOM     37  C   UNL     1       5.150  -2.482   2.662  0.00  0.00    +0.035 C 
ATOM     38  C   UNL     1       5.684  -1.876   3.988  0.00  0.00    +0.031 C 
ATOM     39  C   UNL     1       4.550  -2.269   4.969  0.00  0.00    +0.160 C 
ATOM     40  O   UNL     1       3.338  -2.155   4.206  0.00  0.00    -0.375 OA
ENDBRANCH  35  36
ENDBRANCH  34  35
ENDBRANCH   1  30
TORSDOF 7
