REMARK  Name = ZINC08734788
REMARK  12 active torsions:
REMARK  status: ('A' for Active; 'I' for Inactive)
REMARK    1  A    between atoms: C_1  and  C_2
REMARK    2  A    between atoms: C_2  and  O_3
REMARK    3  A    between atoms: O_3  and  C_4
REMARK    4  A    between atoms: C_9  and  C_10
REMARK    5  A    between atoms: C_10  and  N_66
REMARK    6  A    between atoms: C_11  and  C_13
REMARK    7  A    between atoms: C_11  and  C_14
REMARK    8  A    between atoms: C_11  and  N_66
REMARK    9  A    between atoms: N_16  and  C_17
REMARK   10  A    between atoms: C_20  and  S_23
REMARK   11  A    between atoms: S_23  and  N_26
REMARK   12  A    between atoms: C_32  and  C_35
REMARK                            x       y       z     vdW  Elec       q    Type
REMARK                         _______ _______ _______ _____ _____    ______ ____
ROOT
ATOM      1  C   UNL     1       4.213   6.949  -0.215  0.00  0.00    +0.014 C 
ATOM      2  C   UNL     1       5.727   6.726  -0.193  0.00  0.00    -0.004 C 
ENDROOT
BRANCH   1   3
ATOM      3  C   UNL     1       3.865   7.917  -1.316  0.00  0.00    +0.203 C 
ATOM      4  O   UNL     1       3.123   7.575  -2.212  0.00  0.00    -0.277 OA
ATOM      5  N   UNL     1       4.378   9.164  -1.304  0.00  0.00    -0.287 N 
ATOM      6  H   UNL     1       4.909   9.463  -0.549  0.00  0.00    +0.155 HD
BRANCH   5   7
ATOM      7  C   UNL     1       4.144  10.026  -2.381  0.00  0.00    +0.033 A 
ATOM      8  C   UNL     1       4.039   9.519  -3.669  0.00  0.00    +0.025 A 
ATOM      9  C   UNL     1       3.804  10.373  -4.729  0.00  0.00    +0.030 A 
ATOM     10  C   UNL     1       3.683  11.732  -4.510  0.00  0.00    +0.106 A 
ATOM     11  C   UNL     1       3.793  12.242  -3.229  0.00  0.00    +0.030 A 
ATOM     12  C   UNL     1       4.022  11.393  -2.164  0.00  0.00    +0.025 A 
BRANCH  10  13
ATOM     13  S   UNL     1       3.388  12.819  -5.865  0.00  0.00    +0.061 S 
ATOM     14  O   UNL     1       2.783  12.038  -6.887  0.00  0.00    -0.153 OA
ATOM     15  O   UNL     1       2.772  13.981  -5.328  0.00  0.00    -0.153 OA
BRANCH  13  16
ATOM     16  N   UNL     1       4.866  13.292  -6.444  0.00  0.00    -0.177 NA
ATOM     17  C   UNL     1       5.622  14.472  -5.999  0.00  0.00    +0.109 C 
ATOM     18  C   UNL     1       6.921  14.524  -6.831  0.00  0.00    +0.018 C 
ATOM     19  C   UNL     1       6.557  13.698  -8.093  0.00  0.00    +0.018 C 
ATOM     20  C   UNL     1       5.639  12.603  -7.494  0.00  0.00    +0.109 C 
ENDBRANCH  13  16
ENDBRANCH  10  13
ENDBRANCH   5   7
ENDBRANCH   1   3
BRANCH   1  21
ATOM     21  N   UNL     1       3.530   5.666  -0.465  0.00  0.00    +0.389 N 
ATOM     22  H   UNL     1       2.613   5.847  -0.890  0.00  0.00    -0.084 HD
ATOM     23  H   UNL     1       4.098   5.098  -1.105  0.00  0.00    -0.084 HD
BRANCH  21  24
ATOM     24  C   UNL     1       3.342   4.931   0.800  0.00  0.00    -0.042 C 
BRANCH  24  30
ATOM     25  C   UNL     1       3.366   2.548   0.029  0.00  0.00    +0.122 A 
ATOM     26  C   UNL     1       2.718   1.347  -0.230  0.00  0.00    +0.053 A 
ATOM     27  C   UNL     1       1.364   1.234  -0.004  0.00  0.00    +0.001 A 
ATOM     28  C   UNL     1       0.630   2.312   0.475  0.00  0.00    +0.125 A 
ATOM     29  C   UNL     1       1.286   3.512   0.737  0.00  0.00    +0.051 A 
ATOM     30  C   UNL     1       2.643   3.627   0.514  0.00  0.00    -0.019 A 
ATOM     31  O   UNL     1      -0.686   1.989   0.614  0.00  0.00    -0.488 OA
ATOM     32  C   UNL     1      -0.823   0.558   0.644  0.00  0.00    +0.175 C 
ATOM     33  C   UNL     1       0.397   0.080  -0.178  0.00  0.00    +0.083 C 
ATOM     34  C   UNL     1      -2.130   0.125  -0.024  0.00  0.00    +0.052 C 
BRANCH  25  35
ATOM     35  O   UNL     1       4.702   2.665  -0.193  0.00  0.00    -0.492 OA
BRANCH  35  37
ATOM     36  C   UNL     1       6.865   1.831  -0.878  0.00  0.00    +0.048 C 
ATOM     37  C   UNL     1       5.380   1.511  -0.693  0.00  0.00    +0.225 C 
ENDBRANCH  35  37
ENDBRANCH  25  35
ENDBRANCH  24  30
ENDBRANCH  21  24
ENDBRANCH   1  21
TORSDOF 9
