REMARK  Name = ZINC49987161
REMARK  5 active torsions:
REMARK  status: ('A' for Active; 'I' for Inactive)
REMARK    1  A    between atoms: C_1  and  C_2
REMARK    2  A    between atoms: C_5  and  N_9
REMARK    3  A    between atoms: C_6  and  C_8
REMARK    4  A    between atoms: N_9  and  C_10
REMARK    5  A    between atoms: N_9  and  C_11
REMARK                            x       y       z     vdW  Elec       q    Type
REMARK                         _______ _______ _______ _____ _____    ______ ____
ROOT
ATOM      1  C   UNL     1      -1.134  -4.877  -0.019  0.00  0.00    +0.035 A 
ATOM      2  C   UNL     1      -2.348  -4.191  -0.015  0.00  0.00    +0.024 A 
ATOM      3  C   UNL     1      -3.527  -4.881  -0.013  0.00  0.00    +0.015 A 
ATOM      4  C   UNL     1      -3.516  -6.279  -0.015  0.00  0.00    +0.048 A 
ATOM      5  C   UNL     1      -2.297  -6.983  -0.019  0.00  0.00    +0.047 A 
ATOM      6  C   UNL     1      -1.110  -6.270  -0.026  0.00  0.00    +0.047 A 
ATOM      7  N   UNL     1      -2.549  -8.353  -0.020  0.00  0.00    -0.278 N 
ATOM      8  C   UNL     1      -3.869  -8.607  -0.017  0.00  0.00    +0.289 C 
ATOM      9  O   UNL     1      -4.388  -9.704  -0.017  0.00  0.00    -0.266 OA
ATOM     10  C   UNL     1      -4.584  -7.289  -0.013  0.00  0.00    +0.249 C 
ATOM     11  O   UNL     1      -5.783  -7.098  -0.010  0.00  0.00    -0.282 OA
ATOM     12  H   UNL     1      -1.860  -9.036  -0.023  0.00  0.00    +0.155 HD
ENDROOT
BRANCH   1  13
ATOM     13  N   UNL     1       0.058  -4.168  -0.021  0.00  0.00    -0.303 N 
ATOM     14  C   UNL     1       1.336  -4.883  -0.031  0.00  0.00    +0.135 C 
BRANCH  13  19
ATOM     15  C   UNL     1      -0.018   1.503   0.010  0.00  0.00    +0.044 C 
ATOM     16  C   UNL     1       0.002  -0.004   0.002  0.00  0.00    -0.050 A 
ATOM     17  C   UNL     1       0.006  -0.687  -1.200  0.00  0.00    +0.005 A 
ATOM     18  C   UNL     1       0.024  -2.068  -1.212  0.00  0.00    +0.024 A 
ATOM     19  C   UNL     1       0.040  -2.771  -0.013  0.00  0.00    +0.037 A 
ATOM     20  C   UNL     1       0.036  -2.081   1.193  0.00  0.00    -0.029 A 
ATOM     21  C   UNL     1       0.023  -0.700   1.197  0.00  0.00    +0.008 A 
ATOM     22  C   UNL     1       0.052  -2.839   2.495  0.00  0.00    +0.045 C 
ENDBRANCH  13  19
ENDBRANCH   1  13
TORSDOF 2
