REMARK  Name = ZINC31908896
REMARK  7 active torsions:
REMARK  status: ('A' for Active; 'I' for Inactive)
REMARK    1  A    between atoms: C_1  and  C_2
REMARK    2  A    between atoms: C_9  and  C_22
REMARK    3  A    between atoms: C_10  and  C_11
REMARK    4  A    between atoms: C_11  and  N_12
REMARK    5  A    between atoms: C_13  and  C_21
REMARK    6  A    between atoms: C_18  and  C_20
REMARK    7  A    between atoms: C_22  and  C_23
REMARK                            x       y       z     vdW  Elec       q    Type
REMARK                         _______ _______ _______ _____ _____    ______ ____
ROOT
ATOM      1  C   UNL     1      -0.627  -2.786  -1.944  0.00  0.00    +0.044 C 
ATOM      2  C   UNL     1       0.241  -1.638  -1.498  0.00  0.00    -0.046 A 
ATOM      3  C   UNL     1       1.440  -1.886  -0.809  0.00  0.00    +0.021 A 
ATOM      4  C   UNL     1       2.220  -0.860  -0.409  0.00  0.00    +0.093 A 
ATOM      5  N   UNL     1       1.858   0.430  -0.667  0.00  0.00    -0.307 N 
ATOM      6  C   UNL     1       0.694   0.704  -1.338  0.00  0.00    +0.116 A 
ATOM      7  C   UNL     1      -0.131  -0.357  -1.762  0.00  0.00    +0.048 A 
ATOM      8  N   UNL     1       0.586   2.020  -1.453  0.00  0.00    -0.343 N 
ATOM      9  C   UNL     1       1.643   2.598  -0.877  0.00  0.00    +0.046 A 
ATOM     10  C   UNL     1       2.447   1.632  -0.382  0.00  0.00    +0.028 A 
ATOM     11  H   UNL     1      -0.284   2.458  -1.964  0.00  0.00    +0.167 HD
ENDROOT
BRANCH  10  12
ATOM     12  C   UNL     1       3.749   1.839   0.348  0.00  0.00    -0.022 C 
BRANCH  12  13
ATOM     13  N   UNL     1       4.846   1.932  -0.625  0.00  0.00    +0.387 N 
ATOM     14  C   UNL     1       4.806   3.212  -1.342  0.00  0.00    -0.071 C 
ATOM     15  C   UNL     1       6.041   3.336  -2.238  0.00  0.00    -0.016 C 
ATOM     16  C   UNL     1       6.062   2.172  -3.233  0.00  0.00    -0.003 C 
ATOM     17  C   UNL     1       6.054   0.850  -2.461  0.00  0.00    -0.016 C 
ATOM     18  C   UNL     1       4.819   0.799  -1.558  0.00  0.00    -0.071 C 
ATOM     19  C   UNL     1       4.819  -0.512  -0.769  0.00  0.00    -0.013 C 
ATOM     20  C   UNL     1       4.792   4.362  -0.333  0.00  0.00    -0.013 C 
ATOM     21  H   UNL     1       5.796   1.887  -0.071  0.00  0.00    -0.081 HD
ENDBRANCH  12  13
ENDBRANCH  10  12
BRANCH   9  22
ATOM     22  C   UNL     1       1.897   4.081  -0.794  0.00  0.00    +0.180 C 
BRANCH  22  23
ATOM     23  C   UNL     1       1.413   4.600   0.536  0.00  0.00    +0.362 C 
ATOM     24  O   UNL     1       0.913   3.843   1.334  0.00  0.00    -0.246 OA
ATOM     25  O   UNL     1       1.538   5.903   0.833  0.00  0.00    -0.246 OA
ENDBRANCH  22  23
ENDBRANCH   9  22
TORSDOF 4
