REMARK  Name = ZINC43043385
REMARK  5 active torsions:
REMARK  status: ('A' for Active; 'I' for Inactive)
REMARK    1  A    between atoms: C_1  and  C_2
REMARK    2  A    between atoms: C_7  and  N_12
REMARK    3  A    between atoms: C_9  and  C_11
REMARK    4  A    between atoms: N_15  and  N_16
REMARK    5  A    between atoms: C_17  and  C_19
REMARK                            x       y       z     vdW  Elec       q    Type
REMARK                         _______ _______ _______ _____ _____    ______ ____
ROOT
ATOM      1  N   UNL     1       1.471  -2.526   2.420  0.00  0.00    -0.295 N 
ATOM      2  C   UNL     1       2.056  -3.740   2.406  0.00  0.00    +0.316 C 
ATOM      3  O   UNL     1       1.996  -4.433   1.409  0.00  0.00    -0.251 OA
ATOM      4  N   UNL     1       2.708  -4.187   3.498  0.00  0.00    -0.218 N 
ATOM      5  H   UNL     1       1.520  -1.974   3.216  0.00  0.00    +0.151 HD
ATOM      6  H   UNL     1       3.129  -5.060   3.488  0.00  0.00    +0.174 HD
ENDROOT
BRANCH   1  12
ATOM      7  C   UNL     1      -0.019   1.526   0.010  0.00  0.00    +0.008 C 
ATOM      8  C   UNL     1       0.002  -0.004   0.002  0.00  0.00    -0.009 C 
ATOM      9  C   UNL     1      -1.433  -0.534   0.013  0.00  0.00    +0.003 C 
ATOM     10  C   UNL     1      -1.413  -2.063   0.004  0.00  0.00    +0.002 C 
ATOM     11  C   UNL     1      -0.673  -2.570   1.244  0.00  0.00    +0.022 C 
ATOM     12  C   UNL     1       0.763  -2.041   1.233  0.00  0.00    +0.078 C 
ATOM     13  C   UNL     1       0.742  -0.511   1.242  0.00  0.00    +0.009 C 
ATOM     14  C   UNL     1       0.026  -0.018   2.500  0.00  0.00    +0.009 C 
ENDBRANCH   1  12
BRANCH   4  15
ATOM     15  N   UNL     1       2.778  -3.389   4.647  0.00  0.00    -0.228 N 
ATOM     16  C   UNL     1       3.430  -3.835   5.739  0.00  0.00    +0.279 C 
ATOM     17  O   UNL     1       3.957  -4.930   5.727  0.00  0.00    -0.267 OA
ATOM     18  H   UNL     1       2.357  -2.515   4.657  0.00  0.00    +0.173 HD
BRANCH  16  19
ATOM     19  C   UNL     1       3.503  -2.991   6.956  0.00  0.00    +0.127 A 
ATOM     20  C   UNL     1       4.191  -3.469   8.081  0.00  0.00    +0.034 A 
ATOM     21  C   UNL     1       4.266  -2.701   9.208  0.00  0.00    +0.012 A 
ATOM     22  C   UNL     1       3.641  -1.440   9.197  0.00  0.00    +0.000 A 
ATOM     23  C   UNL     1       3.679  -0.598  10.320  0.00  0.00    +0.010 A 
ATOM     24  C   UNL     1       3.064   0.616  10.273  0.00  0.00    +0.001 A 
ATOM     25  C   UNL     1       2.395   1.036   9.124  0.00  0.00    +0.002 A 
ATOM     26  C   UNL     1       2.337   0.248   8.017  0.00  0.00    +0.028 A 
ATOM     27  C   UNL     1       2.961  -1.015   8.025  0.00  0.00    +0.072 A 
ATOM     28  N   UNL     1       2.925  -1.805   6.953  0.00  0.00    -0.242 NA
ENDBRANCH  16  19
ENDBRANCH   4  15
TORSDOF 3
