REMARK  Name = ZINC10033647
REMARK  8 active torsions:
REMARK  status: ('A' for Active; 'I' for Inactive)
REMARK    1  A    between atoms: C_1  and  C_2
REMARK    2  A    between atoms: C_6  and  N_9
REMARK    3  A    between atoms: C_7  and  C_8
REMARK    4  A    between atoms: C_19  and  S_20
REMARK    5  A    between atoms: S_20  and  C_21
REMARK    6  A    between atoms: C_21  and  C_23
REMARK    7  A    between atoms: C_21  and  C_24
REMARK    8  A    between atoms: C_29  and  C_32
REMARK                            x       y       z     vdW  Elec       q    Type
REMARK                         _______ _______ _______ _____ _____    ______ ____
ROOT
ATOM      1  N   UNL     1       1.018  -7.850  -1.276  0.00  0.00    -0.255 N 
ATOM      2  C   UNL     1       1.746  -8.990  -1.326  0.00  0.00    +0.267 A 
ATOM      3  O   UNL     1       1.272 -10.023  -1.762  0.00  0.00    -0.267 OA
ATOM      4  C   UNL     1       3.128  -8.936  -0.830  0.00  0.00    +0.065 A 
ATOM      5  C   UNL     1       3.956 -10.058  -0.834  0.00  0.00    +0.015 A 
ATOM      6  C   UNL     1       5.234  -9.953  -0.360  0.00  0.00    +0.001 A 
ATOM      7  C   UNL     1       5.715  -8.743   0.123  0.00  0.00    +0.002 A 
ATOM      8  C   UNL     1       4.926  -7.628   0.139  0.00  0.00    +0.028 A 
ATOM      9  C   UNL     1       3.614  -7.703  -0.339  0.00  0.00    +0.079 A 
ATOM     10  N   UNL     1       2.797  -6.624  -0.342  0.00  0.00    -0.223 NA
ATOM     11  C   UNL     1       1.568  -6.696  -0.789  0.00  0.00    +0.177 A 
ENDROOT
BRANCH   1  17
ATOM     12  C   UNL     1      -3.775  -8.446  -0.354  0.00  0.00    +0.044 C 
ATOM     13  C   UNL     1      -2.649  -8.136  -1.306  0.00  0.00    -0.046 A 
ATOM     14  C   UNL     1      -2.923  -7.853  -2.632  0.00  0.00    +0.004 A 
ATOM     15  C   UNL     1      -1.892  -7.568  -3.508  0.00  0.00    +0.002 A 
ATOM     16  C   UNL     1      -0.585  -7.566  -3.062  0.00  0.00    +0.026 A 
ATOM     17  C   UNL     1      -0.306  -7.851  -1.732  0.00  0.00    +0.055 A 
ATOM     18  C   UNL     1      -1.343  -8.142  -0.855  0.00  0.00    -0.024 A 
ATOM     19  C   UNL     1      -1.045  -8.458   0.588  0.00  0.00    +0.046 C 
ENDBRANCH   1  17
BRANCH  11  20
ATOM     20  S   UNL     1       0.574  -5.241  -0.756  0.00  0.00    -0.075 S 
BRANCH  20  21
ATOM     21  C   UNL     1       1.754  -4.071  -0.039  0.00  0.00    +0.137 C 
ATOM     22  C   UNL     1       2.088  -4.496   1.393  0.00  0.00    +0.029 C 
BRANCH  21  23
ATOM     23  C   UNL     1       1.148  -2.691  -0.025  0.00  0.00    +0.231 C 
ATOM     24  O   UNL     1      -0.057  -2.559  -0.013  0.00  0.00    -0.274 OA
ATOM     25  N   UNL     1       1.946  -1.605  -0.026  0.00  0.00    -0.267 N 
ATOM     26  C   UNL     1       1.385  -0.328  -0.013  0.00  0.00    +0.168 A 
ATOM     27  C   UNL     1       0.002  -0.004   0.002  0.00  0.00    +0.091 A 
ATOM     28  C   UNL     1      -0.016   1.348   0.009  0.00  0.00    +0.136 A 
ATOM     29  O   UNL     1       1.263   1.749  -0.001  0.00  0.00    -0.358 OA
ATOM     30  N   UNL     1       2.026   0.811  -0.013  0.00  0.00    -0.063 NA
ATOM     31  C   UNL     1      -1.237   2.232   0.020  0.00  0.00    +0.089 C 
ATOM     32  H   UNL     1       2.910  -1.711  -0.035  0.00  0.00    +0.156 HD
ENDBRANCH  21  23
ENDBRANCH  20  21
ENDBRANCH  11  20
TORSDOF 4
