REMARK  Name = ZINC63818056
REMARK  7 active torsions:
REMARK  status: ('A' for Active; 'I' for Inactive)
REMARK    1  A    between atoms: C_6  and  C_11
REMARK    2  A    between atoms: C_11  and  C_12
REMARK    3  A    between atoms: C_12  and  N_13
REMARK    4  A    between atoms: C_14  and  C_16
REMARK    5  A    between atoms: C_19  and  C_23
REMARK    6  A    between atoms: C_23  and  C_24
REMARK    7  A    between atoms: N_26  and  C_27
REMARK                            x       y       z     vdW  Elec       q    Type
REMARK                         _______ _______ _______ _____ _____    ______ ____
ROOT
ATOM      1  C   UNL     1       5.841  -5.568  -2.678  0.00  0.00    +0.297 C 
ATOM      2  N   UNL     1       7.206  -5.627  -2.117  0.00  0.00    -0.265 NA
ATOM      3  C   UNL     1       8.071  -6.178  -3.187  0.00  0.00    +0.158 C 
ATOM      4  N   UNL     1       7.119  -6.911  -4.064  0.00  0.00    -0.181 NA
ATOM      5  O   UNL     1       5.911  -6.053  -4.031  0.00  0.00    -0.270 OA
ATOM      6  H   UNL     1       7.520  -4.711  -1.833  0.00  0.00    +0.126 HD
ATOM      7  H   UNL     1       6.920  -7.828  -3.694  0.00  0.00    +0.156 HD
ENDROOT
BRANCH   1   9
ATOM      8  N   UNL     1       5.040  -3.546  -1.499  0.00  0.00    -0.312 N 
ATOM      9  C   UNL     1       5.343  -4.146  -2.667  0.00  0.00    +0.259 C 
ATOM     10  O   UNL     1       5.215  -3.541  -3.711  0.00  0.00    -0.271 OA
ATOM     11  H   UNL     1       5.143  -4.030  -0.664  0.00  0.00    +0.149 HD
BRANCH   8  12
ATOM     12  C   UNL     1       4.557  -2.163  -1.489  0.00  0.00    +0.108 C 
BRANCH  12  13
ATOM     13  C   UNL     1       4.290  -1.727  -0.047  0.00  0.00    +0.052 C 
BRANCH  13  19
ATOM     14  C   UNL     1       0.062   1.485   0.018  0.00  0.00    +0.040 A 
ATOM     15  C   UNL     1       1.193   2.222   0.004  0.00  0.00    +0.029 A 
ATOM     16  C   UNL     1       2.465   1.586  -0.015  0.00  0.00    +0.043 A 
ATOM     17  N   UNL     1       3.683   2.071  -0.031  0.00  0.00    -0.380 N 
ATOM     18  C   UNL     1       4.632   0.953  -0.046  0.00  0.00    +0.144 C 
ATOM     19  C   UNL     1       3.792  -0.304  -0.037  0.00  0.00    -0.040 C 
ATOM     20  C   UNL     1       2.503   0.106  -0.018  0.00  0.00    +0.002 A 
ATOM     21  C   UNL     1       1.229  -0.622  -0.002  0.00  0.00    +0.048 A 
ATOM     22  C   UNL     1       0.072   0.082   0.015  0.00  0.00    +0.124 A 
ATOM     23  F   UNL     1      -1.103  -0.585   0.029  0.00  0.00    -0.205 F 
ATOM     24  H   UNL     1       3.917   3.013  -0.032  0.00  0.00    +0.160 HD
ENDBRANCH  13  19
ENDBRANCH  12  13
ENDBRANCH   8  12
ENDBRANCH   1   9
BRANCH   3  25
ATOM     25  C   UNL     1       9.112  -7.133  -2.600  0.00  0.00    +0.132 C 
BRANCH  25  26
ATOM     26  C   UNL     1      10.053  -7.581  -3.688  0.00  0.00    +0.220 C 
ATOM     27  O   UNL     1       9.906  -7.176  -4.822  0.00  0.00    -0.275 OA
ATOM     28  N   UNL     1      11.059  -8.432  -3.401  0.00  0.00    -0.283 N 
ATOM     29  H   UNL     1      11.216  -8.705  -2.483  0.00  0.00    +0.155 HD
BRANCH  28  30
ATOM     30  C   UNL     1      11.876  -8.922  -4.428  0.00  0.00    +0.069 A 
ATOM     31  C   UNL     1      12.187  -8.115  -5.514  0.00  0.00    +0.029 A 
ATOM     32  C   UNL     1      12.993  -8.600  -6.526  0.00  0.00    +0.040 A 
ATOM     33  C   UNL     1      13.492  -9.890  -6.458  0.00  0.00    +0.126 A 
ATOM     34  C   UNL     1      13.184 -10.698  -5.377  0.00  0.00    +0.078 A 
ATOM     35  C   UNL     1      12.383 -10.215  -4.358  0.00  0.00    +0.147 A 
ATOM     36  F   UNL     1      12.087 -11.001  -3.300  0.00  0.00    -0.203 F 
ATOM     37  F   UNL     1      14.280 -10.361  -7.449  0.00  0.00    -0.205 F 
ENDBRANCH  28  30
ENDBRANCH  25  26
ENDBRANCH   3  25
TORSDOF 7
