REMARK  Name = ZINC09886415
REMARK  11 active torsions:
REMARK  status: ('A' for Active; 'I' for Inactive)
REMARK    1  A    between atoms: C_1  and  C_2
REMARK    2  A    between atoms: C_2  and  C_3
REMARK    3  A    between atoms: C_2  and  C_4
REMARK    4  A    between atoms: C_4  and  C_6
REMARK    5  A    between atoms: C_4  and  N_29
REMARK    6  A    between atoms: N_8  and  N_9
REMARK    7  A    between atoms: C_10  and  C_11
REMARK    8  A    between atoms: N_13  and  C_20
REMARK    9  A    between atoms: C_20  and  C_21
REMARK   10  A    between atoms: C_26  and  C_27
REMARK   11  A    between atoms: C_30  and  C_32
REMARK                            x       y       z     vdW  Elec       q    Type
REMARK                         _______ _______ _______ _____ _____    ______ ____
ROOT
ATOM      1  N   UNL     1       5.981   2.690   0.910  0.00  0.00    -0.188 NA
ATOM      2  C   UNL     1       6.997   2.009   1.347  0.00  0.00    +0.140 C 
ENDROOT
BRANCH   2   3
ATOM      3  C   UNL     1       7.372   0.745   0.694  0.00  0.00    +0.020 A 
ATOM      4  C   UNL     1       6.588  -0.015  -0.117  0.00  0.00    +0.096 A 
ATOM      5  N   UNL     1       7.282  -1.112  -0.532  0.00  0.00    -0.342 N 
ATOM      6  C   UNL     1       8.553  -1.103   0.002  0.00  0.00    +0.050 A 
ATOM      7  C   UNL     1       8.672   0.057   0.786  0.00  0.00    +0.009 A 
ATOM      8  C   UNL     1       9.862   0.326   1.458  0.00  0.00    +0.010 A 
ATOM      9  C   UNL     1      10.923  -0.545   1.342  0.00  0.00    +0.001 A 
ATOM     10  C   UNL     1      10.809  -1.688   0.563  0.00  0.00    +0.002 A 
ATOM     11  C   UNL     1       9.636  -1.969  -0.103  0.00  0.00    +0.026 A 
BRANCH   5  12
ATOM     12  C   UNL     1       6.753  -2.152  -1.417  0.00  0.00    +0.158 C 
BRANCH  12  13
ATOM     13  C   UNL     1       6.213  -3.290  -0.590  0.00  0.00    -0.010 A 
ATOM     14  C   UNL     1       7.007  -4.386  -0.319  0.00  0.00    +0.006 A 
ATOM     15  C   UNL     1       6.513  -5.432   0.440  0.00  0.00    +0.000 A 
ATOM     16  C   UNL     1       5.221  -5.386   0.934  0.00  0.00    +0.001 A 
ATOM     17  C   UNL     1       4.417  -4.296   0.672  0.00  0.00    +0.019 A 
ATOM     18  C   UNL     1       4.911  -3.235  -0.090  0.00  0.00    +0.057 A 
BRANCH  18  19
ATOM     19  C   UNL     1       4.084  -2.098  -0.361  0.00  0.00    +0.099 C 
ATOM     20  N   UNL     1       3.428  -1.196  -0.577  0.00  0.00    -0.191 NA
ENDBRANCH  18  19
ENDBRANCH  12  13
ENDBRANCH   5  12
ENDBRANCH   2   3
BRANCH   1  23
ATOM     21  C   UNL     1       4.240   2.960  -0.691  0.00  0.00    +0.253 C 
ATOM     22  O   UNL     1       3.806   3.891  -0.044  0.00  0.00    -0.272 OA
ATOM     23  N   UNL     1       5.366   2.333  -0.297  0.00  0.00    -0.205 N 
ATOM     24  H   UNL     1       5.751   1.635  -0.850  0.00  0.00    +0.177 HD
BRANCH  21  25
ATOM     25  C   UNL     1       3.519   2.505  -1.933  0.00  0.00    +0.163 C 
BRANCH  25  26
ATOM     26  N   UNL     1       2.120   2.934  -1.871  0.00  0.00    -0.300 N 
ATOM     27  C   UNL     1       1.177   2.261  -2.559  0.00  0.00    +0.246 C 
ATOM     28  O   UNL     1       1.488   1.297  -3.232  0.00  0.00    -0.270 OA
ATOM     29  H   UNL     1       1.872   3.704  -1.335  0.00  0.00    +0.150 HD
BRANCH  27  30
ATOM     30  C   UNL     1      -0.233   2.698  -2.502  0.00  0.00    +0.055 A 
ATOM     31  C   UNL     1      -0.595   3.801  -1.726  0.00  0.00    +0.014 A 
ATOM     32  C   UNL     1      -1.912   4.207  -1.681  0.00  0.00    +0.001 A 
ATOM     33  C   UNL     1      -2.878   3.517  -2.393  0.00  0.00    +0.001 A 
ATOM     34  C   UNL     1      -2.529   2.420  -3.159  0.00  0.00    +0.021 A 
ATOM     35  C   UNL     1      -1.212   2.005  -3.218  0.00  0.00    +0.053 A 
ATOM     36 CL   UNL     1      -0.776   0.627  -4.180  0.00  0.00    -0.083 Cl
ENDBRANCH  27  30
ENDBRANCH  25  26
BRANCH  25  38
ATOM     37  C   UNL     1       3.533   2.565  -4.431  0.00  0.00    +0.009 C 
ATOM     38  C   UNL     1       4.187   3.120  -3.165  0.00  0.00    +0.012 C 
ATOM     39  C   UNL     1       4.021   4.641  -3.129  0.00  0.00    +0.009 C 
ENDBRANCH  25  38
ENDBRANCH  21  25
ENDBRANCH   1  23
TORSDOF 9
