REMARK  Name = ZINC38703950
REMARK  8 active torsions:
REMARK  status: ('A' for Active; 'I' for Inactive)
REMARK    1  A    between atoms: C_1  and  C_2
REMARK    2  A    between atoms: C_2  and  C_3
REMARK    3  A    between atoms: C_6  and  O_27
REMARK    4  A    between atoms: C_7  and  C_9
REMARK    5  A    between atoms: C_11  and  C_15
REMARK    6  A    between atoms: C_21  and  S_23
REMARK    7  A    between atoms: S_23  and  C_24
REMARK    8  A    between atoms: C_24  and  C_25
REMARK                            x       y       z     vdW  Elec       q    Type
REMARK                         _______ _______ _______ _____ _____    ______ ____
ROOT
ATOM      1  C   UNL     1       4.189  -1.388  -2.338  0.00  0.00    +0.097 A 
ATOM      2  C   UNL     1       4.975  -1.833  -3.417  0.00  0.00    +0.062 A 
ATOM      3  C   UNL     1       6.265  -1.900  -2.925  0.00  0.00    +0.121 A 
ATOM      4  N   UNL     1       6.202  -1.506  -1.618  0.00  0.00    -0.272 N 
ATOM      5  H   UNL     1       6.959  -1.452  -1.014  0.00  0.00    +0.189 HD
ATOM      6  N   UNL     1       4.990  -1.211  -1.309  0.00  0.00    -0.173 NA
ENDROOT
BRANCH   3   7
ATOM      7  C   UNL     1       7.469  -2.313  -3.663  0.00  0.00    +0.268 C 
ATOM      8  O   UNL     1       7.383  -2.642  -4.831  0.00  0.00    -0.268 OA
ATOM      9  N   UNL     1       8.667  -2.327  -3.045  0.00  0.00    -0.258 N 
ATOM     10  C   UNL     1       9.805  -2.718  -3.742  0.00  0.00    +0.189 A 
ATOM     11  N   UNL     1       9.941  -3.103  -5.001  0.00  0.00    -0.125 NA
ATOM     12  N   UNL     1      11.060  -3.429  -5.483  0.00  0.00    -0.133 NA
ATOM     13  C   UNL     1      12.169  -3.405  -4.759  0.00  0.00    +0.160 A 
ATOM     14  S   UNL     1      11.506  -2.835  -3.196  0.00  0.00    -0.024 S 
ATOM     15  H   UNL     1       8.735  -2.065  -2.113  0.00  0.00    +0.157 HD
BRANCH  13  16
ATOM     16  S   UNL     1      13.824  -3.810  -5.207  0.00  0.00    -0.093 S 
BRANCH  16  17
ATOM     17  C   UNL     1      13.701  -4.292  -6.952  0.00  0.00    +0.103 C 
BRANCH  17  18
ATOM     18  C   UNL     1      15.066  -4.669  -7.466  0.00  0.00    -0.023 C 
ATOM     19  C   UNL     1      15.308  -5.901  -7.840  0.00  0.00    +0.005 C 
ENDBRANCH  17  18
ENDBRANCH  16  17
ENDBRANCH  13  16
ENDBRANCH   3   7
BRANCH   1  24
ATOM     20  C   UNL     1       0.707  -0.490  -1.238  0.00  0.00    -0.047 A 
ATOM     21  C   UNL     1      -0.014  -0.718  -2.397  0.00  0.00    +0.007 A 
ATOM     22  C   UNL     1       0.625  -1.164  -3.539  0.00  0.00    +0.046 A 
ATOM     23  C   UNL     1       1.993  -1.384  -3.528  0.00  0.00    +0.126 A 
ATOM     24  C   UNL     1       2.724  -1.155  -2.359  0.00  0.00    +0.044 A 
ATOM     25  C   UNL     1       2.071  -0.701  -1.215  0.00  0.00    +0.017 A 
BRANCH  20  27
ATOM     26  C   UNL     1      -0.019   1.526   0.010  0.00  0.00    +0.009 C 
ATOM     27  C   UNL     1       0.002  -0.004   0.002  0.00  0.00    +0.032 C 
ENDBRANCH  20  27
BRANCH  23  28
ATOM     28  O   UNL     1       2.621  -1.823  -4.650  0.00  0.00    -0.506 OA
ATOM     29  H   UNL     1       2.940  -1.114  -5.225  0.00  0.00    +0.292 HD
ENDBRANCH  23  28
ENDBRANCH   1  24
TORSDOF 7
