REMARK  Name = ZINC36155024
REMARK  13 active torsions:
REMARK  status: ('A' for Active; 'I' for Inactive)
REMARK    1  A    between atoms: C_1  and  C_2
REMARK    2  A    between atoms: C_2  and  C_3
REMARK    3  A    between atoms: C_2  and  C_4
REMARK    4  A    between atoms: C_4  and  C_6
REMARK    5  A    between atoms: C_4  and  N_18
REMARK    6  A    between atoms: C_8  and  C_11
REMARK    7  A    between atoms: N_18  and  C_19
REMARK    8  A    between atoms: C_19  and  C_20
REMARK    9  A    between atoms: C_20  and  C_22
REMARK   10  A    between atoms: C_20  and  O_31
REMARK   11  A    between atoms: C_22  and  O_23
REMARK   12  A    between atoms: O_23  and  C_24
REMARK   13  A    between atoms: C_24  and  C_25
REMARK                            x       y       z     vdW  Elec       q    Type
REMARK                         _______ _______ _______ _____ _____    ______ ____
ROOT
ATOM      1  C   UNL     1      -1.329  -0.528   0.083  0.00  0.00    +0.022 C 
ENDROOT
BRANCH   1   2
ATOM      2  C   UNL     1      -1.996  -0.162   1.383  0.00  0.00    +0.214 A 
ATOM      3  N   UNL     1      -1.393   0.274   2.452  0.00  0.00    -0.193 NA
ATOM      4  C   UNL     1      -2.292   0.502   3.427  0.00  0.00    +0.202 A 
ATOM      5  N   UNL     1      -3.485   0.207   2.974  0.00  0.00    -0.056 NA
ATOM      6  O   UNL     1      -3.311  -0.225   1.633  0.00  0.00    -0.339 OA
BRANCH   4   7
ATOM      7  C   UNL     1      -1.982   1.003   4.789  0.00  0.00    +0.023 A 
ATOM      8  C   UNL     1      -0.665   1.285   5.148  0.00  0.00    +0.013 A 
ATOM      9  C   UNL     1      -0.383   1.751   6.416  0.00  0.00    +0.016 A 
ATOM     10  C   UNL     1      -1.405   1.938   7.331  0.00  0.00    +0.018 A 
ATOM     11  C   UNL     1      -2.714   1.658   6.979  0.00  0.00    +0.016 A 
ATOM     12  C   UNL     1      -3.008   1.198   5.712  0.00  0.00    +0.013 A 
ATOM     13 BR   UNL     1      -1.010   2.576   9.066  0.00  0.00    -0.050 Br
ENDBRANCH   4   7
ENDBRANCH   1   2
BRANCH   1  15
ATOM     14  C   UNL     1      -0.554  -2.424  -1.349  0.00  0.00    +0.006 C 
ATOM     15  C   UNL     1      -1.288  -2.051  -0.059  0.00  0.00    -0.022 C 
ATOM     16  C   UNL     1      -0.552  -2.655   1.139  0.00  0.00    +0.006 C 
ENDBRANCH   1  15
BRANCH   1  17
ATOM     17  N   UNL     1      -2.088   0.047  -1.036  0.00  0.00    +0.389 N 
ATOM     18  H   UNL     1      -1.695  -0.273  -1.909  0.00  0.00    -0.085 HD
ATOM     19  H   UNL     1      -3.051  -0.245  -0.974  0.00  0.00    -0.085 HD
BRANCH  17  20
ATOM     20  C   UNL     1      -2.014   1.513  -0.975  0.00  0.00    -0.048 C 
BRANCH  20  21
ATOM     21  C   UNL     1      -2.698   2.109  -2.207  0.00  0.00    +0.123 C 
BRANCH  21  22
ATOM     22  O   UNL     1      -2.039   1.648  -3.388  0.00  0.00    -0.391 OA
ATOM     23  H   UNL     1      -1.104   1.890  -3.436  0.00  0.00    +0.210 HD
ENDBRANCH  21  22
BRANCH  21  24
ATOM     24  C   UNL     1      -2.622   3.636  -2.143  0.00  0.00    +0.189 C 
BRANCH  24  25
ATOM     25  O   UNL     1      -3.361   4.196  -3.231  0.00  0.00    -0.373 OA
BRANCH  25  26
ATOM     26  C   UNL     1      -3.353   5.624  -3.265  0.00  0.00    +0.195 C 
BRANCH  26  27
ATOM     27  C   UNL     1      -4.158   6.103  -4.446  0.00  0.00    -0.022 A 
ATOM     28  C   UNL     1      -3.542   6.296  -5.668  0.00  0.00    +0.006 A 
ATOM     29  C   UNL     1      -4.280   6.736  -6.752  0.00  0.00    +0.000 A 
ATOM     30  C   UNL     1      -5.633   6.981  -6.613  0.00  0.00    +0.000 A 
ATOM     31  C   UNL     1      -6.249   6.787  -5.391  0.00  0.00    +0.000 A 
ATOM     32  C   UNL     1      -5.512   6.343  -4.308  0.00  0.00    +0.006 A 
ENDBRANCH  26  27
ENDBRANCH  25  26
ENDBRANCH  24  25
ENDBRANCH  21  24
ENDBRANCH  20  21
ENDBRANCH  17  20
ENDBRANCH   1  17
TORSDOF 11
