REMARK  Name = ZINC35756837
REMARK  8 active torsions:
REMARK  status: ('A' for Active; 'I' for Inactive)
REMARK    1  A    between atoms: C_1  and  C_2
REMARK    2  A    between atoms: C_7  and  C_8
REMARK    3  A    between atoms: C_8  and  N_9
REMARK    4  A    between atoms: C_10  and  C_31
REMARK    5  A    between atoms: C_12  and  C_17
REMARK    6  A    between atoms: C_20  and  N_23
REMARK    7  A    between atoms: C_24  and  C_26
REMARK    8  A    between atoms: N_33  and  C_34
REMARK                            x       y       z     vdW  Elec       q    Type
REMARK                         _______ _______ _______ _____ _____    ______ ____
ROOT
ATOM      1  N   UNL     1      -1.261   0.038   3.206  0.00  0.00    -0.248 N 
ATOM      2  C   UNL     1      -2.102   1.194   2.835  0.00  0.00    +0.211 C 
ATOM      3  C   UNL     1      -3.531   0.614   2.966  0.00  0.00    +0.238 C 
ATOM      4  O   UNL     1      -3.332  -0.467   3.898  0.00  0.00    -0.440 OA
ATOM      5  C   UNL     1      -2.057  -0.878   3.789  0.00  0.00    +0.405 C 
ATOM      6  O   UNL     1      -1.664  -1.960   4.177  0.00  0.00    -0.226 OA
ENDROOT
BRANCH   3   7
ATOM      7  C   UNL     1      -4.479   1.642   3.528  0.00  0.00    -0.005 A 
ATOM      8  C   UNL     1      -4.504   1.887   4.889  0.00  0.00    +0.009 A 
ATOM      9  C   UNL     1      -5.372   2.828   5.407  0.00  0.00    +0.024 A 
ATOM     10  C   UNL     1      -6.220   3.530   4.559  0.00  0.00    +0.034 A 
ATOM     11  C   UNL     1      -6.192   3.281   3.193  0.00  0.00    +0.024 A 
ATOM     12  C   UNL     1      -5.318   2.342   2.681  0.00  0.00    +0.009 A 
BRANCH  10  13
ATOM     13  N   UNL     1      -7.100   4.483   5.080  0.00  0.00    -0.279 N 
ATOM     14  C   UNL     1      -8.305   4.671   4.508  0.00  0.00    +0.284 C 
ATOM     15  O   UNL     1      -8.666   3.950   3.596  0.00  0.00    -0.266 OA
ATOM     16  H   UNL     1      -6.843   5.008   5.854  0.00  0.00    +0.155 HD
BRANCH  14  17
ATOM     17  C   UNL     1      -9.183   5.746   4.983  0.00  0.00    +0.189 A 
ATOM     18  C   UNL     1     -10.425   6.041   4.498  0.00  0.00    +0.054 A 
ATOM     19  C   UNL     1     -10.898   7.134   5.240  0.00  0.00    +0.042 A 
ATOM     20  C   UNL     1      -9.937   7.454   6.135  0.00  0.00    +0.196 A 
ATOM     21  O   UNL     1      -8.907   6.612   5.980  0.00  0.00    -0.458 OA
ENDBRANCH  14  17
ENDBRANCH  10  13
ENDBRANCH   3   7
BRANCH   2  22
ATOM     22  C   UNL     1      -1.893   2.338   3.793  0.00  0.00    +0.242 C 
ATOM     23  O   UNL     1      -1.395   2.136   4.880  0.00  0.00    -0.273 OA
ATOM     24  N   UNL     1      -2.259   3.587   3.441  0.00  0.00    -0.284 N 
ATOM     25  H   UNL     1      -2.727   3.738   2.604  0.00  0.00    +0.155 HD
BRANCH  24  26
ATOM     26  C   UNL     1      -1.965   4.666   4.282  0.00  0.00    +0.033 A 
ATOM     27  C   UNL     1      -0.806   4.655   5.048  0.00  0.00    +0.023 A 
ATOM     28  C   UNL     1      -0.519   5.721   5.877  0.00  0.00    +0.002 A 
ATOM     29  C   UNL     1      -1.383   6.799   5.946  0.00  0.00    +0.000 A 
ATOM     30  C   UNL     1      -2.538   6.812   5.185  0.00  0.00    +0.002 A 
ATOM     31  C   UNL     1      -2.828   5.752   4.349  0.00  0.00    +0.023 A 
ENDBRANCH  24  26
ENDBRANCH   2  22
BRANCH   1  32
ATOM     32  C   UNL     1       0.180  -0.091   2.974  0.00  0.00    +0.147 C 
BRANCH  32  39
ATOM     33  C   UNL     1       2.867  -0.707   2.110  0.00  0.00    +0.044 C 
ATOM     34  C   UNL     1       1.705  -0.930   1.176  0.00  0.00    -0.046 A 
ATOM     35  C   UNL     1       1.924  -1.434  -0.092  0.00  0.00    +0.003 A 
ATOM     36  C   UNL     1       0.859  -1.638  -0.949  0.00  0.00    +0.000 A 
ATOM     37  C   UNL     1      -0.426  -1.339  -0.537  0.00  0.00    +0.000 A 
ATOM     38  C   UNL     1      -0.646  -0.835   0.732  0.00  0.00    +0.005 A 
ATOM     39  C   UNL     1       0.419  -0.635   1.590  0.00  0.00    -0.027 A 
ENDBRANCH  32  39
ENDBRANCH   1  32
TORSDOF 7
