REMARK  Name = ZINC00024301
REMARK  9 active torsions:
REMARK  status: ('A' for Active; 'I' for Inactive)
REMARK    1  A    between atoms: C_1  and  C_2
REMARK    2  A    between atoms: C_2  and  C_3
REMARK    3  A    between atoms: C_7  and  C_25
REMARK    4  A    between atoms: C_8  and  C_9
REMARK    5  A    between atoms: C_9  and  N_10
REMARK    6  A    between atoms: N_10  and  C_11
REMARK    7  A    between atoms: C_13  and  C_22
REMARK    8  A    between atoms: C_18  and  C_21
REMARK    9  A    between atoms: C_19  and  C_20
REMARK                            x       y       z     vdW  Elec       q    Type
REMARK                         _______ _______ _______ _____ _____    ______ ____
ROOT
ATOM      1  C   UNL     1       0.060  -3.192   1.554  0.00  0.00    +0.072 A 
ATOM      2  C   UNL     1       0.069  -2.932   2.892  0.00  0.00    +0.041 A 
ATOM      3  C   UNL     1       0.054  -1.588   3.340  0.00  0.00    +0.055 A 
ATOM      4  C   UNL     1       0.032  -0.566   2.436  0.00  0.00    +0.106 A 
ATOM      5  N   UNL     1       0.024  -0.823   1.099  0.00  0.00    -0.301 N 
ATOM      6  C   UNL     1       0.037  -2.113   0.636  0.00  0.00    +0.159 A 
ATOM      7  N   UNL     1       0.024  -2.074  -0.688  0.00  0.00    -0.231 NA
ATOM      8  C   UNL     1      -0.003  -0.800  -1.089  0.00  0.00    +0.060 A 
ATOM      9  C   UNL     1       0.002  -0.004   0.002  0.00  0.00    +0.043 A 
ATOM     10  C   UNL     1      -0.018   1.503   0.010  0.00  0.00    +0.066 C 
ATOM     11  C   UNL     1      -0.032  -0.330  -2.520  0.00  0.00    +0.067 C 
ENDROOT
BRANCH   3  12
ATOM     12  C   UNL     1       0.064  -1.293   4.786  0.00  0.00    +0.243 C 
ATOM     13  O   UNL     1       0.052  -0.139   5.172  0.00  0.00    -0.270 OA
ATOM     14  N   UNL     1       0.086  -2.301   5.680  0.00  0.00    -0.325 N 
ATOM     15  H   UNL     1       0.095  -3.221   5.372  0.00  0.00    +0.145 HD
ATOM     16  H   UNL     1       0.092  -2.107   6.630  0.00  0.00    +0.145 HD
ENDBRANCH   3  12
BRANCH   1  17
ATOM     17  N   UNL     1       0.073  -4.511   1.092  0.00  0.00    -0.337 N 
ATOM     18  H   UNL     1       0.066  -4.691   0.139  0.00  0.00    +0.147 HD
BRANCH  17  19
ATOM     19  C   UNL     1       0.097  -5.622   2.048  0.00  0.00    +0.137 C 
BRANCH  19  25
ATOM     20  C   UNL     1      -1.085  -7.547   0.971  0.00  0.00    -0.043 A 
ATOM     21  C   UNL     1      -1.076  -8.744   0.279  0.00  0.00    +0.004 A 
ATOM     22  C   UNL     1       0.126  -9.328  -0.076  0.00  0.00    +0.001 A 
ATOM     23  C   UNL     1       1.318  -8.712   0.256  0.00  0.00    +0.004 A 
ATOM     24  C   UNL     1       1.309  -7.513   0.943  0.00  0.00    -0.046 A 
ATOM     25  C   UNL     1       0.107  -6.929   1.298  0.00  0.00    -0.024 A 
ATOM     26  C   UNL     1       2.609  -6.841   1.305  0.00  0.00    +0.044 C 
BRANCH  20  28
ATOM     27  C   UNL     1      -2.804  -5.890   0.303  0.00  0.00    +0.009 C 
ATOM     28  C   UNL     1      -2.395  -6.914   1.363  0.00  0.00    +0.032 C 
ENDBRANCH  20  28
ENDBRANCH  19  25
ENDBRANCH  17  19
ENDBRANCH   1  17
TORSDOF 5
