REMARK  Name = ZINC18167142
REMARK  3 active torsions:
REMARK  status: ('A' for Active; 'I' for Inactive)
REMARK    1  A    between atoms: C_4  and  N_7
REMARK    2  A    between atoms: N_7  and  C_8
REMARK    3  A    between atoms: C_13  and  C_14
REMARK                            x       y       z     vdW  Elec       q    Type
REMARK                         _______ _______ _______ _____ _____    ______ ____
ROOT
ATOM      1  C   UNL     1       3.644  -2.019   0.059  0.00  0.00    +0.175 C 
ATOM      2  N   UNL     1       2.623  -2.859   0.076  0.00  0.00    -0.152 NA
ATOM      3  C   UNL     1       2.782  -4.161   0.172  0.00  0.00    +0.276 C 
ATOM      4  O   UNL     1       1.831  -4.927   0.187  0.00  0.00    -0.267 OA
ATOM      5  C   UNL     1       4.174  -4.648   0.262  0.00  0.00    +0.080 C 
ATOM      6  C   UNL     1       4.648  -5.920   0.368  0.00  0.00    +0.030 C 
ATOM      7  S   UNL     1       5.062  -3.098   0.183  0.00  0.00    -0.050 S 
ENDROOT
BRANCH   6   8
ATOM      8  C   UNL     1       6.088  -6.160   0.443  0.00  0.00    +0.001 A 
ATOM      9  C   UNL     1       7.078  -5.216   0.424  0.00  0.00    +0.091 A 
ATOM     10  N   UNL     1       8.288  -5.822   0.512  0.00  0.00    -0.360 N 
ATOM     11  H   UNL     1       9.140  -5.358   0.518  0.00  0.00    +0.165 HD
ATOM     12  C   UNL     1       8.138  -7.191   0.593  0.00  0.00    +0.047 A 
ATOM     13  C   UNL     1       6.761  -7.468   0.560  0.00  0.00    +0.007 A 
ATOM     14  C   UNL     1       6.312  -8.783   0.631  0.00  0.00    +0.010 A 
ATOM     15  C   UNL     1       7.223  -9.811   0.738  0.00  0.00    +0.001 A 
ATOM     16  C   UNL     1       8.583  -9.540   0.775  0.00  0.00    +0.002 A 
ATOM     17  C   UNL     1       9.042  -8.243   0.697  0.00  0.00    +0.026 A 
ENDBRANCH   6   8
BRANCH   1  18
ATOM     18  N   UNL     1       3.621  -0.650  -0.037  0.00  0.00    -0.192 NA
BRANCH  18  22
ATOM     19  C   UNL     1       0.011   1.400   0.303  0.00  0.00    +0.000 A 
ATOM     20  C   UNL     1       0.144   0.140   0.857  0.00  0.00    +0.002 A 
ATOM     21  C   UNL     1       1.339  -0.543   0.746  0.00  0.00    +0.025 A 
ATOM     22  C   UNL     1       2.409   0.038   0.077  0.00  0.00    +0.056 A 
ATOM     23  C   UNL     1       2.272   1.304  -0.478  0.00  0.00    +0.025 A 
ATOM     24  C   UNL     1       1.074   1.981  -0.363  0.00  0.00    +0.002 A 
ENDBRANCH  18  22
ENDBRANCH   1  18
TORSDOF 3
