REMARK  Name = ZINC58355254
REMARK  11 active torsions:
REMARK  status: ('A' for Active; 'I' for Inactive)
REMARK    1  A    between atoms: C_1  and  C_2
REMARK    2  A    between atoms: C_4  and  C_26
REMARK    3  A    between atoms: C_5  and  O_9
REMARK    4  A    between atoms: C_6  and  C_8
REMARK    5  A    between atoms: O_9  and  C_10
REMARK    6  A    between atoms: C_10  and  C_12
REMARK    7  A    between atoms: C_12  and  O_13
REMARK    8  A    between atoms: O_13  and  C_14
REMARK    9  A    between atoms: C_16  and  C_25
REMARK   10  A    between atoms: C_18  and  C_24
REMARK   11  A    between atoms: N_21  and  C_23
REMARK                            x       y       z     vdW  Elec       q    Type
REMARK                         _______ _______ _______ _____ _____    ______ ____
ROOT
ATOM      1  C   UNL     1       1.322  -6.250  -0.039  0.00  0.00    +0.351 C 
ENDROOT
BRANCH   1   2
ATOM      2  C   UNL     1       1.250  -4.744  -0.030  0.00  0.00    +0.350 C 
ATOM      3  O   UNL     1       2.267  -4.091  -0.032  0.00  0.00    -0.247 OA
BRANCH   2   4
ATOM      4  O   UNL     1       0.057  -4.129  -0.021  0.00  0.00    -0.423 OA
BRANCH   4   9
ATOM      5  C   UNL     1      -0.018   1.503   0.010  0.00  0.00    +0.044 C 
ATOM      6  C   UNL     1       0.002  -0.004   0.002  0.00  0.00    -0.050 A 
ATOM      7  C   UNL     1       0.006  -0.688  -1.200  0.00  0.00    +0.010 A 
ATOM      8  C   UNL     1       0.024  -2.069  -1.210  0.00  0.00    -0.008 A 
ATOM      9  C   UNL     1       0.039  -2.770  -0.013  0.00  0.00    +0.138 A 
ATOM     10  C   UNL     1       0.036  -2.082   1.191  0.00  0.00    -0.008 A 
ATOM     11  C   UNL     1       0.023  -0.701   1.196  0.00  0.00    +0.010 A 
ATOM     12  C   UNL     1       0.052  -2.841   2.493  0.00  0.00    +0.047 C 
ATOM     13  C   UNL     1       0.027  -2.813  -2.520  0.00  0.00    +0.047 C 
ENDBRANCH   4   9
ENDBRANCH   2   4
ENDBRANCH   1   2
BRANCH   1  14
ATOM     14  O   UNL     1       2.691  -6.661  -0.048  0.00  0.00    -0.463 OA
BRANCH  14  15
ATOM     15  C   UNL     1       2.933  -7.998  -0.057  0.00  0.00    +0.244 A 
ATOM     16  C   UNL     1       4.247  -8.638  -0.061  0.00  0.00    +0.085 A 
ATOM     17  C   UNL     1       5.564  -8.165  -0.059  0.00  0.00    -0.033 A 
ATOM     18  C   UNL     1       6.581  -9.083  -0.065  0.00  0.00    +0.027 A 
ATOM     19  C   UNL     1       6.283 -10.438  -0.072  0.00  0.00    +0.041 A 
ATOM     20  N   UNL     1       5.041 -10.870  -0.075  0.00  0.00    -0.233 NA
ATOM     21  C   UNL     1       4.014 -10.028  -0.069  0.00  0.00    +0.162 A 
ATOM     22  N   UNL     1       2.657 -10.197  -0.069  0.00  0.00    -0.246 N 
ATOM     23  N   UNL     1       2.034  -8.945  -0.057  0.00  0.00    -0.131 NA
ATOM     24  C   UNL     1       1.964 -11.488  -0.076  0.00  0.00    +0.175 C 
ATOM     25  C   UNL     1       7.410 -11.439  -0.079  0.00  0.00    +0.065 C 
ATOM     26  C   UNL     1       5.854  -6.686  -0.051  0.00  0.00    +0.045 C 
ENDBRANCH  14  15
ENDBRANCH   1  14
TORSDOF 5
