REMARK  Name = ZINC39446029
REMARK  8 active torsions:
REMARK  status: ('A' for Active; 'I' for Inactive)
REMARK    1  A    between atoms: C_2  and  C_3
REMARK    2  A    between atoms: C_3  and  O_4
REMARK    3  A    between atoms: O_4  and  C_5
REMARK    4  A    between atoms: C_6  and  C_11
REMARK    5  A    between atoms: C_16  and  C_17
REMARK    6  A    between atoms: C_18  and  O_23
REMARK    7  A    between atoms: O_23  and  C_24
REMARK    8  A    between atoms: C_24  and  C_25
REMARK                            x       y       z     vdW  Elec       q    Type
REMARK                         _______ _______ _______ _____ _____    ______ ____
ROOT
ATOM      1  C   UNL     1       1.002  -3.923   2.458  0.00  0.00    +0.019 C 
ATOM      2  C   UNL     1       1.119  -5.053   3.191  0.00  0.00    +0.000 C 
ATOM      3  C   UNL     1       0.074  -5.468   4.153  0.00  0.00    +0.185 C 
ATOM      4  O   UNL     1      -0.521  -4.670   4.857  0.00  0.00    -0.287 OA
ATOM      5  C   UNL     1      -0.196  -6.922   4.198  0.00  0.00    +0.000 C 
ATOM      6  C   UNL     1      -1.448  -7.408   4.335  0.00  0.00    +0.019 C 
ATOM      7  C   UNL     1       1.006  -7.837   4.082  0.00  0.00    +0.039 C 
ATOM      8  C   UNL     1       1.847  -7.401   2.879  0.00  0.00    +0.009 C 
ATOM      9  C   UNL     1       2.324  -5.963   3.066  0.00  0.00    +0.039 C 
ENDROOT
BRANCH   1  11
ATOM     10  C   UNL     1       1.887  -2.935   0.349  0.00  0.00    +0.128 A 
ATOM     11  C   UNL     1       2.124  -3.468   1.627  0.00  0.00    +0.017 A 
ATOM     12  C   UNL     1       3.437  -3.561   2.103  0.00  0.00    +0.011 A 
ATOM     13  C   UNL     1       4.484  -3.131   1.318  0.00  0.00    +0.001 A 
ATOM     14  C   UNL     1       4.244  -2.606   0.059  0.00  0.00    +0.004 A 
ATOM     15  C   UNL     1       2.954  -2.514  -0.427  0.00  0.00    +0.046 A 
BRANCH  10  16
ATOM     16  O   UNL     1       0.619  -2.839  -0.125  0.00  0.00    -0.487 OA
BRANCH  16  17
ATOM     17  C   UNL     1       0.456  -2.293  -1.435  0.00  0.00    +0.256 C 
BRANCH  17  19
ATOM     18  C   UNL     1      -1.529  -1.197  -2.342  0.00  0.00    +0.007 C 
ATOM     19  C   UNL     1      -1.009  -2.265  -1.788  0.00  0.00    +0.006 C 
ENDBRANCH  17  19
ENDBRANCH  16  17
ENDBRANCH  10  16
ENDBRANCH   1  11
BRANCH   6  20
ATOM     20  C   UNL     1      -1.661  -8.851   4.514  0.00  0.00    +0.017 A 
ATOM     21  C   UNL     1      -2.780  -9.477   3.940  0.00  0.00    +0.128 A 
ATOM     22  C   UNL     1      -2.970 -10.838   4.116  0.00  0.00    +0.046 A 
ATOM     23  C   UNL     1      -2.062 -11.575   4.852  0.00  0.00    +0.004 A 
ATOM     24  C   UNL     1      -0.957 -10.963   5.420  0.00  0.00    +0.001 A 
ATOM     25  C   UNL     1      -0.747  -9.611   5.251  0.00  0.00    +0.011 A 
BRANCH  21  26
ATOM     26  O   UNL     1      -3.671  -8.752   3.218  0.00  0.00    -0.487 OA
BRANCH  26  27
ATOM     27  C   UNL     1      -4.785  -9.457   2.666  0.00  0.00    +0.256 C 
BRANCH  27  28
ATOM     28  C   UNL     1      -5.660  -8.496   1.903  0.00  0.00    +0.006 C 
ATOM     29  C   UNL     1      -6.116  -8.823   0.720  0.00  0.00    +0.007 C 
ENDBRANCH  27  28
ENDBRANCH  26  27
ENDBRANCH  21  26
ENDBRANCH   6  20
TORSDOF 8
