REMARK  Name = ZINC08695354
REMARK  19 active torsions:
REMARK  status: ('A' for Active; 'I' for Inactive)
REMARK    1  A    between atoms: C_1  and  C_2
REMARK    2  A    between atoms: C_2  and  C_3
REMARK    3  A    between atoms: C_3  and  C_4
REMARK    4  A    between atoms: C_4  and  N_75
REMARK    5  A    between atoms: C_5  and  C_6
REMARK    6  A    between atoms: C_5  and  N_75
REMARK    7  A    between atoms: C_6  and  C_7
REMARK    8  A    between atoms: C_7  and  C_8
REMARK    9  A    between atoms: C_9  and  C_10
REMARK   10  A    between atoms: C_9  and  N_75
REMARK   11  A    between atoms: C_10  and  C_11
REMARK   12  A    between atoms: C_11  and  N_12
REMARK   13  A    between atoms: C_13  and  C_29
REMARK   14  A    between atoms: C_15  and  C_20
REMARK   15  A    between atoms: C_16  and  O_19
REMARK   16  A    between atoms: C_20  and  C_22
REMARK   17  A    between atoms: C_32  and  C_35
REMARK   18  A    between atoms: C_35  and  O_37
REMARK   19  A    between atoms: O_37  and  C_38
REMARK                            x       y       z     vdW  Elec       q    Type
REMARK                         _______ _______ _______ _____ _____    ______ ____
ROOT
ATOM      1  N   UNL     1       2.027   6.303  -1.288  0.00  0.00    -0.284 N 
ATOM      2  C   UNL     1       1.967   5.598  -0.002  0.00  0.00    +0.144 C 
ATOM      3  C   UNL     1       2.061   6.662   1.067  0.00  0.00    +0.071 C 
ATOM      4  C   UNL     1       2.164   7.850   0.427  0.00  0.00    +0.188 C 
ATOM      5  C   UNL     1       2.143   7.619  -1.033  0.00  0.00    +0.282 C 
ATOM      6  O   UNL     1       2.218   8.489  -1.877  0.00  0.00    -0.267 OA
ENDROOT
BRANCH   2   7
ATOM      7  C   UNL     1       0.662   4.854   0.121  0.00  0.00    -0.022 A 
ATOM      8  C   UNL     1       0.660   3.528   0.514  0.00  0.00    +0.006 A 
ATOM      9  C   UNL     1      -0.531   2.841   0.627  0.00  0.00    +0.015 A 
ATOM     10  C   UNL     1      -1.735   3.486   0.339  0.00  0.00    +0.059 A 
ATOM     11  C   UNL     1      -1.726   4.826  -0.051  0.00  0.00    +0.015 A 
ATOM     12  C   UNL     1      -0.528   5.501  -0.161  0.00  0.00    +0.006 A 
BRANCH  10  13
ATOM     13  C   UNL     1      -3.014   2.754   0.452  0.00  0.00    +0.339 C 
ATOM     14  O   UNL     1      -3.019   1.589   0.795  0.00  0.00    -0.245 OA
BRANCH  13  15
ATOM     15  O   UNL     1      -4.174   3.380   0.173  0.00  0.00    -0.464 OA
ATOM     16  C   UNL     1      -5.392   2.599   0.305  0.00  0.00    +0.280 C 
ENDBRANCH  13  15
ENDBRANCH  10  13
ENDBRANCH   2   7
BRANCH   3  17
ATOM     17  C   UNL     1       2.044   6.448   2.517  0.00  0.00    +0.195 C 
ATOM     18  O   UNL     1       1.107   6.852   3.181  0.00  0.00    -0.287 OA
BRANCH  17  19
ATOM     19  C   UNL     1       3.164   5.743   3.173  0.00  0.00    +0.022 A 
ATOM     20  C   UNL     1       4.284   5.360   2.430  0.00  0.00    +0.014 A 
ATOM     21  C   UNL     1       5.328   4.708   3.048  0.00  0.00    +0.039 A 
ATOM     22  C   UNL     1       5.265   4.421   4.404  0.00  0.00    +0.123 A 
ATOM     23  C   UNL     1       4.153   4.793   5.145  0.00  0.00    +0.039 A 
ATOM     24  C   UNL     1       3.105   5.451   4.539  0.00  0.00    +0.014 A 
ATOM     25  F   UNL     1       6.289   3.776   5.004  0.00  0.00    -0.205 F 
ENDBRANCH  17  19
ENDBRANCH   3  17
BRANCH   4  26
ATOM     26  O   UNL     1       2.270   9.057   1.028  0.00  0.00    -0.502 OA
ATOM     27  H   UNL     1       2.332   9.772   0.332  0.00  0.00    +0.292 HD
ENDBRANCH   4  26
BRANCH   1  28
ATOM     28  C   UNL     1       1.972   5.684  -2.614  0.00  0.00    +0.107 C 
BRANCH  28  29
ATOM     29  C   UNL     1       0.515   5.594  -3.074  0.00  0.00    +0.000 C 
BRANCH  29  30
ATOM     30  C   UNL     1       0.457   4.947  -4.459  0.00  0.00    -0.077 C 
BRANCH  30  31
ATOM     31  N   UNL     1      -0.956   4.848  -4.880  0.00  0.00    +0.380 N 
ATOM     32  H   UNL     1      -1.495   4.392  -4.134  0.00  0.00    -0.082 HD
BRANCH  31  33
ATOM     33  C   UNL     1      -1.061   4.037  -6.112  0.00  0.00    -0.079 C 
BRANCH  33  34
ATOM     34  C   UNL     1      -2.540   3.776  -6.406  0.00  0.00    -0.019 C 
BRANCH  34  35
ATOM     35  C   UNL     1      -2.662   2.838  -7.609  0.00  0.00    -0.005 C 
ATOM     36  C   UNL     1      -4.140   2.577  -7.904  0.00  0.00    +0.004 C 
ENDBRANCH  34  35
ENDBRANCH  33  34
ENDBRANCH  31  33
BRANCH  31  37
ATOM     37  C   UNL     1      -1.509   6.198  -5.116  0.00  0.00    -0.079 C 
BRANCH  37  38
ATOM     38  C   UNL     1      -0.708   6.924  -6.198  0.00  0.00    -0.019 C 
BRANCH  38  40
ATOM     39  C   UNL     1      -0.529   9.024  -7.541  0.00  0.00    +0.004 C 
ATOM     40  C   UNL     1      -1.330   8.298  -6.459  0.00  0.00    -0.005 C 
ENDBRANCH  38  40
ENDBRANCH  37  38
ENDBRANCH  31  37
ENDBRANCH  30  31
ENDBRANCH  29  30
ENDBRANCH  28  29
ENDBRANCH   1  28
TORSDOF 16
