REMARK  Name = ZINC66978024
REMARK  8 active torsions:
REMARK  status: ('A' for Active; 'I' for Inactive)
REMARK    1  A    between atoms: C_1  and  C_2
REMARK    2  A    between atoms: C_2  and  C_3
REMARK    3  A    between atoms: C_3  and  C_4
REMARK    4  A    between atoms: C_4  and  C_6
REMARK    5  A    between atoms: C_4  and  N_15
REMARK    6  A    between atoms: N_18  and  C_19
REMARK    7  A    between atoms: C_19  and  C_20
REMARK    8  A    between atoms: C_20  and  O_30
REMARK                            x       y       z     vdW  Elec       q    Type
REMARK                         _______ _______ _______ _____ _____    ______ ____
ROOT
ATOM      1  N   UNL     1       1.438  -3.036   0.169  0.00  0.00    -0.290 N 
ATOM      2  C   UNL     1       0.889  -3.026  -1.062  0.00  0.00    +0.300 C 
ATOM      3  O   UNL     1      -0.304  -2.836  -1.195  0.00  0.00    -0.253 OA
ATOM      4  N   UNL     1       1.664  -3.228  -2.146  0.00  0.00    -0.296 N 
ATOM      5  H   UNL     1       2.390  -3.188   0.275  0.00  0.00    +0.151 HD
ATOM      6  H   UNL     1       2.616  -3.380  -2.041  0.00  0.00    +0.150 HD
ENDROOT
BRANCH   1   7
ATOM      7  C   UNL     1       0.595  -2.817   1.348  0.00  0.00    +0.143 C 
BRANCH   7   8
ATOM      8  C   UNL     1       1.240  -3.455   2.551  0.00  0.00    +0.158 A 
ATOM      9  N   UNL     1       2.501  -3.372   2.888  0.00  0.00    -0.132 NA
ATOM     10  N   UNL     1       2.718  -4.033   3.971  0.00  0.00    -0.129 NA
ATOM     11  C   UNL     1       1.588  -4.580   4.387  0.00  0.00    +0.161 A 
ATOM     12  N   UNL     1       0.615  -4.217   3.489  0.00  0.00    -0.285 N 
ATOM     13  C   UNL     1      -0.673  -4.633   3.659  0.00  0.00    +0.094 A 
ATOM     14  C   UNL     1      -1.010  -5.404   4.714  0.00  0.00    +0.018 A 
ATOM     15  C   UNL     1      -0.037  -5.790   5.652  0.00  0.00    +0.005 A 
ATOM     16  C   UNL     1       1.253  -5.389   5.490  0.00  0.00    +0.048 A 
ENDBRANCH   7   8
BRANCH   7  17
ATOM     17  C   UNL     1       0.437  -1.315   1.590  0.00  0.00    +0.030 C 
BRANCH  17  19
ATOM     18  C   UNL     1      -0.486   0.815   0.665  0.00  0.00    +0.004 C 
ATOM     19  C   UNL     1      -0.328  -0.688   0.423  0.00  0.00    -0.001 C 
ENDBRANCH  17  19
ENDBRANCH   7  17
ENDBRANCH   1   7
BRANCH   4  20
ATOM     20  C   UNL     1       1.069  -3.217  -3.485  0.00  0.00    +0.145 C 
BRANCH  20  21
ATOM     21  C   UNL     1       2.129  -3.602  -4.518  0.00  0.00    +0.107 C 
ATOM     22  C   UNL     1       2.702  -4.973  -4.166  0.00  0.00    +0.041 C 
ATOM     23  C   UNL     1       3.597  -5.435  -5.322  0.00  0.00    +0.008 C 
ATOM     24  C   UNL     1       2.706  -5.758  -6.520  0.00  0.00    +0.035 C 
ATOM     25  C   UNL     1       1.771  -4.614  -6.808  0.00  0.00    -0.041 A 
ATOM     26  C   UNL     1       1.503  -3.625  -5.888  0.00  0.00    -0.011 A 
ATOM     27  C   UNL     1       0.624  -2.601  -6.215  0.00  0.00    +0.007 A 
ATOM     28  C   UNL     1       0.021  -2.563  -7.455  0.00  0.00    +0.000 A 
ATOM     29  C   UNL     1       0.293  -3.553  -8.381  0.00  0.00    +0.000 A 
ATOM     30  C   UNL     1       1.164  -4.573  -8.057  0.00  0.00    +0.004 A 
BRANCH  21  31
ATOM     31  O   UNL     1       3.180  -2.633  -4.497  0.00  0.00    -0.382 OA
ATOM     32  H   UNL     1       2.890  -1.734  -4.704  0.00  0.00    +0.211 HD
ENDBRANCH  21  31
ENDBRANCH  20  21
ENDBRANCH   4  20
TORSDOF 7
