REMARK  Name = ZINC09672644
REMARK  5 active torsions:
REMARK  status: ('A' for Active; 'I' for Inactive)
REMARK    1  A    between atoms: C_1  and  C_2
REMARK    2  A    between atoms: C_7  and  S_24
REMARK    3  A    between atoms: N_11  and  C_12
REMARK    4  A    between atoms: C_12  and  C_13
REMARK    5  A    between atoms: S_24  and  N_27
REMARK                            x       y       z     vdW  Elec       q    Type
REMARK                         _______ _______ _______ _____ _____    ______ ____
ROOT
ATOM      1  C   UNL     1       0.506  -0.441  -1.891  0.00  0.00    +0.028 C 
ATOM      2  C   UNL     1       0.897  -1.828  -2.404  0.00  0.00    +0.075 C 
ATOM      3  C   UNL     1       1.689  -1.719  -3.728  0.00  0.00    +0.059 C 
ATOM      4  C   UNL     1       3.129  -1.692  -3.258  0.00  0.00    -0.023 A 
ATOM      5  C   UNL     1       4.293  -1.319  -3.897  0.00  0.00    +0.034 A 
ATOM      6  C   UNL     1       5.501  -1.376  -3.225  0.00  0.00    +0.105 A 
ATOM      7  C   UNL     1       5.540  -1.806  -1.912  0.00  0.00    +0.030 A 
ATOM      8  C   UNL     1       4.380  -2.183  -1.269  0.00  0.00    +0.025 A 
ATOM      9  C   UNL     1       3.159  -2.132  -1.940  0.00  0.00    +0.034 A 
ATOM     10  N   UNL     1       1.874  -2.468  -1.496  0.00  0.00    -0.322 N 
ENDROOT
BRANCH   6  11
ATOM     11  S   UNL     1       6.988  -0.899  -4.042  0.00  0.00    +0.056 S 
ATOM     12  O   UNL     1       6.611  -0.018  -5.091  0.00  0.00    -0.153 OA
ATOM     13  O   UNL     1       7.908  -0.524  -3.026  0.00  0.00    -0.153 OA
BRANCH  11  14
ATOM     14  N   UNL     1       7.607  -2.255  -4.763  0.00  0.00    -0.204 NA
ATOM     15  H   UNL     1       7.143  -3.103  -4.680  0.00  0.00    +0.144 HD
ATOM     16  H   UNL     1       8.433  -2.202  -5.269  0.00  0.00    +0.144 HD
ENDBRANCH  11  14
ENDBRANCH   6  11
BRANCH  10  17
ATOM     17  C   UNL     1       1.666  -2.031  -0.108  0.00  0.00    +0.141 C 
BRANCH  17  18
ATOM     18  C   UNL     1       2.552  -2.834   0.809  0.00  0.00    -0.013 A 
ATOM     19  C   UNL     1       3.434  -2.189   1.656  0.00  0.00    +0.055 A 
ATOM     20  C   UNL     1       4.251  -2.925   2.501  0.00  0.00    +0.162 A 
ATOM     21  C   UNL     1       4.179  -4.313   2.496  0.00  0.00    +0.163 A 
ATOM     22  C   UNL     1       3.294  -4.955   1.643  0.00  0.00    +0.065 A 
ATOM     23  C   UNL     1       2.483  -4.215   0.801  0.00  0.00    +0.026 A 
ATOM     24 BR   UNL     1       1.277  -5.094  -0.361  0.00  0.00    -0.050 Br
ATOM     25  O   UNL     1       4.965  -5.054   3.323  0.00  0.00    -0.485 OA
ATOM     26  C   UNL     1       6.102  -4.394   3.893  0.00  0.00    +0.270 C 
ATOM     27  C   UNL     1       5.649  -3.027   4.421  0.00  0.00    +0.270 C 
ATOM     28  O   UNL     1       5.120  -2.275   3.323  0.00  0.00    -0.485 OA
ENDBRANCH  17  18
ENDBRANCH  10  17
TORSDOF 4
