REMARK  Name = ZINC67019163
REMARK  2 active torsions:
REMARK  status: ('A' for Active; 'I' for Inactive)
REMARK    1  A    between atoms: C_3  and  C_12
REMARK    2  A    between atoms: N_14  and  C_15
REMARK                            x       y       z     vdW  Elec       q    Type
REMARK                         _______ _______ _______ _____ _____    ______ ____
ROOT
ATOM      1  C   UNL     1      -0.016   1.380  -0.022  0.00  0.00    +0.003 A 
ATOM      2  C   UNL     1       1.163   2.094  -0.019  0.00  0.00    +0.017 A 
ATOM      3  C   UNL     1       2.389   1.423  -0.030  0.00  0.00    +0.080 A 
ATOM      4  C   UNL     1       2.410   0.025  -0.044  0.00  0.00    +0.154 A 
ATOM      5  C   UNL     1       1.210  -0.684  -0.048  0.00  0.00    +0.076 A 
ATOM      6  C   UNL     1       0.003  -0.005  -0.036  0.00  0.00    +0.027 A 
ATOM      7  N   UNL     1       1.242  -2.086  -0.064  0.00  0.00    -0.280 N 
ATOM      8  C   UNL     1       2.398  -2.717   0.240  0.00  0.00    +0.255 C 
ATOM      9  O   UNL     1       2.458  -3.928   0.202  0.00  0.00    -0.272 OA
ATOM     10  C   UNL     1       3.611  -1.910   0.625  0.00  0.00    +0.325 C 
ATOM     11  O   UNL     1       3.586  -0.651  -0.054  0.00  0.00    -0.480 OA
ATOM     12  H   UNL     1       0.448  -2.595  -0.289  0.00  0.00    +0.155 HD
ENDROOT
BRANCH   3  13
ATOM     13  C   UNL     1       3.653   2.184  -0.028  0.00  0.00    +0.252 C 
ATOM     14  O   UNL     1       4.717   1.596  -0.038  0.00  0.00    -0.270 OA
ATOM     15  N   UNL     1       3.628   3.532  -0.015  0.00  0.00    -0.280 N 
ATOM     16  H   UNL     1       2.781   4.001  -0.073  0.00  0.00    +0.155 HD
BRANCH  15  17
ATOM     17  C   UNL     1       4.823   4.253   0.083  0.00  0.00    +0.054 A 
ATOM     18  C   UNL     1       5.976   3.772  -0.522  0.00  0.00    +0.044 A 
ATOM     19  C   UNL     1       7.155   4.487  -0.425  0.00  0.00    +0.043 A 
ATOM     20  C   UNL     1       7.186   5.681   0.276  0.00  0.00    +0.021 A 
ATOM     21  C   UNL     1       6.039   6.162   0.879  0.00  0.00    +0.023 A 
ATOM     22  C   UNL     1       4.856   5.454   0.780  0.00  0.00    +0.062 A 
ATOM     23 CL   UNL     1       3.415   6.062   1.533  0.00  0.00    -0.082 Cl
ATOM     24 CL   UNL     1       8.598   3.888  -1.181  0.00  0.00    -0.083 Cl
ENDBRANCH  15  17
ENDBRANCH   3  13
TORSDOF 2
