REMARK  Name = ZINC45780508
REMARK  4 active torsions:
REMARK  status: ('A' for Active; 'I' for Inactive)
REMARK    1  A    between atoms: N_15  and  C_16
REMARK    2  A    between atoms: C_16  and  C_17
REMARK    3  A    between atoms: N_19  and  N_20
REMARK    4  A    between atoms: C_21  and  C_23
REMARK                            x       y       z     vdW  Elec       q    Type
REMARK                         _______ _______ _______ _____ _____    ______ ____
ROOT
ATOM      1  C   UNL     1       5.558   0.758   0.460  0.00  0.00    +0.249 C 
ATOM      2  O   UNL     1       5.130   0.755   1.595  0.00  0.00    -0.272 OA
ATOM      3  N   UNL     1       6.689   1.430   0.169  0.00  0.00    -0.233 N 
ATOM      4  H   UNL     1       7.031   1.433  -0.739  0.00  0.00    +0.173 HD
ENDROOT
BRANCH   3   5
ATOM      5  N   UNL     1       7.372   2.123   1.177  0.00  0.00    -0.230 N 
ATOM      6  C   UNL     1       8.504   2.794   0.885  0.00  0.00    +0.267 C 
ATOM      7  O   UNL     1       8.933   2.798  -0.254  0.00  0.00    -0.268 OA
ATOM      8  H   UNL     1       7.030   2.120   2.084  0.00  0.00    +0.173 HD
BRANCH   6   9
ATOM      9  C   UNL     1       9.218   3.520   1.940  0.00  0.00    +0.076 A 
ATOM     10  C   UNL     1      10.377   4.266   1.853  0.00  0.00    +0.024 A 
ATOM     11  C   UNL     1      10.839   4.853   3.028  0.00  0.00    -0.036 A 
ATOM     12  C   UNL     1      10.102   4.631   4.147  0.00  0.00    -0.006 A 
ATOM     13  S   UNL     1       8.814   3.677   3.669  0.00  0.00    -0.088 S 
ATOM     14  C   UNL     1      10.368   5.131   5.537  0.00  0.00    +0.043 C 
ATOM     15  C   UNL     1      11.132   6.457   5.465  0.00  0.00    +0.005 C 
ATOM     16  C   UNL     1      12.628   6.157   5.442  0.00  0.00    +0.001 C 
ATOM     17  C   UNL     1      12.989   5.319   4.219  0.00  0.00    +0.005 C 
ATOM     18  C   UNL     1      12.108   5.699   3.034  0.00  0.00    +0.036 C 
ENDBRANCH   6   9
ENDBRANCH   3   5
BRANCH   1  19
ATOM     19  C   UNL     1       4.823   0.012  -0.624  0.00  0.00    +0.219 C 
BRANCH  19  34
ATOM     20  C   UNL     1      -0.017   1.364   0.009  0.00  0.00    +0.001 A 
ATOM     21  C   UNL     1       1.169   2.085   0.002  0.00  0.00    +0.002 A 
ATOM     22  C   UNL     1       2.388   1.440  -0.017  0.00  0.00    +0.026 A 
ATOM     23  C   UNL     1       2.430   0.050  -0.028  0.00  0.00    +0.054 A 
ATOM     24  C   UNL     1       1.223  -0.674  -0.015  0.00  0.00    +0.046 A 
ATOM     25  C   UNL     1       0.002  -0.004   0.002  0.00  0.00    +0.014 A 
ATOM     26  C   UNL     1       1.299  -2.151  -0.014  0.00  0.00    +0.197 A 
ATOM     27  O   UNL     1       0.378  -2.848  -0.399  0.00  0.00    -0.287 OA
ATOM     28  C   UNL     1       2.567  -2.724   0.484  0.00  0.00    +0.046 A 
ATOM     29  C   UNL     1       2.639  -4.026   0.975  0.00  0.00    +0.014 A 
ATOM     30  C   UNL     1       3.835  -4.510   1.428  0.00  0.00    +0.001 A 
ATOM     31  C   UNL     1       4.973  -3.716   1.403  0.00  0.00    +0.002 A 
ATOM     32  C   UNL     1       4.922  -2.425   0.920  0.00  0.00    +0.026 A 
ATOM     33  C   UNL     1       3.718  -1.913   0.450  0.00  0.00    +0.054 A 
ATOM     34  N   UNL     1       3.635  -0.629  -0.057  0.00  0.00    -0.331 N 
ENDBRANCH  19  34
ENDBRANCH   1  19
TORSDOF 4
