REMARK  Name = ZINC09666969
REMARK  9 active torsions:
REMARK  status: ('A' for Active; 'I' for Inactive)
REMARK    1  A    between atoms: C_1  and  C_2
REMARK    2  A    between atoms: C_3  and  C_31
REMARK    3  A    between atoms: N_9  and  C_24
REMARK    4  A    between atoms: C_10  and  S_12
REMARK    5  A    between atoms: S_12  and  C_13
REMARK    6  A    between atoms: C_13  and  C_15
REMARK    7  A    between atoms: C_13  and  C_18
REMARK    8  A    between atoms: C_15  and  C_16
REMARK    9  A    between atoms: C_15  and  C_17
REMARK                            x       y       z     vdW  Elec       q    Type
REMARK                         _______ _______ _______ _____ _____    ______ ____
ROOT
ATOM      1  C   UNL     1       2.007  -9.592   1.462  0.00  0.00    +0.045 C 
ATOM      2  C   UNL     1       1.315  -8.534   0.641  0.00  0.00    -0.026 A 
ATOM      3  C   UNL     1       0.140  -8.794   0.051  0.00  0.00    -0.008 A 
ATOM      4  S   UNL     1      -0.255  -7.267  -0.778  0.00  0.00    -0.073 S 
ATOM      5  C   UNL     1       1.171  -6.322  -0.308  0.00  0.00    +0.117 A 
ATOM      6  C   UNL     1       1.914  -7.220   0.481  0.00  0.00    +0.076 A 
ATOM      7  C   UNL     1       3.144  -6.716   1.008  0.00  0.00    +0.268 A 
ATOM      8  O   UNL     1       3.854  -7.423   1.703  0.00  0.00    -0.267 OA
ATOM      9  N   UNL     1       3.508  -5.451   0.728  0.00  0.00    -0.255 N 
ATOM     10  C   UNL     1       2.724  -4.644  -0.048  0.00  0.00    +0.178 A 
ATOM     11  N   UNL     1       1.584  -5.082  -0.543  0.00  0.00    -0.215 NA
ATOM     12  C   UNL     1      -0.657 -10.073   0.082  0.00  0.00    +0.052 C 
ENDROOT
BRANCH   9  13
ATOM     13  C   UNL     1       4.712  -4.951   1.242  0.00  0.00    +0.052 A 
ATOM     14  C   UNL     1       5.889  -5.093   0.519  0.00  0.00    +0.028 A 
ATOM     15  C   UNL     1       7.074  -4.595   1.026  0.00  0.00    +0.022 A 
ATOM     16  C   UNL     1       7.090  -3.966   2.258  0.00  0.00    +0.041 A 
ATOM     17  C   UNL     1       5.920  -3.829   2.983  0.00  0.00    +0.022 A 
ATOM     18  C   UNL     1       4.731  -4.320   2.478  0.00  0.00    +0.028 A 
ATOM     19 CL   UNL     1       8.582  -3.348   2.896  0.00  0.00    -0.084 Cl
ENDBRANCH   9  13
BRANCH  10  20
ATOM     20  S   UNL     1       3.242  -2.994  -0.387  0.00  0.00    -0.074 S 
BRANCH  20  21
ATOM     21  C   UNL     1       1.944  -2.488  -1.542  0.00  0.00    +0.143 C 
BRANCH  21  22
ATOM     22  C   UNL     1       2.066  -1.012  -1.820  0.00  0.00    +0.234 C 
ATOM     23  O   UNL     1       3.136  -0.457  -1.690  0.00  0.00    -0.274 OA
ATOM     24  N   UNL     1       0.985  -0.308  -2.212  0.00  0.00    -0.239 N 
ATOM     25  C   UNL     1       1.094   1.012  -2.460  0.00  0.00    +0.303 C 
ATOM     26  O   UNL     1       2.167   1.568  -2.330  0.00  0.00    -0.253 OA
ATOM     27  N   UNL     1       0.015   1.715  -2.857  0.00  0.00    -0.313 N 
ATOM     28  H   UNL     1       0.014  -0.811  -2.329  0.00  0.00    +0.159 HD
ATOM     29  H   UNL     1       0.104   2.792  -3.060  0.00  0.00    +0.146 HD
ATOM     30  H   UNL     1      -0.955   1.211  -2.979  0.00  0.00    +0.146 HD
ENDBRANCH  21  22
BRANCH  21  31
ATOM     31  C   UNL     1       2.093  -3.267  -2.850  0.00  0.00    +0.005 C 
ATOM     32  C   UNL     1       0.906  -2.960  -3.765  0.00  0.00    +0.009 C 
ATOM     33  C   UNL     1       3.392  -2.854  -3.544  0.00  0.00    +0.009 C 
ENDBRANCH  21  31
ENDBRANCH  20  21
ENDBRANCH  10  20
TORSDOF 5
