REMARK  Name = ZINC21627090
REMARK  11 active torsions:
REMARK  status: ('A' for Active; 'I' for Inactive)
REMARK    1  A    between atoms: C_1  and  C_2
REMARK    2  A    between atoms: C_6  and  N_9
REMARK    3  A    between atoms: C_7  and  C_8
REMARK    4  A    between atoms: C_22  and  S_23
REMARK    5  A    between atoms: S_23  and  C_24
REMARK    6  A    between atoms: C_24  and  C_26
REMARK    7  A    between atoms: C_24  and  C_27
REMARK    8  A    between atoms: N_29  and  C_30
REMARK    9  A    between atoms: C_30  and  C_31
REMARK   10  A    between atoms: C_31  and  C_32
REMARK   11  A    between atoms: C_31  and  C_33
REMARK                            x       y       z     vdW  Elec       q    Type
REMARK                         _______ _______ _______ _____ _____    ______ ____
ROOT
ATOM      1  N   UNL     1      -8.523  -0.063  -1.455  0.00  0.00    -0.245 N 
ATOM      2  C   UNL     1      -9.126   1.025  -1.977  0.00  0.00    +0.268 A 
ATOM      3  O   UNL     1     -10.297   0.985  -2.305  0.00  0.00    -0.267 OA
ATOM      4  C   UNL     1      -8.345   2.264  -2.143  0.00  0.00    +0.064 A 
ATOM      5  C   UNL     1      -8.919   3.416  -2.677  0.00  0.00    +0.015 A 
ATOM      6  C   UNL     1      -8.157   4.556  -2.818  0.00  0.00    +0.001 A 
ATOM      7  C   UNL     1      -6.826   4.560  -2.431  0.00  0.00    +0.002 A 
ATOM      8  C   UNL     1      -6.245   3.426  -1.900  0.00  0.00    +0.027 A 
ATOM      9  C   UNL     1      -6.996   2.270  -1.751  0.00  0.00    +0.064 A 
ATOM     10  N   UNL     1      -6.441   1.112  -1.221  0.00  0.00    -0.255 N 
ATOM     11  C   UNL     1      -7.190  -0.026  -1.077  0.00  0.00    +0.245 A 
ATOM     12  N   UNL     1      -6.402  -0.937  -0.557  0.00  0.00    -0.109 NA
ATOM     13  N   UNL     1      -5.226  -0.452  -0.374  0.00  0.00    -0.120 NA
ATOM     14  C   UNL     1      -5.191   0.801  -0.757  0.00  0.00    +0.198 A 
ENDROOT
BRANCH   1  20
ATOM     15  C   UNL     1     -10.062  -4.370  -3.260  0.00  0.00    +0.044 C 
ATOM     16  C   UNL     1     -10.017  -3.350  -2.151  0.00  0.00    -0.046 A 
ATOM     17  C   UNL     1     -10.699  -3.583  -0.971  0.00  0.00    +0.004 A 
ATOM     18  C   UNL     1     -10.660  -2.651   0.049  0.00  0.00    +0.002 A 
ATOM     19  C   UNL     1      -9.935  -1.485  -0.106  0.00  0.00    +0.026 A 
ATOM     20  C   UNL     1      -9.254  -1.246  -1.293  0.00  0.00    +0.056 A 
ATOM     21  C   UNL     1      -9.296  -2.185  -2.315  0.00  0.00    -0.024 A 
ATOM     22  C   UNL     1      -8.553  -1.932  -3.602  0.00  0.00    +0.046 C 
ENDBRANCH   1  20
BRANCH  14  23
ATOM     23  S   UNL     1      -3.798   1.879  -0.693  0.00  0.00    -0.073 S 
BRANCH  23  24
ATOM     24  C   UNL     1      -2.482   0.853   0.018  0.00  0.00    +0.137 C 
ATOM     25  C   UNL     1      -2.849   0.476   1.455  0.00  0.00    +0.029 C 
BRANCH  24  26
ATOM     26  C   UNL     1      -1.187   1.624   0.017  0.00  0.00    +0.226 C 
ATOM     27  O   UNL     1      -1.204   2.837   0.023  0.00  0.00    -0.275 OA
ATOM     28  N   UNL     1      -0.011   0.966   0.007  0.00  0.00    -0.314 N 
ATOM     29  H   UNL     1       0.004  -0.134   0.006  0.00  0.00    +0.149 HD
BRANCH  28  30
ATOM     30  C   UNL     1       1.248   1.716  -0.001  0.00  0.00    +0.107 C 
BRANCH  30  31
ATOM     31  C   UNL     1       2.424   0.737  -0.017  0.00  0.00    -0.000 C 
ATOM     32  C   UNL     1       2.414  -0.051  -1.329  0.00  0.00    +0.009 C 
ATOM     33  C   UNL     1       3.736   1.515   0.100  0.00  0.00    +0.009 C 
ENDBRANCH  30  31
ENDBRANCH  28  30
ENDBRANCH  24  26
ENDBRANCH  23  24
ENDBRANCH  14  23
TORSDOF 6
