REMARK  Name = ZINC55410536
REMARK  3 active torsions:
REMARK  status: ('A' for Active; 'I' for Inactive)
REMARK    1  A    between atoms: C_4  and  C_7
REMARK    2  A    between atoms: C_13  and  C_15
REMARK    3  A    between atoms: C_18  and  C_21
REMARK                            x       y       z     vdW  Elec       q    Type
REMARK                         _______ _______ _______ _____ _____    ______ ____
ROOT
ATOM      1  C   UNL     1       3.699  -0.689  -0.038  0.00  0.00    +0.170 A 
ATOM      2  N   UNL     1       3.744  -2.010  -0.051  0.00  0.00    -0.204 NA
ATOM      3  C   UNL     1       4.933  -2.582  -0.066  0.00  0.00    +0.185 A 
ATOM      4  S   UNL     1       5.977  -1.266  -0.063  0.00  0.00    +0.050 S 
ATOM      5  N   UNL     1       4.842  -0.033  -0.047  0.00  0.00    -0.187 NA
ATOM      6  N   UNL     1       5.244  -3.934  -0.081  0.00  0.00    -0.260 N 
ATOM      7  C   UNL     1       6.532  -4.330  -0.096  0.00  0.00    +0.262 C 
ATOM      8  O   UNL     1       7.420  -3.504  -0.096  0.00  0.00    -0.271 OA
ATOM      9  H   UNL     1       4.534  -4.595  -0.081  0.00  0.00    +0.157 HD
ENDROOT
BRANCH   1  13
ATOM     10  C   UNL     1      -0.017   1.379   0.010  0.00  0.00    +0.000 A 
ATOM     11  C   UNL     1       1.169   2.092   0.002  0.00  0.00    +0.001 A 
ATOM     12  C   UNL     1       2.377   1.426  -0.013  0.00  0.00    +0.011 A 
ATOM     13  C   UNL     1       2.402   0.033  -0.021  0.00  0.00    +0.020 A 
ATOM     14  C   UNL     1       1.205  -0.680  -0.013  0.00  0.00    +0.011 A 
ATOM     15  C   UNL     1       0.002  -0.004   0.002  0.00  0.00    +0.001 A 
ENDBRANCH   1  13
BRANCH   7  16
ATOM     16  C   UNL     1       6.870  -5.799  -0.112  0.00  0.00    +0.295 C 
ATOM     17  C   UNL     1       6.457  -6.447  -1.455  0.00  0.00    +0.116 C 
ATOM     18  C   UNL     1       7.734  -6.362  -2.268  0.00  0.00    +0.091 C 
ATOM     19  N   UNL     1       8.711  -6.109  -1.463  0.00  0.00    -0.088 NA
ATOM     20  O   UNL     1       8.298  -6.000  -0.114  0.00  0.00    -0.380 OA
BRANCH  18  21
ATOM     21  C   UNL     1       7.842  -6.539  -3.730  0.00  0.00    -0.000 A 
ATOM     22  C   UNL     1       6.702  -6.805  -4.490  0.00  0.00    +0.010 A 
ATOM     23  C   UNL     1       6.810  -6.970  -5.856  0.00  0.00    +0.001 A 
ATOM     24  C   UNL     1       8.045  -6.871  -6.472  0.00  0.00    +0.000 A 
ATOM     25  C   UNL     1       9.179  -6.608  -5.724  0.00  0.00    +0.001 A 
ATOM     26  C   UNL     1       9.084  -6.435  -4.359  0.00  0.00    +0.010 A 
ENDBRANCH  18  21
ENDBRANCH   7  16
TORSDOF 3
