REMARK  Name = ZINC04938969
REMARK  4 active torsions:
REMARK  status: ('A' for Active; 'I' for Inactive)
REMARK    1  A    between atoms: C_1  and  C_2
REMARK    2  A    between atoms: C_3  and  C_7
REMARK    3  A    between atoms: C_13  and  C_15
REMARK    4  A    between atoms: C_15  and  C_16
REMARK                            x       y       z     vdW  Elec       q    Type
REMARK                         _______ _______ _______ _____ _____    ______ ____
ROOT
ATOM      1  C   UNL     1      -3.083  -2.155   5.850  0.00  0.00    +0.189 A 
ATOM      2  N   UNL     1      -2.692  -3.057   6.720  0.00  0.00    -0.126 NA
ATOM      3  N   UNL     1      -2.159  -4.056   6.107  0.00  0.00    -0.120 NA
ATOM      4  C   UNL     1      -2.182  -3.844   4.826  0.00  0.00    +0.218 A 
ATOM      5  N   UNL     1      -2.770  -2.625   4.583  0.00  0.00    -0.186 N 
ATOM      6  N   UNL     1      -2.875  -2.243   3.253  0.00  0.00    -0.160 NA
ATOM      7  C   UNL     1      -2.438  -3.002   2.293  0.00  0.00    +0.107 A 
ATOM      8  S   UNL     1      -1.804  -4.413   3.187  0.00  0.00    -0.031 S 
ENDROOT
BRANCH   1  11
ATOM      9  C   UNL     1      -3.807  -1.087   8.707  0.00  0.00    +0.087 C 
ATOM     10  C   UNL     1      -4.062  -0.389   7.396  0.00  0.00    +0.113 A 
ATOM     11  C   UNL     1      -3.741  -0.868   6.164  0.00  0.00    +0.062 A 
ATOM     12  C   UNL     1      -4.188   0.155   5.211  0.00  0.00    +0.053 A 
ATOM     13  C   UNL     1      -4.724   1.142   5.949  0.00  0.00    +0.196 A 
ATOM     14  O   UNL     1      -4.641   0.812   7.246  0.00  0.00    -0.467 OA
ENDBRANCH   1  11
BRANCH   7  15
ATOM     15  C   UNL     1      -2.466  -2.759   0.806  0.00  0.00    +0.100 C 
BRANCH  15  16
ATOM     16  C   UNL     1      -1.204  -2.047   0.391  0.00  0.00    -0.041 A 
ATOM     17  C   UNL     1      -0.089  -2.774   0.017  0.00  0.00    +0.004 A 
ATOM     18  C   UNL     1       1.064  -2.116  -0.360  0.00  0.00    +0.004 A 
ATOM     19  C   UNL     1       1.114  -0.728  -0.366  0.00  0.00    -0.044 A 
ATOM     20  C   UNL     1       0.002  -0.004   0.002  0.00  0.00    -0.044 A 
ATOM     21  C   UNL     1      -1.157  -0.669   0.383  0.00  0.00    +0.008 A 
ATOM     22  C   UNL     1      -0.018   1.502   0.010  0.00  0.00    +0.035 C 
ATOM     23  C   UNL     1       1.404   2.059  -0.000  0.00  0.00    +0.005 C 
ATOM     24  C   UNL     1       2.177   1.390  -1.143  0.00  0.00    +0.005 C 
ATOM     25  C   UNL     1       2.408  -0.075  -0.775  0.00  0.00    +0.035 C 
ENDBRANCH  15  16
ENDBRANCH   7  15
TORSDOF 3
