REMARK  Name = ZINC21238427
REMARK  7 active torsions:
REMARK  status: ('A' for Active; 'I' for Inactive)
REMARK    1  A    between atoms: C_1  and  C_2
REMARK    2  A    between atoms: C_2  and  C_4
REMARK    3  A    between atoms: C_2  and  N_12
REMARK    4  A    between atoms: C_13  and  C_15
REMARK    5  A    between atoms: C_15  and  N_16
REMARK    6  A    between atoms: C_19  and  C_23
REMARK    7  A    between atoms: C_19  and  C_24
REMARK                            x       y       z     vdW  Elec       q    Type
REMARK                         _______ _______ _______ _____ _____    ______ ____
ROOT
ATOM      1  N   UNL     1      -6.807   1.873  -2.252  0.00  0.00    -0.215 N 
ATOM      2  C   UNL     1      -7.872   1.439  -1.550  0.00  0.00    +0.251 C 
ATOM      3  O   UNL     1      -8.132   1.679  -0.390  0.00  0.00    -0.272 OA
ATOM      4  C   UNL     1      -8.678   0.588  -2.511  0.00  0.00    +0.135 C 
ATOM      5  N   UNL     1      -7.901   0.646  -3.761  0.00  0.00    -0.281 N 
ATOM      6  C   UNL     1      -6.830   1.423  -3.512  0.00  0.00    +0.310 C 
ATOM      7  O   UNL     1      -5.978   1.683  -4.338  0.00  0.00    -0.252 OA
ATOM      8  C   UNL     1     -10.073   1.182  -2.717  0.00  0.00    +0.047 C 
ATOM      9  H   UNL     1      -8.251   0.106  -4.652  0.00  0.00    +0.152 HD
ENDROOT
BRANCH   4  10
ATOM     10  C   UNL     1      -8.777  -0.830  -2.010  0.00  0.00    -0.012 A 
ATOM     11  C   UNL     1      -8.759  -1.083  -0.651  0.00  0.00    +0.010 A 
ATOM     12  C   UNL     1      -8.849  -2.382  -0.186  0.00  0.00    +0.050 A 
ATOM     13  C   UNL     1      -8.958  -3.433  -1.082  0.00  0.00    +0.166 A 
ATOM     14  C   UNL     1      -8.976  -3.178  -2.450  0.00  0.00    +0.167 A 
ATOM     15  C   UNL     1      -8.890  -1.873  -2.909  0.00  0.00    +0.055 A 
ATOM     16  O   UNL     1      -9.089  -4.365  -3.115  0.00  0.00    -0.453 OA
ATOM     17  C   UNL     1      -8.729  -5.377  -2.156  0.00  0.00    +0.466 C 
ATOM     18  O   UNL     1      -9.060  -4.781  -0.888  0.00  0.00    -0.453 OA
ENDBRANCH   4  10
BRANCH   1  19
ATOM     19  C   UNL     1      -5.757   2.736  -1.706  0.00  0.00    +0.213 C 
BRANCH  19  21
ATOM     20  N   UNL     1      -3.586   2.465  -0.551  0.00  0.00    -0.307 N 
ATOM     21  C   UNL     1      -4.663   1.883  -1.115  0.00  0.00    +0.231 C 
ATOM     22  O   UNL     1      -4.753   0.674  -1.147  0.00  0.00    -0.274 OA
ATOM     23  H   UNL     1      -3.506   3.561  -0.522  0.00  0.00    +0.149 HD
BRANCH  20  25
ATOM     24  C   UNL     1      -2.890   1.260   1.460  0.00  0.00    +0.033 C 
ATOM     25  C   UNL     1      -2.523   1.636   0.023  0.00  0.00    +0.102 C 
BRANCH  25  26
ATOM     26  C   UNL     1      -1.229   2.407   0.021  0.00  0.00    -0.009 A 
ATOM     27  C   UNL     1      -1.248   3.789   0.033  0.00  0.00    +0.008 A 
ATOM     28  C   UNL     1      -0.061   4.497   0.026  0.00  0.00    +0.020 A 
ATOM     29  C   UNL     1       1.147   3.823   0.011  0.00  0.00    +0.042 A 
ATOM     30  C   UNL     1       1.167   2.440   0.004  0.00  0.00    +0.040 A 
ATOM     31  C   UNL     1      -0.021   1.732   0.012  0.00  0.00    +0.047 A 
ATOM     32 CL   UNL     1       0.002  -0.004   0.002  0.00  0.00    -0.083 Cl
ATOM     33 CL   UNL     1       2.638   4.712   0.001  0.00  0.00    -0.083 Cl
ENDBRANCH  25  26
ENDBRANCH  20  25
ENDBRANCH  19  21
ENDBRANCH   1  19
TORSDOF 5
