REMARK  Name = ZINC36517637
REMARK  17 active torsions:
REMARK  status: ('A' for Active; 'I' for Inactive)
REMARK    1  A    between atoms: C_1  and  C_2
REMARK    2  A    between atoms: C_2  and  C_3
REMARK    3  A    between atoms: C_3  and  C_4
REMARK    4  A    between atoms: C_4  and  C_5
REMARK    5  A    between atoms: C_5  and  C_6
REMARK    6  A    between atoms: C_6  and  N_7
REMARK    7  A    between atoms: N_7  and  C_8
REMARK    8  A    between atoms: C_8  and  C_10
REMARK    9  A    between atoms: C_8  and  C_19
REMARK   10  A    between atoms: C_13  and  N_16
REMARK   11  A    between atoms: N_21  and  C_22
REMARK   12  A    between atoms: C_22  and  C_23
REMARK   13  A    between atoms: C_22  and  C_24
REMARK   14  A    between atoms: C_22  and  C_25
REMARK   15  A    between atoms: C_26  and  C_28
REMARK   16  A    between atoms: C_28  and  C_29
REMARK   17  A    between atoms: C_28  and  C_35
REMARK                            x       y       z     vdW  Elec       q    Type
REMARK                         _______ _______ _______ _____ _____    ______ ____
ROOT
ATOM      1  N   UNL     1       1.446  -4.352   2.769  0.00  0.00    -0.285 N 
ATOM      2  C   UNL     1       2.748  -4.650   2.949  0.00  0.00    +0.228 C 
ATOM      3  O   UNL     1       3.190  -4.786   4.070  0.00  0.00    -0.275 OA
ENDROOT
BRANCH   1   4
ATOM      4  C   UNL     1       0.881  -4.322   1.418  0.00  0.00    +0.109 C 
BRANCH   4   5
ATOM      5  C   UNL     1       1.179  -2.968   0.770  0.00  0.00    +0.019 C 
BRANCH   5   6
ATOM      6  C   UNL     1       0.589  -2.937  -0.641  0.00  0.00    +0.002 C 
BRANCH   6   7
ATOM      7  C   UNL     1       0.887  -1.584  -1.289  0.00  0.00    -0.000 C 
BRANCH   7   9
ATOM      8  C   UNL     1       0.595  -0.199  -3.348  0.00  0.00    +0.004 C 
ATOM      9  C   UNL     1       0.297  -1.553  -2.700  0.00  0.00    -0.003 C 
ENDBRANCH   7   9
ENDBRANCH   6   7
ENDBRANCH   5   6
ENDBRANCH   4   5
ENDBRANCH   1   4
BRANCH   1  10
ATOM     10  C   UNL     1       0.596  -4.057   3.925  0.00  0.00    +0.192 C 
BRANCH  10  11
ATOM     11  C   UNL     1      -0.071  -2.720   3.730  0.00  0.00    -0.018 A 
ATOM     12  C   UNL     1       0.318  -1.635   4.495  0.00  0.00    +0.008 A 
ATOM     13  C   UNL     1      -0.294  -0.409   4.316  0.00  0.00    +0.033 A 
ATOM     14  C   UNL     1      -1.294  -0.266   3.373  0.00  0.00    +0.126 A 
ATOM     15  C   UNL     1      -1.682  -1.350   2.607  0.00  0.00    +0.033 A 
ATOM     16  C   UNL     1      -1.068  -2.575   2.783  0.00  0.00    +0.008 A 
BRANCH  14  17
ATOM     17  N   UNL     1      -1.950   1.047   3.182  0.00  0.00    +0.056 N 
ATOM     18  O   UNL     1      -1.610   1.995   3.851  0.00  0.00    -0.126 OA
ATOM     19  O   UNL     1      -2.824   1.172   2.357  0.00  0.00    -0.126 OA
ENDBRANCH  14  17
ENDBRANCH  10  11
BRANCH  10  20
ATOM     20  C   UNL     1      -0.456  -5.128   4.061  0.00  0.00    +0.238 C 
ATOM     21  O   UNL     1      -0.492  -6.046   3.271  0.00  0.00    -0.273 OA
ATOM     22  N   UNL     1      -1.357  -5.064   5.062  0.00  0.00    -0.309 N 
ATOM     23  H   UNL     1      -1.328  -4.329   5.694  0.00  0.00    +0.149 HD
BRANCH  22  24
ATOM     24  C   UNL     1      -2.380  -6.105   5.194  0.00  0.00    +0.026 C 
ATOM     25  C   UNL     1      -1.703  -7.463   5.392  0.00  0.00    +0.031 C 
ATOM     26  C   UNL     1      -3.267  -5.797   6.402  0.00  0.00    +0.031 C 
ATOM     27  C   UNL     1      -3.236  -6.142   3.927  0.00  0.00    +0.031 C 
ENDBRANCH  22  24
ENDBRANCH  10  20
ENDBRANCH   1  10
BRANCH   2  28
ATOM     28  C   UNL     1       3.654  -4.816   1.756  0.00  0.00    +0.135 C 
BRANCH  28  29
ATOM     29  C   UNL     1       4.719  -3.750   1.783  0.00  0.00    -0.031 A 
ATOM     30  C   UNL     1       5.537  -3.618   2.890  0.00  0.00    +0.005 A 
ATOM     31  C   UNL     1       6.514  -2.640   2.915  0.00  0.00    +0.000 A 
ATOM     32  C   UNL     1       6.674  -1.795   1.832  0.00  0.00    +0.000 A 
ATOM     33  C   UNL     1       5.857  -1.928   0.725  0.00  0.00    +0.000 A 
ATOM     34  C   UNL     1       4.882  -2.909   0.699  0.00  0.00    +0.005 A 
ENDBRANCH  28  29
BRANCH  28  35
ATOM     35  C   UNL     1       4.303  -6.176   1.803  0.00  0.00    -0.031 A 
ATOM     36  C   UNL     1       4.978  -6.580   2.940  0.00  0.00    +0.005 A 
ATOM     37  C   UNL     1       5.573  -7.827   2.983  0.00  0.00    +0.000 A 
ATOM     38  C   UNL     1       5.492  -8.670   1.890  0.00  0.00    +0.000 A 
ATOM     39  C   UNL     1       4.816  -8.265   0.754  0.00  0.00    +0.000 A 
ATOM     40  C   UNL     1       4.218  -7.020   0.712  0.00  0.00    +0.005 A 
ENDBRANCH  28  35
ENDBRANCH   2  28
TORSDOF 13
