REMARK  Name = ZINC16612792
REMARK  8 active torsions:
REMARK  status: ('A' for Active; 'I' for Inactive)
REMARK    1  A    between atoms: C_1  and  C_2
REMARK    2  A    between atoms: C_2  and  C_3
REMARK    3  A    between atoms: C_3  and  C_5
REMARK    4  A    between atoms: C_3  and  N_6
REMARK    5  A    between atoms: C_7  and  C_9
REMARK    6  A    between atoms: C_9  and  N_10
REMARK    7  A    between atoms: N_12  and  C_30
REMARK    8  A    between atoms: C_21  and  C_23
REMARK                            x       y       z     vdW  Elec       q    Type
REMARK                         _______ _______ _______ _____ _____    ______ ____
ROOT
ATOM      1  N   UNL     1       4.335   7.544   2.215  0.00  0.00    -0.275 N 
ATOM      2  C   UNL     1       4.409   6.086   2.057  0.00  0.00    +0.217 C 
ATOM      3  N   UNL     1       3.920   5.794   0.690  0.00  0.00    -0.300 N 
ATOM      4  C   UNL     1       3.018   6.930   0.407  0.00  0.00    +0.115 C 
ATOM      5  C   UNL     1       3.522   8.061   1.270  0.00  0.00    +0.241 C 
ATOM      6  O   UNL     1       3.245   9.234   1.137  0.00  0.00    -0.273 OA
ATOM      7  C   UNL     1       1.586   6.567   0.790  0.00  0.00    +0.054 C 
ATOM      8  C   UNL     1       0.670   7.770   0.536  0.00  0.00    +0.110 C 
ATOM      9  N   UNL     1       0.843   8.210  -0.855  0.00  0.00    -0.297 N 
ATOM     10  C   UNL     1       2.197   8.517  -1.337  0.00  0.00    +0.110 C 
ATOM     11  C   UNL     1       3.101   7.309  -1.069  0.00  0.00    +0.054 C 
ATOM     12  C   UNL     1      -0.220   8.331  -1.674  0.00  0.00    +0.248 C 
ATOM     13  O   UNL     1      -1.343   8.156  -1.242  0.00  0.00    -0.270 OA
ENDROOT
BRANCH  12  14
ATOM     14  C   UNL     1      -0.021   8.674  -3.097  0.00  0.00    +0.051 A 
ATOM     15  C   UNL     1       1.093   8.192  -3.786  0.00  0.00    +0.014 A 
ATOM     16  C   UNL     1       1.270   8.512  -5.116  0.00  0.00    +0.001 A 
ATOM     17  C   UNL     1       0.352   9.319  -5.765  0.00  0.00    +0.001 A 
ATOM     18  C   UNL     1      -0.752   9.805  -5.089  0.00  0.00    +0.016 A 
ATOM     19  C   UNL     1      -0.945   9.488  -3.758  0.00  0.00    +0.030 A 
ATOM     20 BR   UNL     1      -2.454  10.153  -2.834  0.00  0.00    -0.050 Br
ENDBRANCH  12  14
BRANCH   3  21
ATOM     21  C   UNL     1       3.226   4.583   0.654  0.00  0.00    +0.032 A 
ATOM     22  C   UNL     1       2.537   4.208  -0.492  0.00  0.00    +0.023 A 
ATOM     23  C   UNL     1       1.851   3.010  -0.523  0.00  0.00    +0.002 A 
ATOM     24  C   UNL     1       1.845   2.186   0.587  0.00  0.00    +0.000 A 
ATOM     25  C   UNL     1       2.535   2.553   1.728  0.00  0.00    +0.002 A 
ATOM     26  C   UNL     1       3.223   3.750   1.766  0.00  0.00    +0.023 A 
ENDBRANCH   3  21
BRANCH   1  27
ATOM     27  C   UNL     1       5.037   8.319   3.241  0.00  0.00    +0.205 C 
BRANCH  27  29
ATOM     28  N   UNL     1       4.609   9.108   5.546  0.00  0.00    -0.311 N 
ATOM     29  C   UNL     1       4.167   8.434   4.467  0.00  0.00    +0.231 C 
ATOM     30  O   UNL     1       3.069   7.918   4.481  0.00  0.00    -0.274 OA
ATOM     31  H   UNL     1       5.487   9.521   5.535  0.00  0.00    +0.149 HD
BRANCH  28  32
ATOM     32  C   UNL     1       3.764   9.220   6.738  0.00  0.00    +0.070 C 
ATOM     33  C   UNL     1       2.805  10.401   6.574  0.00  0.00    +0.028 C 
BRANCH  32  35
ATOM     34  C   UNL     1       5.515   8.208   8.205  0.00  0.00    +0.005 C 
ATOM     35  C   UNL     1       4.644   9.444   7.969  0.00  0.00    +0.018 C 
ENDBRANCH  32  35
ENDBRANCH  28  32
ENDBRANCH  27  29
ENDBRANCH   1  27
TORSDOF 6
