REMARK  Name = ZINC02745936
REMARK  11 active torsions:
REMARK  status: ('A' for Active; 'I' for Inactive)
REMARK    1  A    between atoms: C_1  and  C_2
REMARK    2  A    between atoms: C_2  and  O_3
REMARK    3  A    between atoms: O_3  and  C_4
REMARK    4  A    between atoms: C_4  and  C_6
REMARK    5  A    between atoms: C_10  and  N_11
REMARK    6  A    between atoms: C_12  and  C_14
REMARK    7  A    between atoms: C_14  and  S_15
REMARK    8  A    between atoms: S_15  and  C_16
REMARK    9  A    between atoms: N_26  and  C_27
REMARK   10  A    between atoms: C_27  and  C_28
REMARK   11  A    between atoms: C_35  and  N_62
REMARK                            x       y       z     vdW  Elec       q    Type
REMARK                         _______ _______ _______ _____ _____    ______ ____
ROOT
ATOM      1  N   UNL     1       0.097  12.691   0.062  0.00  0.00    -0.279 N 
ATOM      2  C   UNL     1       1.051  11.740   0.048  0.00  0.00    +0.228 C 
ATOM      3  O   UNL     1       2.223  12.055   0.039  0.00  0.00    -0.275 OA
ATOM      4  H   UNL     1      -0.839  12.439   0.070  0.00  0.00    +0.155 HD
ENDROOT
BRANCH   1   9
ATOM      5  C   UNL     1      -0.375  15.146   0.072  0.00  0.00    +0.091 A 
ATOM      6  C   UNL     1       0.259  16.451   0.078  0.00  0.00    -0.025 A 
ATOM      7  C   UNL     1       1.611  16.436   0.064  0.00  0.00    -0.021 A 
ATOM      8  S   UNL     1       2.044  14.721   0.052  0.00  0.00    -0.079 S 
ATOM      9  C   UNL     1       0.455  14.031   0.065  0.00  0.00    +0.086 A 
ATOM     10  C   UNL     1       2.513  17.631   0.059  0.00  0.00    -0.036 C 
ATOM     11  C   UNL     1       0.486  18.873   0.527  0.00  0.00    -0.074 C 
ATOM     12  C   UNL     1      -0.491  17.777   0.093  0.00  0.00    +0.018 C 
ATOM     13  C   UNL     1       2.493  20.048  -0.150  0.00  0.00    -0.096 C 
ATOM     14  N   UNL     1       1.698  18.812  -0.316  0.00  0.00    +0.381 N 
ATOM     15  H   UNL     1       1.417  18.726  -1.300  0.00  0.00    -0.082 HD
BRANCH   5  16
ATOM     16  C   UNL     1      -1.833  15.009   0.078  0.00  0.00    +0.342 C 
ATOM     17  O   UNL     1      -2.434  14.949   1.134  0.00  0.00    -0.245 OA
BRANCH  16  18
ATOM     18  O   UNL     1      -2.510  14.949  -1.087  0.00  0.00    -0.461 OA
BRANCH  18  20
ATOM     19  C   UNL     1      -4.542  14.762  -2.416  0.00  0.00    +0.048 C 
ATOM     20  C   UNL     1      -3.953  14.813  -1.005  0.00  0.00    +0.229 C 
ENDBRANCH  18  20
ENDBRANCH  16  18
ENDBRANCH   5  16
ENDBRANCH   1   9
BRANCH   2  21
ATOM     21  C   UNL     1       0.663  10.284   0.045  0.00  0.00    +0.173 C 
BRANCH  21  22
ATOM     22  S   UNL     1       2.156   9.261   0.026  0.00  0.00    -0.075 S 
BRANCH  22  23
ATOM     23  C   UNL     1       1.428   7.656   0.026  0.00  0.00    +0.212 A 
ATOM     24  N   UNL     1       2.212   6.586   0.013  0.00  0.00    -0.201 NA
ATOM     25  C   UNL     1       1.661   5.376   0.013  0.00  0.00    +0.165 A 
ATOM     26  C   UNL     1       0.255   5.282   0.026  0.00  0.00    +0.138 A 
ATOM     27  C   UNL     1      -0.064   3.844   0.022  0.00  0.00    +0.029 A 
ATOM     28  C   UNL     1      -1.257   3.124   0.030  0.00  0.00    +0.012 A 
ATOM     29  C   UNL     1      -1.226   1.746   0.017  0.00  0.00    +0.001 A 
ATOM     30  C   UNL     1      -0.013   1.076   0.008  0.00  0.00    +0.002 A 
ATOM     31  C   UNL     1       1.175   1.775   0.000  0.00  0.00    +0.026 A 
ATOM     32  C   UNL     1       1.165   3.166   0.007  0.00  0.00    +0.053 A 
ATOM     33  N   UNL     1       2.183   4.106   0.002  0.00  0.00    -0.320 N 
ATOM     34  N   UNL     1      -0.473   6.389   0.038  0.00  0.00    -0.143 NA
ATOM     35  N   UNL     1       0.104   7.542   0.038  0.00  0.00    -0.122 NA
BRANCH  33  36
ATOM     36  C   UNL     1       3.613   3.790  -0.013  0.00  0.00    +0.150 C 
BRANCH  36  37
ATOM     37  C   UNL     1       4.090   3.688  -1.439  0.00  0.00    -0.013 C 
ATOM     38  C   UNL     1       5.100   4.417  -1.845  0.00  0.00    +0.005 C 
ENDBRANCH  36  37
ENDBRANCH  33  36
ENDBRANCH  22  23
ENDBRANCH  21  22
ENDBRANCH   2  21
TORSDOF 9
