REMARK  Name = ZINC66776937
REMARK  15 active torsions:
REMARK  status: ('A' for Active; 'I' for Inactive)
REMARK    1  A    between atoms: C_1  and  C_2
REMARK    2  A    between atoms: C_2  and  N_3
REMARK    3  A    between atoms: N_3  and  C_4
REMARK    4  A    between atoms: C_4  and  C_5
REMARK    5  A    between atoms: C_11  and  C_14
REMARK    6  A    between atoms: N_16  and  C_17
REMARK    7  A    between atoms: N_16  and  C_18
REMARK    8  A    between atoms: C_18  and  C_19
REMARK    9  A    between atoms: C_19  and  C_20
REMARK   10  A    between atoms: C_20  and  C_21
REMARK   11  A    between atoms: C_21  and  O_23
REMARK   12  A    between atoms: O_23  and  C_24
REMARK   13  A    between atoms: C_24  and  C_25
REMARK   14  A    between atoms: C_24  and  C_26
REMARK   15  A    between atoms: C_24  and  C_27
REMARK                            x       y       z     vdW  Elec       q    Type
REMARK                         _______ _______ _______ _____ _____    ______ ____
ROOT
ATOM      1  C   UNL     1       3.560  -1.436  -6.259  0.00  0.00    +0.219 C 
ATOM      2  O   UNL     1       4.593  -0.942  -5.861  0.00  0.00    -0.275 OA
ATOM      3  N   UNL     1       3.328  -1.539  -7.583  0.00  0.00    -0.304 N 
ATOM      4  C   UNL     1       2.080  -2.136  -8.064  0.00  0.00    +0.132 C 
ENDROOT
BRANCH   1  11
ATOM      5  N   UNL     1      -1.301  -0.770  -2.314  0.00  0.00    -0.286 N 
ATOM      6  C   UNL     1       0.019  -0.997  -2.165  0.00  0.00    +0.305 C 
ATOM      7  O   UNL     1       0.589  -0.632  -1.155  0.00  0.00    -0.252 OA
ATOM      8  N   UNL     1       0.709  -1.628  -3.136  0.00  0.00    -0.285 N 
ATOM      9  C   UNL     1       2.013  -2.242  -2.850  0.00  0.00    +0.110 C 
ATOM     10  C   UNL     1       3.041  -1.702  -3.849  0.00  0.00    +0.032 C 
ATOM     11  C   UNL     1       2.535  -1.936  -5.274  0.00  0.00    +0.078 C 
ATOM     12  C   UNL     1       1.219  -1.182  -5.480  0.00  0.00    +0.032 C 
ATOM     13  C   UNL     1       0.168  -1.721  -4.499  0.00  0.00    +0.110 C 
BRANCH   5  15
ATOM     14  C   UNL     1      -2.530  -0.666  -0.202  0.00  0.00    +0.024 C 
ATOM     15  C   UNL     1      -1.998   0.132  -1.394  0.00  0.00    +0.106 C 
ENDBRANCH   5  15
BRANCH   5  16
ATOM     16  C   UNL     1      -2.039  -1.426  -3.397  0.00  0.00    +0.106 C 
ATOM     17  C   UNL     1      -2.422  -0.389  -4.454  0.00  0.00    +0.024 C 
ENDBRANCH   5  16
ENDBRANCH   1  11
BRANCH   3  18
ATOM     18  C   UNL     1       4.324  -1.053  -8.541  0.00  0.00    +0.108 C 
BRANCH  18  19
ATOM     19  C   UNL     1       5.297  -2.184  -8.883  0.00  0.00    +0.030 C 
BRANCH  19  20
ATOM     20  C   UNL     1       6.337  -1.677  -9.883  0.00  0.00    +0.122 C 
BRANCH  20  21
ATOM     21  C   UNL     1       7.295  -2.790 -10.220  0.00  0.00    +0.308 C 
ATOM     22  O   UNL     1       7.159  -3.878  -9.712  0.00  0.00    -0.251 OA
BRANCH  21  23
ATOM     23  O   UNL     1       8.299  -2.574 -11.085  0.00  0.00    -0.459 OA
BRANCH  23  24
ATOM     24  C   UNL     1       9.169  -3.674 -11.358  0.00  0.00    +0.105 C 
ATOM     25  C   UNL     1       8.359  -4.830 -11.949  0.00  0.00    +0.055 C 
ATOM     26  C   UNL     1      10.243  -3.240 -12.357  0.00  0.00    +0.055 C 
ATOM     27  C   UNL     1       9.836  -4.131 -10.059  0.00  0.00    +0.055 C 
ENDBRANCH  23  24
ENDBRANCH  21  23
ENDBRANCH  20  21
ENDBRANCH  19  20
ENDBRANCH  18  19
ENDBRANCH   3  18
TORSDOF 9
