REMARK  Name = ZINC06517431
REMARK  6 active torsions:
REMARK  status: ('A' for Active; 'I' for Inactive)
REMARK    1  A    between atoms: C_1  and  C_2
REMARK    2  A    between atoms: C_2  and  C_3
REMARK    3  A    between atoms: C_3  and  S_4
REMARK    4  A    between atoms: S_4  and  C_5
REMARK    5  A    between atoms: C_18  and  C_21
REMARK    6  A    between atoms: C_24  and  C_26
REMARK                            x       y       z     vdW  Elec       q    Type
REMARK                         _______ _______ _______ _____ _____    ______ ____
ROOT
ATOM      1  C   UNL     1      -4.764   5.285   0.128  0.00  0.00    +0.212 A 
ATOM      2  N   UNL     1      -3.841   5.644  -0.760  0.00  0.00    -0.184 NA
ATOM      3  C   UNL     1      -2.705   4.971  -0.819  0.00  0.00    +0.248 A 
ATOM      4  C   UNL     1      -2.507   3.892   0.072  0.00  0.00    +0.156 A 
ATOM      5  N   UNL     1      -3.468   3.584   0.931  0.00  0.00    -0.141 NA
ATOM      6  N   UNL     1      -4.561   4.265   0.953  0.00  0.00    -0.122 NA
ATOM      7  C   UNL     1      -1.239   3.135   0.033  0.00  0.00    +0.028 A 
ATOM      8  C   UNL     1      -1.220   1.746   0.017  0.00  0.00    +0.012 A 
ATOM      9  C   UNL     1      -0.013   1.076   0.008  0.00  0.00    +0.001 A 
ATOM     10  C   UNL     1       1.179   1.780   0.000  0.00  0.00    +0.002 A 
ATOM     11  C   UNL     1       1.175   3.163   0.001  0.00  0.00    +0.024 A 
ATOM     12  C   UNL     1      -0.026   3.848   0.014  0.00  0.00    +0.039 A 
ATOM     13  N   UNL     1      -0.067   5.245  -0.006  0.00  0.00    -0.305 N 
ATOM     14  C   UNL     1      -0.562   5.915  -1.205  0.00  0.00    +0.300 C 
ATOM     15  O   UNL     1      -1.739   5.294  -1.711  0.00  0.00    -0.448 OA
ATOM     16  H   UNL     1       0.228   5.760   0.761  0.00  0.00    +0.150 HD
ENDROOT
BRANCH  14  17
ATOM     17  C   UNL     1       0.507   5.876  -2.266  0.00  0.00    +0.049 A 
ATOM     18  C   UNL     1       0.751   6.759  -3.265  0.00  0.00    +0.017 A 
ATOM     19  C   UNL     1       1.802   6.519  -4.131  0.00  0.00    +0.011 A 
ATOM     20  C   UNL     1       2.550   5.401  -3.962  0.00  0.00    -0.013 A 
ATOM     21  S   UNL     1       1.776   4.650  -2.539  0.00  0.00    -0.093 S 
ATOM     22  C   UNL     1       3.730   4.919  -4.766  0.00  0.00    +0.051 C 
ENDBRANCH  14  17
BRANCH   1  23
ATOM     23  S   UNL     1      -6.281   6.179   0.212  0.00  0.00    -0.084 S 
BRANCH  23  24
ATOM     24  C   UNL     1      -7.105   5.275   1.546  0.00  0.00    +0.077 C 
BRANCH  24  26
ATOM     25  C   UNL     1      -9.179   5.127   2.931  0.00  0.00    +0.004 C 
ATOM     26  C   UNL     1      -8.482   5.891   1.803  0.00  0.00    +0.008 C 
ENDBRANCH  24  26
ENDBRANCH  23  24
ENDBRANCH   1  23
TORSDOF 4
