REMARK  Name = ZINC21776650
REMARK  11 active torsions:
REMARK  status: ('A' for Active; 'I' for Inactive)
REMARK    1  A    between atoms: C_1  and  C_2
REMARK    2  A    between atoms: C_4  and  C_33
REMARK    3  A    between atoms: C_5  and  S_9
REMARK    4  A    between atoms: C_6  and  C_8
REMARK    5  A    between atoms: S_9  and  N_12
REMARK    6  A    between atoms: N_12  and  C_13
REMARK    7  A    between atoms: C_13  and  C_14
REMARK    8  A    between atoms: C_14  and  C_16
REMARK    9  A    between atoms: C_14  and  N_26
REMARK   10  A    between atoms: N_24  and  C_25
REMARK   11  A    between atoms: N_29  and  C_32
REMARK                            x       y       z     vdW  Elec       q    Type
REMARK                         _______ _______ _______ _____ _____    ______ ____
ROOT
ATOM      1  C   UNL     1      -0.820   1.445  -0.673  0.00  0.00    +0.102 C 
ENDROOT
BRANCH   1   2
ATOM      2  C   UNL     1      -1.796   2.551  -0.365  0.00  0.00    -0.029 A 
ATOM      3  C   UNL     1      -1.499   3.855  -0.718  0.00  0.00    +0.007 A 
ATOM      4  C   UNL     1      -2.390   4.870  -0.440  0.00  0.00    +0.024 A 
ATOM      5  C   UNL     1      -3.592   4.590   0.209  0.00  0.00    +0.033 A 
ATOM      6  C   UNL     1      -3.880   3.277   0.560  0.00  0.00    -0.025 A 
ATOM      7  C   UNL     1      -2.987   2.265   0.277  0.00  0.00    +0.010 A 
ATOM      8  C   UNL     1      -5.239   3.260   1.232  0.00  0.00    +0.056 C 
ATOM      9  C   UNL     1      -5.833   4.632   0.839  0.00  0.00    +0.109 C 
ATOM     10  N   UNL     1      -4.625   5.451   0.599  0.00  0.00    -0.332 N 
ATOM     11  C   UNL     1      -4.877   6.471  -0.428  0.00  0.00    +0.129 C 
ENDBRANCH   1   2
BRANCH   1  12
ATOM     12  N   UNL     1       0.339   1.551   0.224  0.00  0.00    -0.298 NA
ATOM     13  C   UNL     1      -0.007   1.115   1.585  0.00  0.00    +0.066 C 
ATOM     14  C   UNL     1       1.243   1.165   2.466  0.00  0.00    -0.064 C 
ATOM     15  N   UNL     1       1.780   2.533   2.475  0.00  0.00    +0.379 N 
ATOM     16  C   UNL     1       2.126   2.968   1.114  0.00  0.00    -0.064 C 
ATOM     17  C   UNL     1       0.876   2.918   0.233  0.00  0.00    +0.066 C 
ATOM     18  C   UNL     1       2.938   2.638   3.372  0.00  0.00    -0.096 C 
ATOM     19  H   UNL     1       0.996   3.203   2.857  0.00  0.00    -0.082 HD
ENDBRANCH   1  12
BRANCH   1  20
ATOM     20  C   UNL     1      -0.353   1.567  -2.125  0.00  0.00    +0.129 C 
BRANCH  20  21
ATOM     21  N   UNL     1       0.650   0.536  -2.404  0.00  0.00    -0.188 NA
ATOM     22  H   UNL     1       1.246   0.112  -1.582  0.00  0.00    +0.148 HD
BRANCH  21  23
ATOM     23  S   UNL     1       1.063   0.184  -3.968  0.00  0.00    +0.059 S 
ATOM     24  O   UNL     1       2.064  -0.823  -3.907  0.00  0.00    -0.153 OA
ATOM     25  O   UNL     1      -0.154   0.006  -4.679  0.00  0.00    -0.153 OA
BRANCH  23  30
ATOM     26  C   UNL     1       3.701   5.101  -6.264  0.00  0.00    +0.044 C 
ATOM     27  C   UNL     1       3.042   3.873  -5.691  0.00  0.00    -0.050 A 
ATOM     28  C   UNL     1       1.664   3.791  -5.633  0.00  0.00    +0.008 A 
ATOM     29  C   UNL     1       1.059   2.665  -5.106  0.00  0.00    -0.024 A 
ATOM     30  C   UNL     1       1.834   1.619  -4.639  0.00  0.00    +0.111 A 
ATOM     31  C   UNL     1       3.212   1.703  -4.692  0.00  0.00    -0.024 A 
ATOM     32  C   UNL     1       3.817   2.827  -5.223  0.00  0.00    +0.008 A 
ATOM     33  C   UNL     1       4.057   0.566  -4.177  0.00  0.00    +0.046 C 
ATOM     34  C   UNL     1      -0.444   2.576  -5.043  0.00  0.00    +0.046 C 
ENDBRANCH  23  30
ENDBRANCH  21  23
ENDBRANCH  20  21
ENDBRANCH   1  20
TORSDOF 6
