REMARK  Name = ZINC40323082
REMARK  7 active torsions:
REMARK  status: ('A' for Active; 'I' for Inactive)
REMARK    1  A    between atoms: C_3  and  C_6
REMARK    2  A    between atoms: C_6  and  C_8
REMARK    3  A    between atoms: C_6  and  N_27
REMARK    4  A    between atoms: C_8  and  N_9
REMARK    5  A    between atoms: C_10  and  C_12
REMARK    6  A    between atoms: C_15  and  S_17
REMARK    7  A    between atoms: S_17  and  C_20
REMARK                            x       y       z     vdW  Elec       q    Type
REMARK                         _______ _______ _______ _____ _____    ______ ____
ROOT
ATOM      1  N   UNL     1       5.600  -0.134   1.208  0.00  0.00    -0.310 N 
ATOM      2  C   UNL     1       6.286  -0.612   2.265  0.00  0.00    +0.279 C 
ATOM      3  O   UNL     1       5.731  -0.744   3.340  0.00  0.00    -0.267 OA
ATOM      4  H   UNL     1       6.042  -0.028   0.351  0.00  0.00    +0.149 HD
ENDROOT
BRANCH   2   5
ATOM      5  C   UNL     1       7.699  -0.973   2.119  0.00  0.00    +0.192 A 
ATOM      6  C   UNL     1       8.506  -1.471   3.103  0.00  0.00    +0.056 A 
ATOM      7  C   UNL     1       9.769  -1.672   2.525  0.00  0.00    +0.070 A 
ATOM      8  C   UNL     1       9.680  -1.292   1.231  0.00  0.00    +0.246 A 
ATOM      9  O   UNL     1       8.430  -0.876   0.989  0.00  0.00    -0.433 OA
BRANCH   8  10
ATOM     10  S   UNL     1      10.991  -1.342   0.055  0.00  0.00    +0.058 S 
ATOM     11  O   UNL     1      10.673  -0.385  -0.947  0.00  0.00    -0.161 OA
ATOM     12  O   UNL     1      12.203  -1.296   0.795  0.00  0.00    -0.161 OA
BRANCH  10  13
ATOM     13  C   UNL     1      10.934  -2.922  -0.722  0.00  0.00    +0.097 A 
ATOM     14  C   UNL     1      11.643  -3.981  -0.186  0.00  0.00    +0.028 A 
ATOM     15  C   UNL     1      11.599  -5.221  -0.794  0.00  0.00    +0.017 A 
ATOM     16  C   UNL     1      10.845  -5.403  -1.940  0.00  0.00    +0.018 A 
ATOM     17  C   UNL     1      10.136  -4.343  -2.476  0.00  0.00    +0.017 A 
ATOM     18  C   UNL     1      10.177  -3.104  -1.864  0.00  0.00    +0.028 A 
ATOM     19 BR   UNL     1      10.785  -7.099  -2.774  0.00  0.00    -0.050 Br
ENDBRANCH  10  13
ENDBRANCH   8  10
ENDBRANCH   2   5
BRANCH   1  20
ATOM     20  C   UNL     1       4.188   0.227   1.353  0.00  0.00    +0.097 C 
BRANCH  20  21
ATOM     21  C   UNL     1       3.623   0.638  -0.008  0.00  0.00    +0.016 C 
BRANCH  21  22
ATOM     22  N   UNL     1       4.453   1.708  -0.579  0.00  0.00    +0.387 N 
ATOM     23  C   UNL     1       4.443   2.867   0.322  0.00  0.00    -0.078 C 
ATOM     24  C   UNL     1       5.370   3.953  -0.228  0.00  0.00    -0.019 C 
ATOM     25  C   UNL     1       4.882   4.379  -1.615  0.00  0.00    -0.004 C 
ATOM     26  C   UNL     1       4.825   3.149  -2.526  0.00  0.00    -0.019 C 
ATOM     27  C   UNL     1       3.918   2.092  -1.891  0.00  0.00    -0.078 C 
ATOM     28  H   UNL     1       5.400   1.376  -0.687  0.00  0.00    -0.081 HD
ENDBRANCH  21  22
BRANCH  21  31
ATOM     29  C   UNL     1       3.022  -2.316  -2.128  0.00  0.00    +0.041 A 
ATOM     30  C   UNL     1       2.570  -1.326  -1.225  0.00  0.00    +0.043 A 
ATOM     31  C   UNL     1       3.629  -0.550  -0.934  0.00  0.00    +0.093 A 
ATOM     32  O   UNL     1       4.693  -1.015  -1.610  0.00  0.00    -0.469 OA
ATOM     33  C   UNL     1       4.331  -2.085  -2.336  0.00  0.00    +0.195 A 
ENDBRANCH  21  31
ENDBRANCH  20  21
ENDBRANCH   1  20
TORSDOF 7
