REMARK  Name = ZINC63588620
REMARK  7 active torsions:
REMARK  status: ('A' for Active; 'I' for Inactive)
REMARK    1  A    between atoms: C_1  and  C_2
REMARK    2  A    between atoms: C_7  and  N_8
REMARK    3  A    between atoms: N_10  and  C_11
REMARK    4  A    between atoms: C_11  and  C_12
REMARK    5  A    between atoms: C_12  and  C_13
REMARK    6  A    between atoms: N_22  and  C_23
REMARK    7  A    between atoms: C_23  and  C_25
REMARK                            x       y       z     vdW  Elec       q    Type
REMARK                         _______ _______ _______ _____ _____    ______ ____
ROOT
ATOM      1  N   UNL     1      -1.076  -0.738   3.233  0.00  0.00    -0.328 N 
ATOM      2  C   UNL     1      -0.203  -0.972   4.257  0.00  0.00    +0.194 C 
ATOM      3  N   UNL     1       0.239   0.064   5.026  0.00  0.00    -0.357 N 
ATOM      4  N   UNL     1       0.214  -2.204   4.503  0.00  0.00    -0.143 NA
ATOM      5  H   UNL     1       0.889  -0.096   5.728  0.00  0.00    +0.162 HD
ATOM      6  H   UNL     1      -2.006  -1.001   3.318  0.00  0.00    +0.169 HD
ENDROOT
BRANCH   1  13
ATOM      7  C   UNL     1      -3.010  -0.004   1.280  0.00  0.00    +0.046 C 
ATOM      8  C   UNL     1      -1.539   0.255   1.081  0.00  0.00    -0.027 A 
ATOM      9  C   UNL     1      -1.095   0.870  -0.073  0.00  0.00    +0.005 A 
ATOM     10  C   UNL     1       0.255   1.108  -0.256  0.00  0.00    +0.000 A 
ATOM     11  C   UNL     1       1.164   0.731   0.715  0.00  0.00    +0.002 A 
ATOM     12  C   UNL     1       0.727   0.115   1.871  0.00  0.00    +0.026 A 
ATOM     13  C   UNL     1      -0.629  -0.120   2.060  0.00  0.00    +0.045 A 
ENDBRANCH   1  13
BRANCH   4  14
ATOM     14  C   UNL     1      -0.070  -3.192   3.642  0.00  0.00    +0.270 C 
ATOM     15  O   UNL     1      -0.603  -2.937   2.576  0.00  0.00    -0.268 OA
BRANCH  14  16
ATOM     16  C   UNL     1       0.266  -4.591   3.985  0.00  0.00    +0.043 A 
ATOM     17  C   UNL     1       0.767  -4.900   5.251  0.00  0.00    +0.017 A 
ATOM     18  C   UNL     1       1.079  -6.204   5.570  0.00  0.00    +0.050 A 
ATOM     19  C   UNL     1       0.896  -7.214   4.635  0.00  0.00    +0.166 A 
ATOM     20  C   UNL     1       0.396  -6.912   3.368  0.00  0.00    +0.167 A 
ATOM     21  C   UNL     1       0.076  -5.607   3.046  0.00  0.00    +0.062 A 
ATOM     22  O   UNL     1       0.312  -8.067   2.646  0.00  0.00    -0.453 OA
ATOM     23  C   UNL     1       1.147  -9.014   3.339  0.00  0.00    +0.466 C 
ATOM     24  O   UNL     1       1.124  -8.557   4.704  0.00  0.00    -0.453 OA
ENDBRANCH  14  16
ENDBRANCH   4  14
BRANCH   3  25
ATOM     25  C   UNL     1      -0.269   1.418   4.793  0.00  0.00    +0.120 C 
BRANCH  25  26
ATOM     26  C   UNL     1       0.418   2.393   5.752  0.00  0.00    +0.054 C 
BRANCH  26  27
ATOM     27  C   UNL     1      -0.186   3.764   5.594  0.00  0.00    -0.040 C 
ATOM     28  C   UNL     1      -1.313   4.228   6.181  0.00  0.00    -0.001 A 
ATOM     29  C   UNL     1      -2.276   3.618   7.106  0.00  0.00    +0.010 A 
ATOM     30  C   UNL     1      -3.332   4.350   7.530  0.00  0.00    +0.001 A 
ATOM     31  C   UNL     1      -3.529   5.672   7.109  0.00  0.00    +0.002 A 
ATOM     32  C   UNL     1      -2.688   6.301   6.261  0.00  0.00    +0.026 A 
ATOM     33  C   UNL     1      -1.544   5.626   5.752  0.00  0.00    +0.043 A 
ATOM     34  N   UNL     1      -0.596   6.011   4.932  0.00  0.00    -0.380 N 
ATOM     35  C   UNL     1       0.347   4.901   4.752  0.00  0.00    +0.144 C 
ATOM     36  H   UNL     1      -0.528   6.885   4.516  0.00  0.00    +0.160 HD
ENDBRANCH  26  27
ENDBRANCH  25  26
ENDBRANCH   3  25
TORSDOF 6
