REMARK  Name = ZINC35307544
REMARK  9 active torsions:
REMARK  status: ('A' for Active; 'I' for Inactive)
REMARK    1  A    between atoms: C_1  and  C_2
REMARK    2  A    between atoms: C_5  and  C_8
REMARK    3  A    between atoms: C_14  and  C_16
REMARK    4  A    between atoms: C_16  and  C_18
REMARK    5  A    between atoms: C_16  and  N_25
REMARK    6  A    between atoms: C_18  and  C_19
REMARK    7  A    between atoms: N_28  and  C_29
REMARK    8  A    between atoms: C_32  and  C_36
REMARK    9  A    between atoms: C_34  and  C_35
REMARK                            x       y       z     vdW  Elec       q    Type
REMARK                         _______ _______ _______ _____ _____    ______ ____
ROOT
ATOM      1  C   UNL     1       0.130 -10.566   0.397  0.00  0.00    +0.165 C 
ENDROOT
BRANCH   1   8
ATOM      2  C   UNL     1      -0.002  -4.247  -0.033  0.00  0.00    +0.134 A 
ATOM      3  N   UNL     1       0.015  -5.093  -1.055  0.00  0.00    -0.140 NA
ATOM      4  N   UNL     1       0.041  -6.334  -0.819  0.00  0.00    -0.125 NA
ATOM      5  C   UNL     1       0.052  -6.810   0.412  0.00  0.00    +0.188 A 
ATOM      6  S   UNL     1       0.030  -5.398   1.333  0.00  0.00    -0.030 S 
ATOM      7  N   UNL     1       0.080  -8.133   0.839  0.00  0.00    -0.262 N 
ATOM      8  C   UNL     1       0.100  -9.132  -0.065  0.00  0.00    +0.239 C 
ATOM      9  O   UNL     1       0.094  -8.877  -1.251  0.00  0.00    -0.273 OA
ATOM     10  H   UNL     1       0.084  -8.336   1.787  0.00  0.00    +0.157 HD
BRANCH   2  15
ATOM     11  C   UNL     1      -0.121   1.507  -0.009  0.00  0.00    +0.044 C 
ATOM     12  C   UNL     1      -0.090  -0.000  -0.015  0.00  0.00    -0.050 A 
ATOM     13  C   UNL     1      -0.083  -0.684  -1.218  0.00  0.00    +0.004 A 
ATOM     14  C   UNL     1      -0.054  -2.063  -1.231  0.00  0.00    +0.011 A 
ATOM     15  C   UNL     1      -0.033  -2.769  -0.027  0.00  0.00    +0.009 A 
ATOM     16  C   UNL     1      -0.040  -2.073   1.183  0.00  0.00    +0.011 A 
ATOM     17  C   UNL     1      -0.063  -0.694   1.182  0.00  0.00    +0.004 A 
ENDBRANCH   2  15
ENDBRANCH   1   8
BRANCH   1  18
ATOM     18  N   UNL     1       0.148 -11.454  -0.767  0.00  0.00    -0.288 N 
ATOM     19  C   UNL     1      -0.319 -12.714  -0.661  0.00  0.00    +0.304 C 
ATOM     20  O   UNL     1      -0.755 -13.113   0.401  0.00  0.00    -0.252 OA
ATOM     21  N   UNL     1      -0.302 -13.531  -1.733  0.00  0.00    -0.269 N 
ATOM     22  H   UNL     1       0.496 -11.136  -1.615  0.00  0.00    +0.151 HD
ATOM     23  H   UNL     1      -0.016 -13.194  -2.596  0.00  0.00    +0.156 HD
BRANCH  21  24
ATOM     24  C   UNL     1      -0.699 -14.867  -1.600  0.00  0.00    +0.038 A 
ATOM     25  C   UNL     1      -1.717 -15.207  -0.719  0.00  0.00    +0.024 A 
ATOM     26  C   UNL     1      -2.106 -16.526  -0.590  0.00  0.00    +0.005 A 
ATOM     27  C   UNL     1      -1.482 -17.508  -1.338  0.00  0.00    -0.050 A 
ATOM     28  C   UNL     1      -0.468 -17.173  -2.216  0.00  0.00    +0.008 A 
ATOM     29  C   UNL     1      -0.078 -15.855  -2.353  0.00  0.00    -0.029 A 
ATOM     30  C   UNL     1       1.023 -15.490  -3.315  0.00  0.00    +0.045 C 
ATOM     31  C   UNL     1      -1.909 -18.946  -1.195  0.00  0.00    +0.044 C 
ENDBRANCH  21  24
ENDBRANCH   1  18
BRANCH   1  32
ATOM     32  C   UNL     1       1.385 -10.804   1.240  0.00  0.00    +0.067 C 
BRANCH  32  33
ATOM     33  C   UNL     1       1.354 -12.201   1.804  0.00  0.00    -0.045 A 
ATOM     34  C   UNL     1       0.760 -12.439   3.029  0.00  0.00    +0.004 A 
ATOM     35  C   UNL     1       0.732 -13.720   3.546  0.00  0.00    +0.000 A 
ATOM     36  C   UNL     1       1.297 -14.764   2.838  0.00  0.00    +0.000 A 
ATOM     37  C   UNL     1       1.889 -14.527   1.612  0.00  0.00    +0.000 A 
ATOM     38  C   UNL     1       1.914 -13.246   1.093  0.00  0.00    +0.004 A 
ENDBRANCH  32  33
ENDBRANCH   1  32
TORSDOF 6
