REMARK  Name = ZINC04736450
REMARK  8 active torsions:
REMARK  status: ('A' for Active; 'I' for Inactive)
REMARK    1  A    between atoms: C_1  and  C_2
REMARK    2  A    between atoms: C_8  and  C_10
REMARK    3  A    between atoms: C_10  and  C_12
REMARK    4  A    between atoms: C_10  and  S_13
REMARK    5  A    between atoms: S_13  and  C_14
REMARK    6  A    between atoms: C_17  and  C_22
REMARK    7  A    between atoms: N_18  and  C_19
REMARK    8  A    between atoms: C_19  and  C_20
REMARK                            x       y       z     vdW  Elec       q    Type
REMARK                         _______ _______ _______ _____ _____    ______ ____
ROOT
ATOM      1  C   UNL     1       3.900   5.532  -0.172  0.00  0.00    +0.193 A 
ATOM      2  N   UNL     1       4.502   4.373  -0.024  0.00  0.00    -0.122 NA
ATOM      3  N   UNL     1       3.632   3.442   0.142  0.00  0.00    -0.128 NA
ATOM      4  C   UNL     1       2.421   3.948   0.111  0.00  0.00    +0.168 A 
ATOM      5  N   UNL     1       2.555   5.302  -0.096  0.00  0.00    -0.298 N 
ENDROOT
BRANCH   4   6
ATOM      6  C   UNL     1       1.153   3.204   0.264  0.00  0.00    +0.054 A 
ATOM      7  C   UNL     1       0.110   3.404  -0.640  0.00  0.00    +0.014 A 
ATOM      8  C   UNL     1      -1.071   2.707  -0.492  0.00  0.00    +0.001 A 
ATOM      9  C   UNL     1      -1.226   1.814   0.553  0.00  0.00    +0.003 A 
ATOM     10  C   UNL     1      -0.195   1.605   1.451  0.00  0.00    +0.039 A 
ATOM     11  C   UNL     1       0.994   2.296   1.315  0.00  0.00    +0.134 A 
ATOM     12  F   UNL     1       2.000   2.095   2.195  0.00  0.00    -0.205 F 
ENDBRANCH   4   6
BRANCH   1  13
ATOM     13  S   UNL     1       4.681   7.090  -0.426  0.00  0.00    -0.073 S 
BRANCH  13  14
ATOM     14  C   UNL     1       6.417   6.578  -0.412  0.00  0.00    +0.137 C 
ATOM     15  C   UNL     1       6.780   6.045   0.975  0.00  0.00    +0.029 C 
BRANCH  14  23
ATOM     16  C   UNL     1      12.243  11.336  -2.730  0.00  0.00    +0.075 C 
ATOM     17  C   UNL     1      11.094  10.477  -2.269  0.00  0.00    +0.101 A 
ATOM     18  N   UNL     1       9.932  10.826  -1.752  0.00  0.00    -0.145 NA
ATOM     19  N   UNL     1       9.086   9.949  -1.423  0.00  0.00    -0.126 NA
ATOM     20  C   UNL     1       9.321   8.658  -1.580  0.00  0.00    +0.188 A 
ATOM     21  S   UNL     1      10.920   8.697  -2.262  0.00  0.00    -0.036 S 
ATOM     22  N   UNL     1       8.513   7.566  -1.277  0.00  0.00    -0.262 N 
ATOM     23  C   UNL     1       7.292   7.760  -0.741  0.00  0.00    +0.232 C 
ATOM     24  O   UNL     1       6.897   8.886  -0.522  0.00  0.00    -0.274 OA
ATOM     25  H   UNL     1       8.829   6.666  -1.452  0.00  0.00    +0.157 HD
ENDBRANCH  14  23
ENDBRANCH  13  14
ENDBRANCH   1  13
BRANCH   5  26
ATOM     26  C   UNL     1       1.480   6.290  -0.210  0.00  0.00    +0.152 C 
BRANCH  26  27
ATOM     27  C   UNL     1       1.143   6.824   1.158  0.00  0.00    -0.013 C 
ATOM     28  C   UNL     1       1.172   8.115   1.383  0.00  0.00    +0.005 C 
ENDBRANCH  26  27
ENDBRANCH   5  26
TORSDOF 6
