REMARK  Name = ZINC14537649
REMARK  12 active torsions:
REMARK  status: ('A' for Active; 'I' for Inactive)
REMARK    1  A    between atoms: C_1  and  C_2
REMARK    2  A    between atoms: C_3  and  C_8
REMARK    3  A    between atoms: C_8  and  N_9
REMARK    4  A    between atoms: N_17  and  C_31
REMARK    5  A    between atoms: N_20  and  C_21
REMARK    6  A    between atoms: C_21  and  C_22
REMARK    7  A    between atoms: C_22  and  C_23
REMARK    8  A    between atoms: C_26  and  O_29
REMARK    9  A    between atoms: O_29  and  C_30
REMARK   10  A    between atoms: C_31  and  C_32
REMARK   11  A    between atoms: C_32  and  C_33
REMARK   12  A    between atoms: C_32  and  C_34
REMARK                            x       y       z     vdW  Elec       q    Type
REMARK                         _______ _______ _______ _____ _____    ______ ____
ROOT
ATOM      1  N   UNL     1       1.920   0.255  -3.531  0.00  0.00    -0.297 NA
ATOM      2  C   UNL     1       1.287  -0.557  -2.485  0.00  0.00    +0.087 C 
ATOM      3  C   UNL     1       1.221  -2.017  -2.943  0.00  0.00    +0.051 C 
ATOM      4  C   UNL     1       2.631  -2.516  -3.242  0.00  0.00    +0.118 C 
ATOM      5  C   UNL     1       3.304  -1.622  -4.279  0.00  0.00    +0.051 C 
ATOM      6  C   UNL     1       3.303  -0.175  -3.777  0.00  0.00    +0.087 C 
ATOM      7  C   UNL     1       2.594  -3.948  -3.723  0.00  0.00    +0.247 C 
ATOM      8  O   UNL     1       2.040  -4.376  -4.713  0.00  0.00    -0.273 OA
ATOM      9  N   UNL     1       3.307  -4.650  -2.818  0.00  0.00    -0.224 N 
ATOM     10  C   UNL     1       3.781  -3.862  -1.846  0.00  0.00    +0.312 C 
ATOM     11  O   UNL     1       4.454  -4.265  -0.917  0.00  0.00    -0.252 OA
ATOM     12  N   UNL     1       3.430  -2.572  -2.012  0.00  0.00    -0.270 N 
ENDROOT
BRANCH   1  13
ATOM     13  C   UNL     1       1.866   1.684  -3.193  0.00  0.00    +0.139 C 
BRANCH  13  16
ATOM     14  C   UNL     1       0.065   2.347  -5.666  0.00  0.00    +0.065 C 
ATOM     15  C   UNL     1      -0.349   2.423  -4.219  0.00  0.00    +0.035 A 
ATOM     16  C   UNL     1       0.429   2.138  -3.158  0.00  0.00    +0.050 A 
ATOM     17  N   UNL     1      -0.335   2.338  -2.040  0.00  0.00    -0.349 N 
ATOM     18  H   UNL     1      -0.054   2.215  -1.120  0.00  0.00    +0.166 HD
ATOM     19  C   UNL     1      -1.555   2.740  -2.458  0.00  0.00    +0.171 A 
ATOM     20  N   UNL     1      -1.554   2.793  -3.762  0.00  0.00    -0.350 N 
ATOM     21  H   UNL     1      -2.307   3.057  -4.314  0.00  0.00    +0.166 HD
ENDBRANCH  13  16
ENDBRANCH   1  13
BRANCH  12  22
ATOM     22  C   UNL     1       3.777  -1.448  -1.139  0.00  0.00    +0.115 C 
BRANCH  22  23
ATOM     23  C   UNL     1       5.287  -1.210  -1.190  0.00  0.00    +0.054 C 
BRANCH  23  24
ATOM     24  C   UNL     1       5.659  -0.130  -0.207  0.00  0.00    -0.046 A 
ATOM     25  C   UNL     1       5.569   1.200  -0.575  0.00  0.00    +0.007 A 
ATOM     26  C   UNL     1       5.909   2.191   0.325  0.00  0.00    +0.046 A 
ATOM     27  C   UNL     1       6.341   1.852   1.599  0.00  0.00    +0.120 A 
ATOM     28  C   UNL     1       6.430   0.517   1.966  0.00  0.00    +0.046 A 
ATOM     29  C   UNL     1       6.084  -0.470   1.064  0.00  0.00    +0.007 A 
BRANCH  27  30
ATOM     30  O   UNL     1       6.677   2.826   2.485  0.00  0.00    -0.495 OA
ATOM     31  C   UNL     1       7.114   2.403   3.778  0.00  0.00    +0.277 C 
ENDBRANCH  27  30
ENDBRANCH  23  24
ENDBRANCH  22  23
ENDBRANCH  12  22
BRANCH   9  32
ATOM     32  C   UNL     1       3.535  -6.096  -2.891  0.00  0.00    +0.121 C 
BRANCH  32  33
ATOM     33  C   UNL     1       4.813  -6.371  -3.685  0.00  0.00    +0.001 C 
ATOM     34  C   UNL     1       6.016  -5.810  -2.925  0.00  0.00    +0.009 C 
ATOM     35  C   UNL     1       4.984  -7.881  -3.868  0.00  0.00    +0.009 C 
ENDBRANCH  32  33
ENDBRANCH   9  32
TORSDOF 8
