REMARK  Name = ZINC45860728
REMARK  5 active torsions:
REMARK  status: ('A' for Active; 'I' for Inactive)
REMARK    1  A    between atoms: C_1  and  C_2
REMARK    2  A    between atoms: C_7  and  C_8
REMARK    3  A    between atoms: N_10  and  N_11
REMARK    4  A    between atoms: N_14  and  C_15
REMARK    5  A    between atoms: C_20  and  C_23
REMARK                            x       y       z     vdW  Elec       q    Type
REMARK                         _______ _______ _______ _____ _____    ______ ____
ROOT
ATOM      1  N   UNL     1       0.573   0.035   4.838  0.00  0.00    -0.218 N 
ATOM      2  C   UNL     1       0.796  -0.642   5.982  0.00  0.00    +0.316 C 
ATOM      3  O   UNL     1       0.890  -0.042   7.036  0.00  0.00    -0.251 OA
ATOM      4  N   UNL     1       0.915  -1.985   5.958  0.00  0.00    -0.295 N 
ATOM      5  H   UNL     1       0.488   1.001   4.856  0.00  0.00    +0.174 HD
ATOM      6  H   UNL     1       0.840  -2.463   5.118  0.00  0.00    +0.151 HD
ENDROOT
BRANCH   4   7
ATOM      7  C   UNL     1       1.157  -2.721   7.201  0.00  0.00    +0.075 C 
ATOM      8  C   UNL     1       2.658  -2.740   7.498  0.00  0.00    +0.022 C 
ATOM      9  C   UNL     1       3.397  -3.425   6.348  0.00  0.00    +0.002 C 
ATOM     10  C   UNL     1       2.888  -4.861   6.198  0.00  0.00    +0.012 C 
ATOM     11  C   UNL     1       1.387  -4.841   5.900  0.00  0.00    +0.095 C 
ATOM     12  C   UNL     1       0.648  -4.156   7.051  0.00  0.00    +0.034 C 
BRANCH  11  13
ATOM     13  C   UNL     1       0.879  -6.277   5.750  0.00  0.00    +0.393 C 
ATOM     14  F   UNL     1       1.110  -6.980   6.937  0.00  0.00    -0.170 F 
ATOM     15  F   UNL     1      -0.493  -6.259   5.478  0.00  0.00    -0.170 F 
ATOM     16  F   UNL     1       1.555  -6.903   4.698  0.00  0.00    -0.170 F 
ENDBRANCH  11  13
ENDBRANCH   4   7
BRANCH   1  19
ATOM     17  C   UNL     1       0.242   0.021   2.481  0.00  0.00    +0.260 C 
ATOM     18  O   UNL     1       0.135   1.232   2.503  0.00  0.00    -0.269 OA
ATOM     19  N   UNL     1       0.465  -0.656   3.625  0.00  0.00    -0.229 N 
ATOM     20  H   UNL     1       0.550  -1.622   3.607  0.00  0.00    +0.173 HD
BRANCH  17  27
ATOM     21  C   UNL     1      -0.511   1.452   0.082  0.00  0.00    +0.044 C 
ATOM     22  C   UNL     1      -0.235  -0.028   0.036  0.00  0.00    -0.038 A 
ATOM     23  C   UNL     1      -0.334  -0.714  -1.157  0.00  0.00    +0.004 A 
ATOM     24  C   UNL     1      -0.079  -2.073  -1.200  0.00  0.00    +0.000 A 
ATOM     25  C   UNL     1       0.275  -2.754  -0.049  0.00  0.00    +0.001 A 
ATOM     26  C   UNL     1       0.378  -2.080   1.150  0.00  0.00    +0.013 A 
ATOM     27  C   UNL     1       0.128  -0.708   1.200  0.00  0.00    +0.041 A 
ENDBRANCH  17  27
ENDBRANCH   1  19
TORSDOF 4
