REMARK  Name = ZINC58392753
REMARK  12 active torsions:
REMARK  status: ('A' for Active; 'I' for Inactive)
REMARK    1  A    between atoms: C_1  and  C_2
REMARK    2  A    between atoms: C_5  and  C_38
REMARK    3  A    between atoms: N_8  and  C_10
REMARK    4  A    between atoms: C_10  and  C_11
REMARK    5  A    between atoms: C_10  and  C_12
REMARK    6  A    between atoms: C_10  and  C_13
REMARK    7  A    between atoms: C_13  and  N_14
REMARK    8  A    between atoms: C_15  and  C_17
REMARK    9  A    between atoms: C_17  and  C_19
REMARK   10  A    between atoms: C_17  and  N_30
REMARK   11  A    between atoms: C_19  and  C_20
REMARK   12  A    between atoms: C_31  and  C_33
REMARK                            x       y       z     vdW  Elec       q    Type
REMARK                         _______ _______ _______ _____ _____    ______ ____
ROOT
ATOM      1  C   UNL     1      -1.703  -0.687   4.370  0.00  0.00    +0.163 C 
ENDROOT
BRANCH   1   3
ATOM      2  N   UNL     1       0.625  -0.480   3.560  0.00  0.00    -0.315 N 
ATOM      3  C   UNL     1      -0.331  -0.065   4.415  0.00  0.00    +0.234 C 
ATOM      4  O   UNL     1      -0.087   0.809   5.220  0.00  0.00    -0.274 OA
ATOM      5  H   UNL     1       0.430  -1.178   2.916  0.00  0.00    +0.149 HD
BRANCH   2   6
ATOM      6  C   UNL     1       1.959   0.125   3.603  0.00  0.00    +0.092 C 
BRANCH   6   7
ATOM      7  C   UNL     1       2.877  -0.595   2.614  0.00  0.00    -0.055 C 
ATOM      8  C   UNL     1       4.290  -0.018   2.717  0.00  0.00    -0.008 C 
ATOM      9  C   UNL     1       2.349  -0.398   1.191  0.00  0.00    -0.008 C 
BRANCH   7  15
ATOM     10  C   UNL     1       1.911  -4.214   4.557  0.00  0.00    +0.005 C 
ATOM     11  C   UNL     1       3.348  -3.701   4.667  0.00  0.00    -0.031 C 
ATOM     12  C   UNL     1       4.245  -4.481   3.702  0.00  0.00    +0.003 C 
ATOM     13  C   UNL     1       3.780  -4.221   2.266  0.00  0.00    -0.031 C 
ATOM     14  C   UNL     1       3.806  -2.716   1.992  0.00  0.00    -0.075 C 
ATOM     15  N   UNL     1       2.909  -2.029   2.930  0.00  0.00    +0.384 N 
ATOM     16  C   UNL     1       3.389  -2.215   4.306  0.00  0.00    -0.075 C 
ATOM     17  C   UNL     1       4.717  -4.935   1.289  0.00  0.00    +0.005 C 
ATOM     18  H   UNL     1       1.979  -2.411   2.845  0.00  0.00    -0.081 HD
ENDBRANCH   7  15
ENDBRANCH   6   7
ENDBRANCH   2   6
ENDBRANCH   1   3
BRANCH   1  19
ATOM     19  N   UNL     1      -2.666   0.209   5.016  0.00  0.00    -0.299 N 
ATOM     20  C   UNL     1      -2.505   0.551   6.310  0.00  0.00    +0.251 C 
ATOM     21  O   UNL     1      -1.560   0.117   6.941  0.00  0.00    -0.270 OA
ATOM     22  H   UNL     1      -3.419   0.555   4.513  0.00  0.00    +0.150 HD
BRANCH  20  23
ATOM     23  C   UNL     1      -3.469   1.447   6.956  0.00  0.00    +0.074 A 
ATOM     24  C   UNL     1      -3.484   1.921   8.259  0.00  0.00    +0.021 A 
ATOM     25  C   UNL     1      -4.528   2.756   8.578  0.00  0.00    +0.008 A 
ATOM     26  C   UNL     1      -5.448   3.054   7.628  0.00  0.00    +0.046 A 
ATOM     27  S   UNL     1      -4.923   2.216   6.269  0.00  0.00    -0.092 S 
ENDBRANCH  20  23
ENDBRANCH   1  19
BRANCH   1  28
ATOM     28  C   UNL     1      -1.679  -2.027   5.107  0.00  0.00    +0.069 C 
BRANCH  28  29
ATOM     29  C   UNL     1      -3.017  -2.706   4.959  0.00  0.00    -0.020 A 
ATOM     30  C   UNL     1      -4.042  -2.648   5.823  0.00  0.00    +0.087 A 
ATOM     31  N   UNL     1      -5.091  -3.390   5.352  0.00  0.00    -0.360 N 
ATOM     32  H   UNL     1      -5.943  -3.499   5.804  0.00  0.00    +0.165 HD
ATOM     33  C   UNL     1      -4.758  -3.958   4.143  0.00  0.00    +0.047 A 
ATOM     34  C   UNL     1      -3.446  -3.549   3.841  0.00  0.00    +0.003 A 
ATOM     35  C   UNL     1      -2.840  -3.974   2.657  0.00  0.00    +0.010 A 
ATOM     36  C   UNL     1      -3.527  -4.782   1.795  0.00  0.00    +0.001 A 
ATOM     37  C   UNL     1      -4.823  -5.184   2.087  0.00  0.00    +0.002 A 
ATOM     38  C   UNL     1      -5.436  -4.785   3.254  0.00  0.00    +0.026 A 
ENDBRANCH  28  29
ENDBRANCH   1  28
TORSDOF 8
