REMARK  Name = ZINC20679742
REMARK  4 active torsions:
REMARK  status: ('A' for Active; 'I' for Inactive)
REMARK    1  A    between atoms: C_1  and  O_2
REMARK    2  A    between atoms: O_2  and  C_3
REMARK    3  A    between atoms: C_10  and  C_19
REMARK    4  A    between atoms: C_22  and  O_25
REMARK                            x       y       z     vdW  Elec       q    Type
REMARK                         _______ _______ _______ _____ _____    ______ ____
ROOT
ATOM      1  C   UNL     1       5.495   1.321  -2.050  0.00  0.00    +0.141 A 
ATOM      2  C   UNL     1       6.750   0.744  -2.115  0.00  0.00    +0.047 A 
ATOM      3  C   UNL     1       7.213  -0.011  -1.053  0.00  0.00    +0.004 A 
ATOM      4  C   UNL     1       6.426  -0.186   0.066  0.00  0.00    +0.006 A 
ATOM      5  C   UNL     1       5.162   0.388   0.143  0.00  0.00    -0.016 A 
ATOM      6  C   UNL     1       4.696   1.145  -0.915  0.00  0.00    +0.074 A 
ATOM      7  N   UNL     1       3.425   1.734  -0.907  0.00  0.00    -0.334 N 
ATOM      8  C   UNL     1       2.490   1.045  -0.016  0.00  0.00    +0.105 C 
ATOM      9  C   UNL     1       3.071   1.006   1.399  0.00  0.00    +0.029 C 
ATOM     10  C   UNL     1       4.358   0.154   1.387  0.00  0.00    +0.049 C 
ATOM     11  C   UNL     1       3.858  -1.270   1.456  0.00  0.00    -0.023 C 
ATOM     12  C   UNL     1       2.640  -1.306   1.936  0.00  0.00    -0.030 C 
ATOM     13  C   UNL     1       2.156   0.093   2.263  0.00  0.00    +0.033 C 
ATOM     14  H   UNL     1       3.093   2.613  -1.478  0.00  0.00    +0.147 HD
ENDROOT
BRANCH   8  15
ATOM     15  C   UNL     1       1.176   1.783   0.000  0.00  0.00    -0.027 A 
ATOM     16  C   UNL     1      -0.013   1.076   0.008  0.00  0.00    +0.009 A 
ATOM     17  C   UNL     1      -1.218   1.750   0.017  0.00  0.00    +0.046 A 
ATOM     18  C   UNL     1      -1.237   3.137   0.031  0.00  0.00    +0.117 A 
ATOM     19  C   UNL     1      -0.043   3.844   0.024  0.00  0.00    +0.046 A 
ATOM     20  C   UNL     1       1.160   3.165   0.008  0.00  0.00    +0.009 A 
BRANCH  18  21
ATOM     21  O   UNL     1      -2.422   3.802   0.045  0.00  0.00    -0.507 OA
ATOM     22  H   UNL     1      -2.435   4.902   0.056  0.00  0.00    +0.292 HD
ENDBRANCH  18  21
ENDBRANCH   8  15
BRANCH   1  24
ATOM     23  C   UNL     1       5.902   2.203  -4.221  0.00  0.00    +0.277 C 
ATOM     24  O   UNL     1       5.036   2.063  -3.093  0.00  0.00    -0.493 OA
ENDBRANCH   1  24
TORSDOF 3
