REMARK  Name = ZINC39533976
REMARK  11 active torsions:
REMARK  status: ('A' for Active; 'I' for Inactive)
REMARK    1  A    between atoms: C_1  and  C_2
REMARK    2  A    between atoms: C_2  and  O_3
REMARK    3  A    between atoms: O_3  and  N_4
REMARK    4  A    between atoms: N_4  and  C_5
REMARK    5  A    between atoms: C_5  and  C_6
REMARK    6  A    between atoms: C_6  and  C_8
REMARK    7  A    between atoms: C_6  and  N_21
REMARK    8  A    between atoms: C_11  and  C_14
REMARK    9  A    between atoms: C_19  and  O_20
REMARK   10  A    between atoms: C_25  and  C_28
REMARK   11  A    between atoms: C_33  and  O_34
REMARK                            x       y       z     vdW  Elec       q    Type
REMARK                         _______ _______ _______ _____ _____    ______ ____
ROOT
ATOM      1  C   UNL     1       1.616  -3.843  -2.529  0.00  0.00    +0.103 C 
ENDROOT
BRANCH   1   2
ATOM      2  N   UNL     1       0.290  -4.472  -2.473  0.00  0.00    -0.297 NA
ATOM      3  C   UNL     1      -0.730  -3.606  -3.083  0.00  0.00    +0.066 C 
ATOM      4  C   UNL     1      -2.083  -4.322  -3.058  0.00  0.00    -0.066 C 
ATOM      5  N   UNL     1      -2.447  -4.633  -1.669  0.00  0.00    +0.385 N 
ATOM      6  C   UNL     1      -1.432  -5.518  -1.082  0.00  0.00    -0.023 C 
ATOM      7  C   UNL     1      -0.074  -4.813  -1.090  0.00  0.00    +0.074 C 
ATOM      8  H   UNL     1      -2.497  -3.779  -1.135  0.00  0.00    -0.085 HD
ATOM      9  H   UNL     1      -3.344  -5.094  -1.653  0.00  0.00    -0.085 HD
BRANCH   6  10
ATOM     10  C   UNL     1      -1.816  -5.851   0.336  0.00  0.00    -0.019 A 
ATOM     11  C   UNL     1      -2.714  -5.051   1.016  0.00  0.00    +0.005 A 
ATOM     12  C   UNL     1      -3.067  -5.355   2.317  0.00  0.00    +0.000 A 
ATOM     13  C   UNL     1      -2.523  -6.462   2.942  0.00  0.00    +0.004 A 
ATOM     14  C   UNL     1      -1.625  -7.266   2.267  0.00  0.00    +0.045 A 
ATOM     15  C   UNL     1      -1.273  -6.965   0.959  0.00  0.00    +0.118 A 
BRANCH  15  16
ATOM     16  O   UNL     1      -0.394  -7.758   0.291  0.00  0.00    -0.507 OA
ATOM     17  H   UNL     1       0.530  -7.494   0.395  0.00  0.00    +0.292 HD
ENDBRANCH  15  16
ENDBRANCH   6  10
ENDBRANCH   1   2
BRANCH   1  18
ATOM     18  C   UNL     1       2.312  -4.251  -3.801  0.00  0.00    -0.029 A 
ATOM     19  C   UNL     1       1.623  -4.234  -5.000  0.00  0.00    +0.006 A 
ATOM     20  C   UNL     1       2.255  -4.607  -6.169  0.00  0.00    +0.009 A 
ATOM     21  C   UNL     1       3.592  -5.001  -6.139  0.00  0.00    -0.014 A 
ATOM     22  C   UNL     1       4.282  -5.015  -4.928  0.00  0.00    +0.009 A 
ATOM     23  C   UNL     1       3.641  -4.635  -3.767  0.00  0.00    +0.006 A 
BRANCH  21  24
ATOM     24  C   UNL     1       4.277  -5.403  -7.392  0.00  0.00    +0.024 A 
ATOM     25  C   UNL     1       3.686  -6.332  -8.245  0.00  0.00    +0.012 A 
ATOM     26  C   UNL     1       4.328  -6.704  -9.409  0.00  0.00    +0.001 A 
ATOM     27  C   UNL     1       5.557  -6.157  -9.732  0.00  0.00    +0.004 A 
ATOM     28  C   UNL     1       6.152  -5.234  -8.893  0.00  0.00    +0.046 A 
ATOM     29  C   UNL     1       5.516  -4.848  -7.724  0.00  0.00    +0.125 A 
BRANCH  29  30
ATOM     30  O   UNL     1       6.098  -3.937  -6.901  0.00  0.00    -0.506 OA
ATOM     31  H   UNL     1       6.675  -4.326  -6.229  0.00  0.00    +0.292 HD
ENDBRANCH  29  30
ENDBRANCH  21  24
ENDBRANCH   1  18
BRANCH   1  32
ATOM     32  C   UNL     1       1.460  -2.321  -2.498  0.00  0.00    +0.134 C 
BRANCH  32  33
ATOM     33  N   UNL     1       0.843  -1.917  -1.227  0.00  0.00    -0.199 NA
ATOM     34  H   UNL     1      -0.074  -2.324  -1.126  0.00  0.00    +0.154 HD
BRANCH  33  35
ATOM     35  O   UNL     1       0.787  -0.460  -1.111  0.00  0.00    -0.300 OA
BRANCH  35  37
ATOM     36  C   UNL     1       0.190   1.534   0.117  0.00  0.00    +0.036 C 
ATOM     37  C   UNL     1       0.197   0.004   0.104  0.00  0.00    +0.182 C 
ENDBRANCH  35  37
ENDBRANCH  33  35
ENDBRANCH  32  33
ENDBRANCH   1  32
TORSDOF 10
