REMARK  Name = ZINC02494624
REMARK  7 active torsions:
REMARK  status: ('A' for Active; 'I' for Inactive)
REMARK    1  A    between atoms: C_1  and  C_2
REMARK    2  A    between atoms: C_5  and  C_8
REMARK    3  A    between atoms: C_10  and  C_30
REMARK    4  A    between atoms: C_11  and  N_29
REMARK    5  A    between atoms: C_18  and  C_21
REMARK    6  A    between atoms: C_24  and  O_27
REMARK    7  A    between atoms: O_27  and  C_28
REMARK                            x       y       z     vdW  Elec       q    Type
REMARK                         _______ _______ _______ _____ _____    ______ ____
ROOT
ATOM      1  C   UNL     1       6.575  -0.264  -0.033  0.00  0.00    +0.101 C 
ATOM      2  C   UNL     1       6.847  -0.926   1.289  0.00  0.00    +0.098 C 
ATOM      3  C   UNL     1       6.159  -0.555   2.396  0.00  0.00    +0.198 C 
ATOM      4  O   UNL     1       5.227   0.410   2.349  0.00  0.00    -0.445 OA
ATOM      5  C   UNL     1       4.647   0.727   1.176  0.00  0.00    +0.115 C 
ATOM      6  C   UNL     1       5.235   0.430   0.002  0.00  0.00    +0.046 C 
ATOM      7  C   UNL     1       4.625   0.756  -1.225  0.00  0.00    +0.164 C 
ATOM      8  O   UNL     1       5.195   0.489  -2.264  0.00  0.00    -0.292 OA
ATOM      9  C   UNL     1       3.280   1.429  -1.272  0.00  0.00    +0.088 C 
ATOM     10  C   UNL     1       2.490   1.045  -0.016  0.00  0.00    +0.034 C 
ATOM     11  C   UNL     1       3.313   1.435   1.213  0.00  0.00    +0.083 C 
ENDROOT
BRANCH   1  16
ATOM     12  C   UNL     1      10.715   3.617  -1.123  0.00  0.00    +0.044 C 
ATOM     13  C   UNL     1       9.636   2.605  -0.839  0.00  0.00    -0.050 A 
ATOM     14  C   UNL     1       9.441   1.541  -1.700  0.00  0.00    +0.003 A 
ATOM     15  C   UNL     1       8.450   0.613  -1.439  0.00  0.00    +0.005 A 
ATOM     16  C   UNL     1       7.655   0.748  -0.317  0.00  0.00    -0.035 A 
ATOM     17  C   UNL     1       7.847   1.814   0.542  0.00  0.00    +0.005 A 
ATOM     18  C   UNL     1       8.841   2.739   0.284  0.00  0.00    +0.003 A 
ENDBRANCH   1  16
BRANCH  10  19
ATOM     19  C   UNL     1       1.176   1.783   0.000  0.00  0.00    -0.043 A 
ATOM     20  C   UNL     1      -0.013   1.076   0.008  0.00  0.00    +0.007 A 
ATOM     21  C   UNL     1      -1.218   1.750   0.017  0.00  0.00    +0.046 A 
ATOM     22  C   UNL     1      -1.237   3.137   0.031  0.00  0.00    +0.120 A 
ATOM     23  C   UNL     1      -0.043   3.844   0.024  0.00  0.00    +0.046 A 
ATOM     24  C   UNL     1       1.160   3.165   0.008  0.00  0.00    +0.007 A 
BRANCH  22  25
ATOM     25  O   UNL     1      -2.422   3.802   0.045  0.00  0.00    -0.495 OA
ATOM     26  C   UNL     1      -3.611   3.009   0.052  0.00  0.00    +0.277 C 
ENDBRANCH  22  25
ENDBRANCH  10  19
BRANCH   3  27
ATOM     27  N   UNL     1       6.420  -1.179   3.590  0.00  0.00    -0.328 N 
ATOM     28  H   UNL     1       7.092  -1.877   3.636  0.00  0.00    +0.145 HD
ATOM     29  H   UNL     1       5.933  -0.921   4.389  0.00  0.00    +0.145 HD
ENDBRANCH   3  27
BRANCH   2  30
ATOM     30  C   UNL     1       7.839  -1.955   1.379  0.00  0.00    +0.101 C 
ATOM     31  N   UNL     1       8.626  -2.771   1.451  0.00  0.00    -0.191 NA
ENDBRANCH   2  30
TORSDOF 5
