REMARK  Name = ZINC16042880
REMARK  6 active torsions:
REMARK  status: ('A' for Active; 'I' for Inactive)
REMARK    1  A    between atoms: C_1  and  C_2
REMARK    2  A    between atoms: C_5  and  C_8
REMARK    3  A    between atoms: C_8  and  N_9
REMARK    4  A    between atoms: C_29  and  C_31
REMARK    5  A    between atoms: C_31  and  C_32
REMARK    6  A    between atoms: C_32  and  C_33
REMARK                            x       y       z     vdW  Elec       q    Type
REMARK                         _______ _______ _______ _____ _____    ______ ____
ROOT
ATOM      1  N   UNL     1      -0.917   0.058   3.238  0.00  0.00    -0.287 N 
ATOM      2  C   UNL     1      -2.322  -0.238   3.013  0.00  0.00    +0.204 C 
ATOM      3  C   UNL     1      -2.886   0.537   1.858  0.00  0.00    +0.234 C 
ATOM      4  O   UNL     1      -4.061   0.391   1.595  0.00  0.00    -0.274 OA
ATOM      5  N   UNL     1      -2.178   1.378   1.101  0.00  0.00    -0.280 N 
ATOM      6  C   UNL     1      -0.737   1.583   1.267  0.00  0.00    +0.167 C 
ATOM      7  C   UNL     1      -0.199   0.873   2.468  0.00  0.00    +0.237 C 
ATOM      8  O   UNL     1       0.965   1.050   2.758  0.00  0.00    -0.274 OA
ATOM      9  C   UNL     1      -0.013   1.086   0.008  0.00  0.00    +0.069 C 
ATOM     10  C   UNL     1      -0.747   1.587  -1.209  0.00  0.00    -0.015 A 
ATOM     11  C   UNL     1      -0.270   1.668  -2.575  0.00  0.00    +0.003 A 
ATOM     12  C   UNL     1       0.948   1.333  -3.175  0.00  0.00    +0.010 A 
ATOM     13  C   UNL     1       1.052   1.546  -4.527  0.00  0.00    +0.001 A 
ATOM     14  C   UNL     1       0.008   2.066  -5.273  0.00  0.00    +0.002 A 
ATOM     15  C   UNL     1      -1.208   2.407  -4.705  0.00  0.00    +0.026 A 
ATOM     16  C   UNL     1      -1.343   2.203  -3.333  0.00  0.00    +0.047 A 
ATOM     17  N   UNL     1      -2.379   2.424  -2.473  0.00  0.00    -0.356 N 
ATOM     18  H   UNL     1      -3.243   2.788  -2.721  0.00  0.00    +0.166 HD
ATOM     19  C   UNL     1      -2.014   2.055  -1.205  0.00  0.00    +0.041 A 
ATOM     20  C   UNL     1      -2.867   2.143   0.040  0.00  0.00    +0.124 C 
ENDROOT
BRANCH   1  21
ATOM     21  C   UNL     1      -0.252  -0.577   4.379  0.00  0.00    +0.143 C 
BRANCH  21  26
ATOM     22  C   UNL     1      -0.770   2.802   9.037  0.00  0.00    +0.044 C 
ATOM     23  C   UNL     1      -0.635   1.921   7.822  0.00  0.00    -0.050 A 
ATOM     24  C   UNL     1      -1.595   0.964   7.553  0.00  0.00    +0.003 A 
ATOM     25  C   UNL     1      -1.471   0.155   6.438  0.00  0.00    +0.005 A 
ATOM     26  C   UNL     1      -0.387   0.304   5.593  0.00  0.00    -0.030 A 
ATOM     27  C   UNL     1       0.576   1.258   5.866  0.00  0.00    +0.005 A 
ATOM     28  C   UNL     1       0.449   2.070   6.978  0.00  0.00    +0.003 A 
ENDBRANCH  21  26
ENDBRANCH   1  21
BRANCH  20  29
ATOM     29  C   UNL     1      -3.017   3.604   0.466  0.00  0.00    +0.033 C 
BRANCH  29  30
ATOM     30  C   UNL     1      -3.981   3.694   1.651  0.00  0.00    +0.037 C 
BRANCH  30  31
ATOM     31  C   UNL     1      -4.129   5.134   2.070  0.00  0.00    -0.047 A 
ATOM     32  C   UNL     1      -3.282   5.667   3.024  0.00  0.00    +0.003 A 
ATOM     33  C   UNL     1      -3.414   6.989   3.405  0.00  0.00    +0.000 A 
ATOM     34  C   UNL     1      -4.400   7.775   2.840  0.00  0.00    +0.000 A 
ATOM     35  C   UNL     1      -5.251   7.241   1.890  0.00  0.00    +0.000 A 
ATOM     36  C   UNL     1      -5.115   5.921   1.505  0.00  0.00    +0.003 A 
ENDBRANCH  30  31
ENDBRANCH  29  30
ENDBRANCH  20  29
TORSDOF 5
