REMARK  Name = ZINC39685059
REMARK  6 active torsions:
REMARK  status: ('A' for Active; 'I' for Inactive)
REMARK    1  A    between atoms: C_5  and  O_7
REMARK    2  A    between atoms: O_7  and  C_8
REMARK    3  A    between atoms: C_8  and  C_9
REMARK    4  A    between atoms: C_9  and  N_10
REMARK    5  A    between atoms: C_11  and  C_13
REMARK    6  A    between atoms: C_24  and  C_26
REMARK                            x       y       z     vdW  Elec       q    Type
REMARK                         _______ _______ _______ _____ _____    ______ ____
ROOT
ATOM      1  C   UNL     1       2.206  -6.295   2.117  0.00  0.00    +0.100 C 
ATOM      2  C   UNL     1       3.574  -5.698   2.516  0.00  0.00    +0.121 C 
ATOM      3  N   UNL     1       4.281  -6.808   3.199  0.00  0.00    -0.296 N 
ATOM      4  C   UNL     1       3.928  -8.011   2.409  0.00  0.00    +0.115 C 
ATOM      5  C   UNL     1       2.443  -7.813   2.047  0.00  0.00    -0.004 C 
ATOM      6  C   UNL     1       2.172  -8.326   0.635  0.00  0.00    -0.010 C 
ATOM      7  C   UNL     1       2.357  -9.845   0.605  0.00  0.00    -0.082 C 
ATOM      8  N   UNL     1       1.435 -10.472   1.560  0.00  0.00    +0.379 N 
ATOM      9  C   UNL     1       1.762 -10.045   2.926  0.00  0.00    -0.082 C 
ATOM     10  C   UNL     1       1.552  -8.534   3.054  0.00  0.00    -0.010 C 
ATOM     11  C   UNL     1       5.068  -6.737   4.291  0.00  0.00    +0.247 C 
ATOM     12  O   UNL     1       5.161  -5.694   4.907  0.00  0.00    -0.270 OA
ATOM     13  H   UNL     1       0.489 -10.198   1.341  0.00  0.00    -0.086 HD
ATOM     14  H   UNL     1       1.515 -11.476   1.494  0.00  0.00    -0.086 HD
ENDROOT
BRANCH  11  15
ATOM     15  C   UNL     1       5.818  -7.930   4.740  0.00  0.00    +0.040 A 
ATOM     16  C   UNL     1       6.072  -8.974   3.849  0.00  0.00    +0.033 A 
ATOM     17  C   UNL     1       6.773 -10.085   4.274  0.00  0.00    +0.043 A 
ATOM     18  C   UNL     1       7.223 -10.165   5.580  0.00  0.00    +0.040 A 
ATOM     19  C   UNL     1       6.973  -9.133   6.469  0.00  0.00    +0.043 A 
ATOM     20  C   UNL     1       6.279  -8.014   6.054  0.00  0.00    +0.033 A 
ATOM     21 CL   UNL     1       7.541  -9.243   8.106  0.00  0.00    -0.083 Cl
ATOM     22 CL   UNL     1       7.090 -11.384   3.167  0.00  0.00    -0.083 Cl
ENDBRANCH  11  15
BRANCH   1  24
ATOM     23  N   UNL     1       0.466  -5.634   0.487  0.00  0.00    -0.312 N 
ATOM     24  C   UNL     1       1.777  -5.769   0.771  0.00  0.00    +0.218 C 
ATOM     25  O   UNL     1       2.611  -5.465  -0.055  0.00  0.00    -0.275 OA
ATOM     26  H   UNL     1      -0.201  -5.877   1.149  0.00  0.00    +0.149 HD
BRANCH  23  27
ATOM     27  C   UNL     1       0.049  -5.122  -0.820  0.00  0.00    +0.145 C 
BRANCH  27  28
ATOM     28  C   UNL     1      -1.479  -5.069  -0.883  0.00  0.00    +0.248 C 
BRANCH  28  29
ATOM     29  O   UNL     1      -1.962  -4.118   0.067  0.00  0.00    -0.488 OA
BRANCH  29  34
ATOM     30  C   UNL     1      -5.516  -4.505  -0.610  0.00  0.00    +0.004 A 
ATOM     31  C   UNL     1      -6.051  -3.600   0.288  0.00  0.00    +0.003 A 
ATOM     32  C   UNL     1      -5.219  -2.868   1.113  0.00  0.00    +0.042 A 
ATOM     33  C   UNL     1      -3.848  -3.038   1.042  0.00  0.00    +0.165 A 
ATOM     34  C   UNL     1      -3.309  -3.947   0.140  0.00  0.00    +0.156 A 
ATOM     35  C   UNL     1      -4.148  -4.680  -0.686  0.00  0.00    +0.048 A 
ATOM     36  F   UNL     1      -3.034  -2.322   1.848  0.00  0.00    -0.202 F 
ENDBRANCH  29  34
ENDBRANCH  28  29
ENDBRANCH  27  28
ENDBRANCH  23  27
ENDBRANCH   1  24
TORSDOF 6
