REMARK  Name = ZINC38884163
REMARK  11 active torsions:
REMARK  status: ('A' for Active; 'I' for Inactive)
REMARK    1  A    between atoms: C_1  and  C_2
REMARK    2  A    between atoms: C_2  and  C_4
REMARK    3  A    between atoms: C_2  and  N_14
REMARK    4  A    between atoms: C_4  and  C_5
REMARK    5  A    between atoms: C_5  and  C_6
REMARK    6  A    between atoms: C_5  and  C_7
REMARK    7  A    between atoms: C_5  and  C_8
REMARK    8  A    between atoms: C_15  and  C_17
REMARK    9  A    between atoms: N_20  and  C_23
REMARK   10  A    between atoms: C_23  and  C_24
REMARK   11  A    between atoms: C_26  and  C_29
REMARK                            x       y       z     vdW  Elec       q    Type
REMARK                         _______ _______ _______ _____ _____    ______ ____
ROOT
ATOM      1  C   UNL     1       2.374  -0.796   2.779  0.00  0.00    +0.071 C 
ATOM      2  C   UNL     1       1.865  -0.120   4.056  0.00  0.00    -0.006 C 
ATOM      3  C   UNL     1       2.671  -0.629   5.252  0.00  0.00    -0.077 C 
ATOM      4  N   UNL     1       4.091  -0.311   5.061  0.00  0.00    +0.386 N 
ATOM      5  C   UNL     1       4.604  -1.014   3.879  0.00  0.00    -0.077 C 
ATOM      6  C   UNL     1       3.873  -0.520   2.629  0.00  0.00    -0.006 C 
ATOM      7  H   UNL     1       4.198   0.684   4.932  0.00  0.00    -0.081 HD
ENDROOT
BRANCH   1   9
ATOM      8  N   UNL     1       0.298  -0.370   1.503  0.00  0.00    -0.312 N 
ATOM      9  C   UNL     1       1.637  -0.242   1.587  0.00  0.00    +0.216 C 
ATOM     10  O   UNL     1       2.249   0.319   0.703  0.00  0.00    -0.276 OA
ATOM     11  H   UNL     1      -0.191  -0.819   2.210  0.00  0.00    +0.149 HD
BRANCH   8  13
ATOM     12  C   UNL     1      -0.721   1.650   0.576  0.00  0.00    +0.028 C 
ATOM     13  C   UNL     1      -0.418   0.169   0.344  0.00  0.00    +0.071 C 
BRANCH  13  14
ATOM     14  C   UNL     1      -1.729  -0.597   0.153  0.00  0.00    +0.033 C 
BRANCH  14  15
ATOM     15  C   UNL     1      -1.423  -2.042  -0.246  0.00  0.00    -0.008 C 
ATOM     16  C   UNL     1      -0.513  -2.049  -1.476  0.00  0.00    +0.016 C 
ATOM     17  C   UNL     1      -0.720  -2.753   0.912  0.00  0.00    +0.016 C 
BRANCH  15  18
ATOM     18  C   UNL     1      -2.709  -2.757  -0.568  0.00  0.00    -0.042 A 
ATOM     19  C   UNL     1      -3.914  -2.086  -0.481  0.00  0.00    +0.004 A 
ATOM     20  C   UNL     1      -5.094  -2.742  -0.777  0.00  0.00    +0.000 A 
ATOM     21  C   UNL     1      -5.069  -4.070  -1.160  0.00  0.00    +0.000 A 
ATOM     22  C   UNL     1      -3.864  -4.741  -1.249  0.00  0.00    +0.000 A 
ATOM     23  C   UNL     1      -2.684  -4.083  -0.957  0.00  0.00    +0.004 A 
ENDBRANCH  15  18
ENDBRANCH  14  15
ENDBRANCH  13  14
ENDBRANCH   8  13
ENDBRANCH   1   9
BRANCH   4  24
ATOM     24  C   UNL     1       4.850  -0.732   6.247  0.00  0.00    +0.022 C 
BRANCH  24  25
ATOM     25  C   UNL     1       6.286  -0.296   6.105  0.00  0.00    +0.211 A 
ATOM     26  N   UNL     1       6.780   0.838   6.511  0.00  0.00    -0.192 NA
ATOM     27  C   UNL     1       8.095   0.897   6.225  0.00  0.00    +0.209 A 
ATOM     28  N   UNL     1       8.442  -0.219   5.626  0.00  0.00    -0.056 NA
ATOM     29  O   UNL     1       7.269  -1.014   5.545  0.00  0.00    -0.340 OA
BRANCH  27  30
ATOM     30  C   UNL     1       8.994   2.027   6.532  0.00  0.00    +0.060 A 
ATOM     31  C   UNL     1      10.332   2.162   6.269  0.00  0.00    +0.019 A 
ATOM     32  C   UNL     1      10.969   3.321   6.653  0.00  0.00    +0.008 A 
ATOM     33  C   UNL     1      10.254   4.292   7.280  0.00  0.00    +0.046 A 
ATOM     34  S   UNL     1       8.620   3.576   7.337  0.00  0.00    -0.093 S 
ENDBRANCH  27  30
ENDBRANCH  24  25
ENDBRANCH   4  24
TORSDOF 8
