REMARK  Name = ZINC43884084
REMARK  5 active torsions:
REMARK  status: ('A' for Active; 'I' for Inactive)
REMARK    1  A    between atoms: C_1  and  C_2
REMARK    2  A    between atoms: C_2  and  C_3
REMARK    3  A    between atoms: C_2  and  C_4
REMARK    4  A    between atoms: C_4  and  C_6
REMARK    5  A    between atoms: C_4  and  N_16
REMARK                            x       y       z     vdW  Elec       q    Type
REMARK                         _______ _______ _______ _____ _____    ______ ____
ROOT
ATOM      1  C   UNL     1      -1.433  -0.534   0.013  0.00  0.00    +0.107 C 
ENDROOT
BRANCH   1   2
ATOM      2  N   UNL     1      -2.142  -0.048  -1.174  0.00  0.00    -0.292 N 
ATOM      3  C   UNL     1      -2.727   1.166  -1.160  0.00  0.00    +0.303 C 
ATOM      4  O   UNL     1      -2.667   1.858  -0.163  0.00  0.00    -0.253 OA
ATOM      5  N   UNL     1      -3.379   1.612  -2.252  0.00  0.00    -0.286 N 
ATOM      6  C   UNL     1      -3.437   0.762  -3.420  0.00  0.00    +0.109 C 
ATOM      7  C   UNL     1      -2.212   1.039  -4.326  0.00  0.00    +0.019 C 
ATOM      8  C   UNL     1      -2.341   2.354  -4.972  0.00  0.00    +0.002 C 
ATOM      9  C   UNL     1      -2.367   3.531  -4.002  0.00  0.00    +0.002 C 
ATOM     10  C   UNL     1      -3.776   3.740  -3.507  0.00  0.00    +0.019 C 
ATOM     11  C   UNL     1      -4.008   2.946  -2.204  0.00  0.00    +0.109 C 
ATOM     12  H   UNL     1      -2.190  -0.601  -1.970  0.00  0.00    +0.151 HD
ENDBRANCH   1   2
BRANCH   1  13
ATOM     13  C   UNL     1      -1.413  -2.041   0.005  0.00  0.00    -0.023 A 
ATOM     14  C   UNL     1      -1.201  -2.721  -1.180  0.00  0.00    +0.009 A 
ATOM     15  C   UNL     1      -1.183  -4.103  -1.192  0.00  0.00    +0.050 A 
ATOM     16  C   UNL     1      -1.377  -4.811  -0.015  0.00  0.00    +0.162 A 
ATOM     17  C   UNL     1      -1.587  -4.126   1.176  0.00  0.00    +0.162 A 
ATOM     18  C   UNL     1      -1.600  -2.739   1.182  0.00  0.00    +0.055 A 
ATOM     19  O   UNL     1      -1.772  -4.801   2.344  0.00  0.00    -0.485 OA
ATOM     20  C   UNL     1      -2.118  -6.186   2.239  0.00  0.00    +0.270 C 
ATOM     21  C   UNL     1      -1.183  -6.839   1.211  0.00  0.00    +0.270 C 
ATOM     22  O   UNL     1      -1.361  -6.171  -0.043  0.00  0.00    -0.485 OA
ENDBRANCH   1  13
BRANCH   1  24
ATOM     23  C   UNL     1      -0.019   1.526   0.010  0.00  0.00    +0.009 C 
ATOM     24  C   UNL     1       0.002  -0.004   0.002  0.00  0.00    +0.008 C 
ATOM     25  C   UNL     1       0.742  -0.511   1.242  0.00  0.00    +0.009 C 
ENDBRANCH   1  24
TORSDOF 3
