REMARK  Name = ZINC19497988
REMARK  8 active torsions:
REMARK  status: ('A' for Active; 'I' for Inactive)
REMARK    1  A    between atoms: C_1  and  C_2
REMARK    2  A    between atoms: C_7  and  C_12
REMARK    3  A    between atoms: N_14  and  C_15
REMARK    4  A    between atoms: C_15  and  C_17
REMARK    5  A    between atoms: C_15  and  C_30
REMARK    6  A    between atoms: C_21  and  C_23
REMARK    7  A    between atoms: C_30  and  C_31
REMARK    8  A    between atoms: C_30  and  C_32
REMARK                            x       y       z     vdW  Elec       q    Type
REMARK                         _______ _______ _______ _____ _____    ______ ____
ROOT
ATOM      1  C   UNL     1      -1.288  -0.783   0.011  0.00  0.00    +0.125 C 
ENDROOT
BRANCH   1   2
ATOM      2  C   UNL     1       0.002  -0.004   0.002  0.00  0.00    +0.069 A 
ATOM      3  C   UNL     1       1.218  -0.664  -0.012  0.00  0.00    +0.095 A 
ATOM      4  C   UNL     1       2.388   0.096  -0.019  0.00  0.00    +0.252 A 
ATOM      5  N   UNL     1       2.296   1.420  -0.013  0.00  0.00    -0.306 N 
ATOM      6  C   UNL     1       1.112   2.015   0.001  0.00  0.00    +0.159 A 
ATOM      7  N   UNL     1      -0.016   1.319   0.009  0.00  0.00    -0.230 NA
ATOM      8  O   UNL     1       3.600  -0.509  -0.033  0.00  0.00    -0.268 OA
ATOM      9  H   UNL     1       3.216   2.024  -0.019  0.00  0.00    +0.170 HD
BRANCH   6  10
ATOM     10  C   UNL     1       1.048   3.498   0.009  0.00  0.00    +0.106 A 
ATOM     11  C   UNL     1       2.226   4.240   0.007  0.00  0.00    +0.031 A 
ATOM     12  C   UNL     1       2.150   5.623   0.009  0.00  0.00    +0.004 A 
ATOM     13  C   UNL     1       0.897   6.217   0.024  0.00  0.00    +0.020 A 
ATOM     14  C   UNL     1      -0.232   5.418   0.030  0.00  0.00    +0.111 A 
ATOM     15  N   UNL     1      -0.131   4.105   0.023  0.00  0.00    -0.252 NA
ENDBRANCH   6  10
ENDBRANCH   1   2
BRANCH   1  18
ATOM     16  C   UNL     1      -1.875  -3.122  -0.343  0.00  0.00    +0.245 C 
ATOM     17  O   UNL     1      -2.916  -2.753  -0.851  0.00  0.00    -0.270 OA
ATOM     18  N   UNL     1      -0.993  -2.214   0.120  0.00  0.00    -0.303 N 
ATOM     19  H   UNL     1      -0.051  -2.548   0.581  0.00  0.00    +0.150 HD
BRANCH  16  25
ATOM     20  C   UNL     1      -2.909  -9.441   1.137  0.00  0.00    +0.052 C 
ATOM     21  C   UNL     1      -2.241  -9.196  -0.217  0.00  0.00    +0.175 C 
ATOM     22  C   UNL     1      -2.983  -8.088  -1.001  0.00  0.00    +0.083 C 
ATOM     23  C   UNL     1      -2.205  -6.848  -0.602  0.00  0.00    -0.002 A 
ATOM     24  C   UNL     1      -2.492  -5.510  -0.705  0.00  0.00    +0.020 A 
ATOM     25  C   UNL     1      -1.578  -4.563  -0.232  0.00  0.00    +0.037 A 
ATOM     26  C   UNL     1      -0.384  -4.994   0.352  0.00  0.00    +0.016 A 
ATOM     27  C   UNL     1      -0.107  -6.336   0.451  0.00  0.00    +0.046 A 
ATOM     28  C   UNL     1      -1.014  -7.283  -0.029  0.00  0.00    +0.124 A 
ATOM     29  O   UNL     1      -0.927  -8.640  -0.045  0.00  0.00    -0.488 OA
ENDBRANCH  16  25
ENDBRANCH   1  18
BRANCH   1  30
ATOM     30  C   UNL     1      -2.140  -0.346   1.203  0.00  0.00    +0.009 C 
ATOM     31  C   UNL     1      -3.450  -1.137   1.212  0.00  0.00    +0.009 C 
ATOM     32  C   UNL     1      -1.376  -0.611   2.502  0.00  0.00    +0.009 C 
ENDBRANCH   1  30
TORSDOF 5
