REMARK  Name = ZINC63110561
REMARK  8 active torsions:
REMARK  status: ('A' for Active; 'I' for Inactive)
REMARK    1  A    between atoms: C_1  and  C_2
REMARK    2  A    between atoms: N_6  and  C_19
REMARK    3  A    between atoms: C_19  and  C_20
REMARK    4  A    between atoms: C_20  and  O_22
REMARK    5  A    between atoms: O_22  and  C_23
REMARK    6  A    between atoms: N_27  and  C_28
REMARK    7  A    between atoms: C_28  and  C_29
REMARK    8  A    between atoms: C_29  and  C_30
REMARK                            x       y       z     vdW  Elec       q    Type
REMARK                         _______ _______ _______ _____ _____    ______ ____
ROOT
ATOM      1  C   UNL     1      -0.019   1.526   0.010  0.00  0.00    +0.033 C 
ATOM      2  C   UNL     1       0.002  -0.004   0.002  0.00  0.00    +0.110 C 
ATOM      3  C   UNL     1      -1.411  -0.522   0.006  0.00  0.00    +0.060 A 
ATOM      4  C   UNL     1      -1.840  -1.536   0.794  0.00  0.00    +0.056 A 
ATOM      5  N   UNL     1      -3.160  -1.747   0.545  0.00  0.00    -0.267 N 
ATOM      6  N   UNL     1      -3.571  -0.830  -0.434  0.00  0.00    -0.191 N 
ATOM      7  C   UNL     1      -2.500  -0.077  -0.767  0.00  0.00    +0.279 A 
ATOM      8  O   UNL     1      -2.481   0.823  -1.587  0.00  0.00    -0.265 OA
ATOM      9  C   UNL     1      -4.845  -0.717  -0.963  0.00  0.00    +0.196 A 
ATOM     10  N   UNL     1      -5.920  -1.413  -0.676  0.00  0.00    -0.221 NA
ATOM     11  C   UNL     1      -7.109  -1.192  -1.278  0.00  0.00    +0.081 A 
ATOM     12  C   UNL     1      -8.335  -1.864  -1.063  0.00  0.00    +0.029 A 
ATOM     13  C   UNL     1      -9.459  -1.513  -1.764  0.00  0.00    +0.002 A 
ATOM     14  C   UNL     1      -9.437  -0.493  -2.704  0.00  0.00    +0.001 A 
ATOM     15  C   UNL     1      -8.256   0.186  -2.940  0.00  0.00    +0.017 A 
ATOM     16  C   UNL     1      -7.125  -0.159  -2.242  0.00  0.00    +0.041 A 
ATOM     17  S   UNL     1      -5.445   0.418  -2.206  0.00  0.00    -0.048 S 
ATOM     18  C   UNL     1      -0.948  -2.267   1.764  0.00  0.00    +0.151 C 
ATOM     19  C   UNL     1       0.316  -1.481   1.965  0.00  0.00    +0.222 C 
ATOM     20  O   UNL     1       1.021  -1.774   2.908  0.00  0.00    -0.275 OA
ATOM     21  N   UNL     1       0.713  -0.484   1.180  0.00  0.00    -0.294 N 
ENDROOT
BRANCH   5  22
ATOM     22  C   UNL     1      -4.007  -2.756   1.188  0.00  0.00    +0.262 C 
BRANCH  22  23
ATOM     23  C   UNL     1      -4.637  -2.169   2.425  0.00  0.00    +0.328 C 
ATOM     24  O   UNL     1      -4.403  -1.025   2.737  0.00  0.00    -0.249 OA
BRANCH  23  25
ATOM     25  O   UNL     1      -5.458  -2.916   3.179  0.00  0.00    -0.467 OA
ATOM     26  C   UNL     1      -6.020  -2.296   4.337  0.00  0.00    +0.280 C 
ENDBRANCH  23  25
ENDBRANCH  22  23
ENDBRANCH   5  22
BRANCH  21  27
ATOM     27  C   UNL     1       1.970   0.183   1.528  0.00  0.00    +0.113 C 
BRANCH  27  28
ATOM     28  C   UNL     1       1.683   1.355   2.469  0.00  0.00    +0.052 C 
BRANCH  28  29
ATOM     29  C   UNL     1       2.976   2.042   2.825  0.00  0.00    -0.040 C 
ATOM     30  C   UNL     1       3.510   3.130   2.227  0.00  0.00    -0.001 A 
ATOM     31  C   UNL     1       3.066   3.968   1.107  0.00  0.00    +0.010 A 
ATOM     32  C   UNL     1       3.833   5.014   0.726  0.00  0.00    +0.001 A 
ATOM     33  C   UNL     1       5.040   5.318   1.371  0.00  0.00    +0.002 A 
ATOM     34  C   UNL     1       5.514   4.595   2.408  0.00  0.00    +0.026 A 
ATOM     35  C   UNL     1       4.788   3.472   2.893  0.00  0.00    +0.043 A 
ATOM     36  N   UNL     1       5.033   2.627   3.865  0.00  0.00    -0.380 N 
ATOM     37  C   UNL     1       3.935   1.657   3.930  0.00  0.00    +0.144 C 
ATOM     38  H   UNL     1       5.809   2.644   4.447  0.00  0.00    +0.160 HD
ENDBRANCH  28  29
ENDBRANCH  27  28
ENDBRANCH  21  27
TORSDOF 6
