REMARK  Name = ZINC15769495
REMARK  5 active torsions:
REMARK  status: ('A' for Active; 'I' for Inactive)
REMARK    1  A    between atoms: C_2  and  C_3
REMARK    2  A    between atoms: C_3  and  O_4
REMARK    3  A    between atoms: O_4  and  C_5
REMARK    4  A    between atoms: C_8  and  C_12
REMARK    5  A    between atoms: N_18  and  C_19
REMARK                            x       y       z     vdW  Elec       q    Type
REMARK                         _______ _______ _______ _____ _____    ______ ____
ROOT
ATOM      1  C   UNL     1       6.171  -4.244   2.296  0.00  0.00    +0.028 C 
ATOM      2  C   UNL     1       6.156  -5.404   3.001  0.00  0.00    +0.078 C 
ATOM      3  C   UNL     1       7.220  -6.413   3.166  0.00  0.00    +0.256 C 
ATOM      4  O   UNL     1       8.308  -6.283   2.635  0.00  0.00    -0.269 OA
ATOM      5  N   UNL     1       6.939  -7.465   3.916  0.00  0.00    -0.260 N 
ATOM      6  C   UNL     1       5.701  -7.594   4.508  0.00  0.00    +0.166 C 
ATOM      7  N   UNL     1       5.260  -8.565   5.276  0.00  0.00    -0.224 NA
ATOM      8  S   UNL     1       4.845  -6.117   3.984  0.00  0.00    -0.049 S 
ATOM      9  H   UNL     1       7.610  -8.152   4.051  0.00  0.00    +0.157 HD
ENDROOT
BRANCH   7  10
ATOM     10  C   UNL     1       3.960  -8.563   5.703  0.00  0.00    +0.086 A 
ATOM     11  C   UNL     1       2.922  -8.357   4.791  0.00  0.00    +0.029 A 
ATOM     12  C   UNL     1       1.614  -8.356   5.227  0.00  0.00    +0.004 A 
ATOM     13  C   UNL     1       1.327  -8.559   6.566  0.00  0.00    +0.021 A 
ATOM     14  C   UNL     1       2.349  -8.763   7.477  0.00  0.00    +0.061 A 
ATOM     15  C   UNL     1       3.664  -8.773   7.052  0.00  0.00    +0.085 A 
ATOM     16 CL   UNL     1       4.945  -9.037   8.194  0.00  0.00    -0.080 Cl
ATOM     17 CL   UNL     1       1.978  -9.016   9.154  0.00  0.00    -0.082 Cl
ENDBRANCH   7  10
BRANCH   1  21
ATOM     18  C   UNL     1       2.935  -1.523   2.626  0.00  0.00    +0.135 A 
ATOM     19  C   UNL     1       3.104  -2.517   3.583  0.00  0.00    +0.047 A 
ATOM     20  C   UNL     1       4.153  -3.403   3.480  0.00  0.00    +0.011 A 
ATOM     21  C   UNL     1       5.050  -3.302   2.410  0.00  0.00    -0.023 A 
ATOM     22  C   UNL     1       4.875  -2.299   1.449  0.00  0.00    +0.027 A 
ATOM     23  C   UNL     1       3.819  -1.421   1.558  0.00  0.00    +0.060 A 
ATOM     24 BR   UNL     1       3.576  -0.071   0.257  0.00  0.00    -0.046 Br
BRANCH  18  25
ATOM     25  O   UNL     1       1.898  -0.652   2.732  0.00  0.00    -0.487 OA
BRANCH  25  26
ATOM     26  C   UNL     1       1.027  -0.813   3.853  0.00  0.00    +0.256 C 
BRANCH  26  28
ATOM     27  C   UNL     1      -1.301  -0.099   4.030  0.00  0.00    +0.007 C 
ATOM     28  C   UNL     1      -0.054   0.235   3.804  0.00  0.00    +0.006 C 
ENDBRANCH  26  28
ENDBRANCH  25  26
ENDBRANCH  18  25
ENDBRANCH   1  21
TORSDOF 5
