REMARK  Name = ZINC08822531
REMARK  8 active torsions:
REMARK  status: ('A' for Active; 'I' for Inactive)
REMARK    1  A    between atoms: C_1  and  C_2
REMARK    2  A    between atoms: C_2  and  C_4
REMARK    3  A    between atoms: C_7  and  N_10
REMARK    4  A    between atoms: C_11  and  C_13
REMARK    5  A    between atoms: C_13  and  S_14
REMARK    6  A    between atoms: S_14  and  C_15
REMARK    7  A    between atoms: C_21  and  C_23
REMARK    8  A    between atoms: C_24  and  C_25
REMARK                            x       y       z     vdW  Elec       q    Type
REMARK                         _______ _______ _______ _____ _____    ______ ____
ROOT
ATOM      1  C   UNL     1      -0.018   0.025   0.371  0.00  0.00    +0.160 A 
ATOM      2  N   UNL     1       0.988  -0.822   0.209  0.00  0.00    -0.133 NA
ATOM      3  N   UNL     1       0.815  -2.071   0.212  0.00  0.00    -0.125 NA
ATOM      4  C   UNL     1      -0.381  -2.613   0.377  0.00  0.00    +0.189 A 
ATOM      5  S   UNL     1      -1.372  -1.132   0.555  0.00  0.00    -0.024 S 
ATOM      6  N   UNL     1      -0.760  -3.951   0.407  0.00  0.00    -0.260 N 
ATOM      7  C   UNL     1       0.166  -4.918   0.255  0.00  0.00    +0.243 C 
ATOM      8  O   UNL     1       1.335  -4.620   0.089  0.00  0.00    -0.270 OA
ATOM      9  H   UNL     1      -1.692  -4.189   0.539  0.00  0.00    +0.157 HD
ENDROOT
BRANCH   7  10
ATOM     10  C   UNL     1      -0.232  -6.324   0.287  0.00  0.00    +0.068 C 
ATOM     11  C   UNL     1       0.697  -7.292   0.134  0.00  0.00    +0.013 C 
BRANCH  11  12
ATOM     12  C   UNL     1       0.296  -8.706   0.167  0.00  0.00    -0.021 A 
ATOM     13  C   UNL     1      -1.047  -9.051   0.356  0.00  0.00    +0.012 A 
ATOM     14  C   UNL     1      -1.419 -10.377   0.387  0.00  0.00    +0.050 A 
ATOM     15  C   UNL     1      -0.466 -11.375   0.229  0.00  0.00    +0.166 A 
ATOM     16  C   UNL     1       0.875 -11.038   0.039  0.00  0.00    +0.167 A 
ATOM     17  C   UNL     1       1.256  -9.711   0.002  0.00  0.00    +0.057 A 
ATOM     18  O   UNL     1       1.599 -12.189  -0.088  0.00  0.00    -0.453 OA
ATOM     19  C   UNL     1       0.636 -13.217  -0.384  0.00  0.00    +0.466 C 
ATOM     20  O   UNL     1      -0.578 -12.734   0.221  0.00  0.00    -0.453 OA
ENDBRANCH  11  12
ENDBRANCH   7  10
BRANCH   1  21
ATOM     21  S   UNL     1      -0.021   1.787   0.405  0.00  0.00    -0.088 S 
BRANCH  21  22
ATOM     22  C   UNL     1       1.720   2.234   0.159  0.00  0.00    +0.172 C 
BRANCH  22  24
ATOM     23  N   UNL     1       3.072   4.299   0.001  0.00  0.00    -0.285 N 
ATOM     24  C   UNL     1       1.859   3.734   0.167  0.00  0.00    +0.227 C 
ATOM     25  O   UNL     1       0.881   4.433   0.322  0.00  0.00    -0.275 OA
ATOM     26  H   UNL     1       3.864   3.741  -0.049  0.00  0.00    +0.155 HD
BRANCH  23  30
ATOM     27  C   UNL     1       3.417   8.434  -0.298  0.00  0.00    +0.017 A 
ATOM     28  C   UNL     1       4.434   7.687   0.309  0.00  0.00    +0.013 A 
ATOM     29  C   UNL     1       4.316   6.324   0.405  0.00  0.00    +0.024 A 
ATOM     30  C   UNL     1       3.187   5.684  -0.099  0.00  0.00    +0.033 A 
ATOM     31  C   UNL     1       2.176   6.422  -0.709  0.00  0.00    +0.024 A 
ATOM     32  C   UNL     1       2.283   7.786  -0.804  0.00  0.00    +0.013 A 
BRANCH  27  34
ATOM     33  C   UNL     1       2.391  10.709  -0.943  0.00  0.00    +0.091 C 
ATOM     34  C   UNL     1       3.538   9.894  -0.403  0.00  0.00    +0.160 C 
ATOM     35  O   UNL     1       4.562  10.444  -0.055  0.00  0.00    -0.292 OA
ENDBRANCH  27  34
ENDBRANCH  23  30
ENDBRANCH  22  24
ENDBRANCH  21  22
ENDBRANCH   1  21
TORSDOF 7
