REMARK  Name = ZINC05248660
REMARK  11 active torsions:
REMARK  status: ('A' for Active; 'I' for Inactive)
REMARK    1  A    between atoms: C_1  and  C_2
REMARK    2  A    between atoms: C_2  and  O_3
REMARK    3  A    between atoms: O_3  and  C_4
REMARK    4  A    between atoms: C_7  and  C_10
REMARK    5  A    between atoms: C_17  and  N_33
REMARK    6  A    between atoms: C_18  and  C_31
REMARK    7  A    between atoms: C_19  and  C_21
REMARK    8  A    between atoms: C_24  and  O_27
REMARK    9  A    between atoms: O_27  and  C_28
REMARK   10  A    between atoms: C_28  and  C_29
REMARK   11  A    between atoms: C_28  and  C_30
REMARK                            x       y       z     vdW  Elec       q    Type
REMARK                         _______ _______ _______ _____ _____    ______ ____
ROOT
ATOM      1  C   UNL     1      -2.488  -6.689  -0.749  0.00  0.00    +0.074 A 
ATOM      2  C   UNL     1      -3.558  -7.241  -1.371  0.00  0.00    +0.054 A 
ATOM      3  C   UNL     1      -3.514  -8.633  -1.162  0.00  0.00    +0.245 A 
ATOM      4  N   UNL     1      -2.463  -8.907  -0.443  0.00  0.00    -0.135 NA
ATOM      5  N   UNL     1      -1.787  -7.708  -0.169  0.00  0.00    -0.273 N 
ATOM      6  H   UNL     1      -0.969  -7.618   0.344  0.00  0.00    +0.189 HD
ATOM      7  O   UNL     1      -4.461  -9.468  -1.670  0.00  0.00    -0.421 OA
ATOM      8  C   UNL     1      -5.293  -8.968  -2.605  0.00  0.00    +0.201 C 
ATOM      9  C   UNL     1      -5.428  -7.655  -2.885  0.00  0.00    +0.098 C 
ATOM     10  C   UNL     1      -4.654  -6.579  -2.166  0.00  0.00    +0.102 C 
ENDROOT
BRANCH   1  14
ATOM     11  C   UNL     1      -1.488  -2.559  -0.641  0.00  0.00    +0.121 A 
ATOM     12  C   UNL     1      -1.458  -3.310   0.527  0.00  0.00    +0.046 A 
ATOM     13  C   UNL     1      -1.782  -4.649   0.496  0.00  0.00    +0.013 A 
ATOM     14  C   UNL     1      -2.140  -5.251  -0.711  0.00  0.00    +0.000 A 
ATOM     15  C   UNL     1      -2.170  -4.493  -1.883  0.00  0.00    +0.013 A 
ATOM     16  C   UNL     1      -1.849  -3.153  -1.843  0.00  0.00    +0.046 A 
BRANCH  11  17
ATOM     17  O   UNL     1      -1.168  -1.239  -0.606  0.00  0.00    -0.492 OA
BRANCH  17  19
ATOM     18  C   UNL     1      -0.482   0.795   0.505  0.00  0.00    +0.048 C 
ATOM     19  C   UNL     1      -0.806  -0.692   0.664  0.00  0.00    +0.225 C 
ENDBRANCH  17  19
ENDBRANCH  11  17
ENDBRANCH   1  14
BRANCH  10  20
ATOM     20  C   UNL     1      -5.571  -5.824  -1.238  0.00  0.00    -0.034 A 
ATOM     21  C   UNL     1      -6.200  -6.487  -0.201  0.00  0.00    +0.008 A 
ATOM     22  C   UNL     1      -7.042  -5.798   0.651  0.00  0.00    +0.046 A 
ATOM     23  C   UNL     1      -7.255  -4.440   0.464  0.00  0.00    +0.121 A 
ATOM     24  C   UNL     1      -6.623  -3.777  -0.578  0.00  0.00    +0.046 A 
ATOM     25  C   UNL     1      -5.778  -4.470  -1.423  0.00  0.00    +0.008 A 
BRANCH  23  26
ATOM     26  O   UNL     1      -8.083  -3.760   1.300  0.00  0.00    -0.489 OA
BRANCH  26  27
ATOM     27  C   UNL     1      -8.613  -4.480   2.416  0.00  0.00    +0.167 C 
ATOM     28  C   UNL     1      -8.975  -3.497   3.531  0.00  0.00    +0.051 C 
ATOM     29  C   UNL     1      -9.866  -5.243   1.982  0.00  0.00    +0.051 C 
ENDBRANCH  26  27
ENDBRANCH  23  26
ENDBRANCH  10  20
BRANCH   8  30
ATOM     30  N   UNL     1      -6.055  -9.856  -3.323  0.00  0.00    -0.328 N 
ATOM     31  H   UNL     1      -5.984 -10.807  -3.149  0.00  0.00    +0.145 HD
ATOM     32  H   UNL     1      -6.665  -9.532  -4.004  0.00  0.00    +0.145 HD
ENDBRANCH   8  30
BRANCH   9  33
ATOM     33  C   UNL     1      -6.349  -7.265  -3.909  0.00  0.00    +0.101 C 
ATOM     34  N   UNL     1      -7.080  -6.957  -4.722  0.00  0.00    -0.191 NA
ENDBRANCH   9  33
TORSDOF 8
