REMARK  Name = ZINC40824711
REMARK  7 active torsions:
REMARK  status: ('A' for Active; 'I' for Inactive)
REMARK    1  A    between atoms: C_1  and  C_2
REMARK    2  A    between atoms: C_2  and  C_3
REMARK    3  A    between atoms: C_3  and  C_5
REMARK    4  A    between atoms: C_3  and  N_6
REMARK    5  A    between atoms: C_7  and  C_9
REMARK    6  A    between atoms: C_10  and  C_23
REMARK    7  A    between atoms: N_18  and  N_19
REMARK                            x       y       z     vdW  Elec       q    Type
REMARK                         _______ _______ _______ _____ _____    ______ ____
ROOT
ATOM      1  C   UNL     1      -4.122   0.346  -2.510  0.00  0.00    +0.193 A 
ATOM      2  C   UNL     1      -5.470   0.497  -2.675  0.00  0.00    +0.009 A 
ATOM      3  C   UNL     1      -5.662   0.869  -4.011  0.00  0.00    +0.042 A 
ATOM      4  C   UNL     1      -4.423   0.929  -4.605  0.00  0.00    +0.115 A 
ATOM      5  O   UNL     1      -3.511   0.619  -3.686  0.00  0.00    -0.454 OA
ATOM      6  C   UNL     1      -4.225   1.295  -6.054  0.00  0.00    +0.075 C 
ATOM      7  C   UNL     1      -5.532   1.071  -6.819  0.00  0.00    +0.014 C 
ATOM      8  C   UNL     1      -6.692   1.798  -6.131  0.00  0.00    +0.058 C 
ATOM      9  C   UNL     1      -6.902   1.171  -4.761  0.00  0.00    +0.072 C 
ATOM     10  N   UNL     1      -8.082   0.919  -4.284  0.00  0.00    -0.175 NA
ATOM     11  C   UNL     1      -6.537   0.300  -1.629  0.00  0.00    +0.048 C 
ENDROOT
BRANCH  10  12
ATOM     12  N   UNL     1      -9.222   1.226  -5.038  0.00  0.00    -0.248 N 
ATOM     13  C   UNL     1     -10.467   0.960  -4.535  0.00  0.00    +0.187 C 
ATOM     14  N   UNL     1     -11.552   1.252  -5.252  0.00  0.00    -0.370 N 
ATOM     15  N   UNL     1     -10.595   0.409  -3.328  0.00  0.00    -0.370 N 
ATOM     16  H   UNL     1      -9.130   1.627  -5.916  0.00  0.00    +0.192 HD
ATOM     17  H   UNL     1     -11.460   1.653  -6.130  0.00  0.00    +0.159 HD
ATOM     18  H   UNL     1      -9.805   0.197  -2.806  0.00  0.00    +0.159 HD
ATOM     19  H   UNL     1     -11.477   0.221  -2.971  0.00  0.00    +0.159 HD
ATOM     20  H   UNL     1     -12.434   1.063  -4.895  0.00  0.00    +0.159 HD
ENDBRANCH  10  12
BRANCH   1  22
ATOM     21  N   UNL     1      -2.105  -0.148  -1.230  0.00  0.00    -0.306 N 
ATOM     22  C   UNL     1      -3.448  -0.040  -1.265  0.00  0.00    +0.280 C 
ATOM     23  O   UNL     1      -4.103  -0.261  -0.263  0.00  0.00    -0.267 OA
ATOM     24  H   UNL     1      -1.584   0.029  -2.029  0.00  0.00    +0.149 HD
BRANCH  21  25
ATOM     25  C   UNL     1      -1.433  -0.534   0.013  0.00  0.00    +0.070 C 
ATOM     26  C   UNL     1      -1.413  -2.059   0.130  0.00  0.00    +0.028 C 
BRANCH  25  28
ATOM     27  C   UNL     1      -0.019   1.526   0.010  0.00  0.00    +0.005 C 
ATOM     28  C   UNL     1       0.002  -0.004   0.002  0.00  0.00    +0.018 C 
ENDBRANCH  25  28
ENDBRANCH  21  25
ENDBRANCH   1  22
TORSDOF 4
