REMARK  Name = ZINC35033729
REMARK  10 active torsions:
REMARK  status: ('A' for Active; 'I' for Inactive)
REMARK    1  A    between atoms: C_1  and  C_2
REMARK    2  A    between atoms: C_2  and  C_3
REMARK    3  A    between atoms: C_3  and  C_5
REMARK    4  A    between atoms: C_3  and  N_20
REMARK    5  A    between atoms: N_15  and  C_16
REMARK    6  A    between atoms: C_16  and  C_17
REMARK    7  A    between atoms: C_17  and  O_18
REMARK    8  A    between atoms: O_18  and  C_19
REMARK    9  A    between atoms: C_24  and  C_27
REMARK   10  A    between atoms: C_28  and  C_30
REMARK                            x       y       z     vdW  Elec       q    Type
REMARK                         _______ _______ _______ _____ _____    ______ ____
ROOT
ATOM      1  C   UNL     1       2.551   0.537  -1.014  0.00  0.00    -0.001 C 
ENDROOT
BRANCH   1   2
ATOM      2  C   UNL     1       3.347  -0.741  -1.087  0.00  0.00    +0.099 A 
ATOM      3  N   UNL     1       2.731  -1.864  -0.875  0.00  0.00    -0.235 NA
ATOM      4  C   UNL     1       3.381  -3.053  -0.924  0.00  0.00    +0.078 A 
ATOM      5  C   UNL     1       2.719  -4.261  -0.698  0.00  0.00    +0.028 A 
ATOM      6  C   UNL     1       3.419  -5.444  -0.757  0.00  0.00    +0.002 A 
ATOM      7  C   UNL     1       4.779  -5.453  -1.040  0.00  0.00    +0.001 A 
ATOM      8  C   UNL     1       5.455  -4.275  -1.267  0.00  0.00    +0.015 A 
ATOM      9  C   UNL     1       4.764  -3.066  -1.212  0.00  0.00    +0.065 A 
ATOM     10  C   UNL     1       5.433  -1.777  -1.446  0.00  0.00    +0.262 A 
ATOM     11  O   UNL     1       6.622  -1.718  -1.698  0.00  0.00    -0.267 OA
ATOM     12  N   UNL     1       4.673  -0.659  -1.375  0.00  0.00    -0.295 N 
BRANCH  12  13
ATOM     13  C   UNL     1       5.286   0.651  -1.605  0.00  0.00    +0.154 C 
BRANCH  13  14
ATOM     14  C   UNL     1       5.810   1.209  -0.280  0.00  0.00    +0.181 C 
BRANCH  14  15
ATOM     15  O   UNL     1       6.862   0.372   0.206  0.00  0.00    -0.381 OA
ATOM     16  C   UNL     1       7.424   0.807   1.445  0.00  0.00    +0.194 C 
ENDBRANCH  14  15
ENDBRANCH  13  14
ENDBRANCH  12  13
ENDBRANCH   1   2
BRANCH   1  17
ATOM     17  N   UNL     1       1.578   0.570  -2.114  0.00  0.00    +0.388 N 
ATOM     18  C   UNL     1       2.291   0.532  -3.397  0.00  0.00    -0.059 C 
ATOM     19  C   UNL     1       1.275   0.452  -4.542  0.00  0.00    +0.090 C 
ATOM     20  N   UNL     1       0.329   1.569  -4.406  0.00  0.00    -0.298 N 
ATOM     21  C   UNL     1      -0.311   1.781  -3.098  0.00  0.00    +0.057 C 
ATOM     22  C   UNL     1       0.779   1.799  -2.021  0.00  0.00    -0.055 C 
ATOM     23  C   UNL     1      -1.058   3.116  -3.101  0.00  0.00    +0.026 C 
ATOM     24  C   UNL     1       0.056   2.377  -5.449  0.00  0.00    +0.247 C 
ATOM     25  O   UNL     1      -0.643   3.359  -5.291  0.00  0.00    -0.270 OA
ATOM     26  H   UNL     1       0.969  -0.231  -2.047  0.00  0.00    -0.081 HD
BRANCH  24  27
ATOM     27  C   UNL     1       0.606   2.070  -6.786  0.00  0.00    +0.037 A 
ATOM     28  C   UNL     1       0.904   0.751  -7.135  0.00  0.00    +0.014 A 
ATOM     29  C   UNL     1       1.418   0.470  -8.383  0.00  0.00    +0.016 A 
ATOM     30  C   UNL     1       1.638   1.493  -9.290  0.00  0.00    +0.018 A 
ATOM     31  C   UNL     1       1.344   2.803  -8.951  0.00  0.00    +0.016 A 
ATOM     32  C   UNL     1       0.825   3.096  -7.707  0.00  0.00    +0.014 A 
ATOM     33 BR   UNL     1       2.343   1.099 -11.001  0.00  0.00    -0.050 Br
ENDBRANCH  24  27
ENDBRANCH   1  17
BRANCH   1  35
ATOM     34  C   UNL     1       2.827   0.587   1.469  0.00  0.00    +0.002 C 
ATOM     35  C   UNL     1       1.812   0.602   0.324  0.00  0.00    -0.011 C 
ENDBRANCH   1  35
TORSDOF 7
