REMARK  Name = ZINC06281055
REMARK  9 active torsions:
REMARK  status: ('A' for Active; 'I' for Inactive)
REMARK    1  A    between atoms: C_1  and  C_2
REMARK    2  A    between atoms: C_9  and  C_11
REMARK    3  A    between atoms: C_12  and  C_35
REMARK    4  A    between atoms: C_16  and  C_18
REMARK    5  A    between atoms: C_22  and  O_26
REMARK    6  A    between atoms: C_23  and  O_24
REMARK    7  A    between atoms: O_24  and  C_25
REMARK    8  A    between atoms: O_26  and  C_27
REMARK    9  A    between atoms: C_31  and  C_34
REMARK                            x       y       z     vdW  Elec       q    Type
REMARK                         _______ _______ _______ _____ _____    ______ ____
ROOT
ATOM      1  C   UNL     1      -0.899   4.524   0.167  0.00  0.00    +0.043 C 
ATOM      2  C   UNL     1      -1.779   3.510   0.219  0.00  0.00    +0.014 C 
ATOM      3  N   UNL     1      -1.343   2.214   0.220  0.00  0.00    -0.321 N 
ATOM      4  C   UNL     1      -0.052   1.912   0.563  0.00  0.00    +0.016 C 
ATOM      5  C   UNL     1       0.906   2.863   0.526  0.00  0.00    +0.024 C 
ATOM      6  C   UNL     1       0.578   4.271   0.099  0.00  0.00    +0.094 C 
ATOM      7  C   UNL     1       2.235   2.568   0.880  0.00  0.00    +0.162 C 
ATOM      8  O   UNL     1       3.069   3.451   0.854  0.00  0.00    -0.292 OA
ATOM      9  C   UNL     1       2.641   1.179   1.290  0.00  0.00    +0.083 C 
ATOM     10  C   UNL     1       1.714   0.167   0.607  0.00  0.00    -0.001 C 
ATOM     11  C   UNL     1       0.270   0.500   0.986  0.00  0.00    +0.055 C 
ATOM     12  C   UNL     1       2.056  -1.248   1.078  0.00  0.00    +0.008 C 
ATOM     13  C   UNL     1      -3.256   3.802   0.279  0.00  0.00    +0.061 C 
ATOM     14  H   UNL     1      -2.031   1.402  -0.056  0.00  0.00    +0.152 HD
ENDROOT
BRANCH   1  23
ATOM     15  C   UNL     1      -2.512  12.126  -0.256  0.00  0.00    +0.045 C 
ATOM     16  C   UNL     1      -1.940  10.734  -0.171  0.00  0.00    -0.032 A 
ATOM     17  C   UNL     1      -0.573  10.528  -0.306  0.00  0.00    +0.008 A 
ATOM     18  C   UNL     1      -0.088   9.236  -0.216  0.00  0.00    +0.044 A 
ATOM     19  C   UNL     1      -0.982   8.191  -0.006  0.00  0.00    +0.125 A 
ATOM     20  N   UNL     1      -2.279   8.428   0.117  0.00  0.00    -0.240 NA
ATOM     21  C   UNL     1      -2.769   9.651   0.042  0.00  0.00    +0.116 A 
ATOM     22  N   UNL     1      -0.508   6.884   0.080  0.00  0.00    -0.267 N 
ATOM     23  C   UNL     1      -1.376   5.858   0.177  0.00  0.00    +0.248 C 
ATOM     24  O   UNL     1      -2.570   6.077   0.274  0.00  0.00    -0.270 OA
ATOM     25  H   UNL     1       0.575   6.690   0.069  0.00  0.00    +0.157 HD
ENDBRANCH   1  23
BRANCH   6  26
ATOM     26  C   UNL     1       1.051   4.482  -1.316  0.00  0.00    +0.010 A 
ATOM     27  C   UNL     1       0.657   3.610  -2.314  0.00  0.00    +0.008 A 
ATOM     28  C   UNL     1       1.088   3.801  -3.614  0.00  0.00    +0.004 A 
ATOM     29  C   UNL     1       1.917   4.865  -3.921  0.00  0.00    +0.049 A 
ATOM     30  C   UNL     1       2.316   5.742  -2.926  0.00  0.00    +0.162 A 
ATOM     31  C   UNL     1       1.877   5.553  -1.618  0.00  0.00    +0.166 A 
BRANCH  31  32
ATOM     32  O   UNL     1       2.261   6.415  -0.639  0.00  0.00    -0.491 OA
ATOM     33  C   UNL     1       3.562   6.223  -0.081  0.00  0.00    +0.277 C 
ENDBRANCH  31  32
BRANCH  30  34
ATOM     34  O   UNL     1       3.130   6.789  -3.226  0.00  0.00    -0.491 OA
ATOM     35  C   UNL     1       3.536   6.925  -4.590  0.00  0.00    +0.277 C 
ENDBRANCH  30  34
ENDBRANCH   6  26
TORSDOF 4
