REMARK  Name = ZINC40011000
REMARK  14 active torsions:
REMARK  status: ('A' for Active; 'I' for Inactive)
REMARK    1  A    between atoms: C_1  and  C_2
REMARK    2  A    between atoms: C_2  and  O_3
REMARK    3  A    between atoms: O_3  and  C_4
REMARK    4  A    between atoms: C_4  and  C_5
REMARK    5  A    between atoms: C_5  and  C_6
REMARK    6  A    between atoms: C_6  and  N_7
REMARK    7  A    between atoms: N_7  and  C_8
REMARK    8  A    between atoms: C_8  and  N_10
REMARK    9  A    between atoms: C_15  and  O_36
REMARK   10  A    between atoms: C_16  and  O_34
REMARK   11  A    between atoms: C_19  and  C_21
REMARK   12  A    between atoms: C_27  and  C_33
REMARK   13  A    between atoms: O_34  and  C_35
REMARK   14  A    between atoms: O_36  and  C_37
REMARK                            x       y       z     vdW  Elec       q    Type
REMARK                         _______ _______ _______ _____ _____    ______ ____
ROOT
ATOM      1  N   UNL     1      -6.043  -5.931  -0.074  0.00  0.00    -0.304 N 
ATOM      2  C   UNL     1      -7.113  -4.925  -0.177  0.00  0.00    +0.112 C 
ATOM      3  C   UNL     1      -7.785  -5.092  -1.538  0.00  0.00    +0.054 C 
ATOM      4  C   UNL     1      -8.103  -6.540  -1.805  0.00  0.00    -0.037 A 
ATOM      5  C   UNL     1      -9.071  -6.820  -2.764  0.00  0.00    +0.053 A 
ATOM      6  C   UNL     1      -9.406  -8.126  -3.066  0.00  0.00    +0.162 A 
ATOM      7  C   UNL     1      -8.767  -9.172  -2.405  0.00  0.00    +0.162 A 
ATOM      8  C   UNL     1      -7.807  -8.890  -1.450  0.00  0.00    +0.055 A 
ATOM      9  C   UNL     1      -7.479  -7.576  -1.146  0.00  0.00    -0.019 A 
ATOM     10  C   UNL     1      -6.442  -7.342  -0.081  0.00  0.00    +0.121 C 
ENDROOT
BRANCH  10  11
ATOM     11  C   UNL     1      -7.028  -7.712   1.283  0.00  0.00    +0.123 C 
ATOM     12  C   UNL     1      -5.929  -7.565   2.317  0.00  0.00    -0.003 C 
ATOM     13  C   UNL     1      -6.155  -6.708   3.353  0.00  0.00    -0.007 A 
ATOM     14  C   UNL     1      -5.148  -6.506   4.395  0.00  0.00    +0.010 A 
ATOM     15  C   UNL     1      -5.417  -5.643   5.408  0.00  0.00    +0.004 A 
ATOM     16  C   UNL     1      -6.627  -4.952   5.471  0.00  0.00    -0.049 A 
ATOM     17  C   UNL     1      -7.602  -5.094   4.535  0.00  0.00    +0.027 A 
ATOM     18  C   UNL     1      -7.424  -5.964   3.444  0.00  0.00    +0.041 A 
ATOM     19  N   UNL     1      -8.387  -6.096   2.533  0.00  0.00    -0.284 N 
ATOM     20  C   UNL     1      -8.285  -6.895   1.485  0.00  0.00    +0.226 C 
ATOM     21  O   UNL     1      -9.198  -6.973   0.686  0.00  0.00    -0.275 OA
ATOM     22  C   UNL     1      -6.862  -4.009   6.623  0.00  0.00    +0.044 C 
ATOM     23  H   UNL     1      -9.202  -5.581   2.643  0.00  0.00    +0.155 HD
ENDBRANCH  10  11
BRANCH   1  24
ATOM     24  C   UNL     1      -4.747  -5.569   0.018  0.00  0.00    +0.133 C 
ATOM     25  S   UNL     1      -4.328  -3.915   0.151  0.00  0.00    -0.019 S 
BRANCH  24  26
ATOM     26  N   UNL     1      -3.783  -6.510   0.004  0.00  0.00    -0.326 N 
ATOM     27  H   UNL     1      -4.022  -7.450   0.002  0.00  0.00    +0.148 HD
BRANCH  26  28
ATOM     28  C   UNL     1      -2.373  -6.113  -0.010  0.00  0.00    +0.105 C 
BRANCH  28  29
ATOM     29  C   UNL     1      -1.491  -7.363  -0.024  0.00  0.00    +0.047 C 
BRANCH  29  30
ATOM     30  C   UNL     1      -0.018  -6.949  -0.038  0.00  0.00    +0.161 C 
BRANCH  30  31
ATOM     31  O   UNL     1       0.805  -8.117  -0.051  0.00  0.00    -0.380 OA
BRANCH  31  33
ATOM     32  C   UNL     1       2.987  -9.155  -0.079  0.00  0.00    +0.034 C 
ATOM     33  C   UNL     1       2.207  -7.839  -0.065  0.00  0.00    +0.156 C 
ENDBRANCH  31  33
ENDBRANCH  30  31
ENDBRANCH  29  30
ENDBRANCH  28  29
ENDBRANCH  26  28
ENDBRANCH  24  26
ENDBRANCH   1  24
BRANCH   7  34
ATOM     34  O   UNL     1      -9.084 -10.461  -2.697  0.00  0.00    -0.491 OA
ATOM     35  C   UNL     1      -8.386 -11.480  -1.978  0.00  0.00    +0.277 C 
ENDBRANCH   7  34
BRANCH   6  36
ATOM     36  O   UNL     1     -10.355  -8.389  -4.003  0.00  0.00    -0.491 OA
ATOM     37  C   UNL     1     -10.967  -7.265  -4.639  0.00  0.00    +0.277 C 
ENDBRANCH   6  36
TORSDOF 10
