REMARK  Name = ZINC33751722
REMARK  13 active torsions:
REMARK  status: ('A' for Active; 'I' for Inactive)
REMARK    1  A    between atoms: C_1  and  C_2
REMARK    2  A    between atoms: C_2  and  O_3
REMARK    3  A    between atoms: O_3  and  C_4
REMARK    4  A    between atoms: C_4  and  C_5
REMARK    5  A    between atoms: C_5  and  C_6
REMARK    6  A    between atoms: C_6  and  N_7
REMARK    7  A    between atoms: N_7  and  C_8
REMARK    8  A    between atoms: C_9  and  C_20
REMARK    9  A    between atoms: C_14  and  C_19
REMARK   10  A    between atoms: N_24  and  C_28
REMARK   11  A    between atoms: C_28  and  C_29
REMARK   12  A    between atoms: C_32  and  O_35
REMARK   13  A    between atoms: O_35  and  C_36
REMARK                            x       y       z     vdW  Elec       q    Type
REMARK                         _______ _______ _______ _____ _____    ______ ____
ROOT
ATOM      1  C   UNL     1       2.384   1.607   0.173  0.00  0.00    +0.134 A 
ATOM      2  C   UNL     1       1.045   2.014  -0.030  0.00  0.00    +0.081 A 
ATOM      3  C   UNL     1       0.790   3.384  -0.279  0.00  0.00    +0.267 A 
ATOM      4  O   UNL     1      -0.348   3.780  -0.464  0.00  0.00    -0.267 OA
ATOM      5  N   UNL     1       1.829   4.247  -0.302  0.00  0.00    -0.267 N 
ATOM      6  C   UNL     1       1.592   5.569  -0.536  0.00  0.00    +0.099 A 
ATOM      7  C   UNL     1       2.610   6.459  -0.571  0.00  0.00    -0.034 A 
ATOM      8  C   UNL     1       3.928   6.028  -0.366  0.00  0.00    +0.008 A 
ATOM      9  C   UNL     1       4.175   4.708  -0.131  0.00  0.00    +0.047 A 
ATOM     10  C   UNL     1       3.103   3.797  -0.098  0.00  0.00    +0.142 A 
ATOM     11  N   UNL     1       3.355   2.508   0.132  0.00  0.00    -0.214 NA
ATOM     12  C   UNL     1       2.327   7.916  -0.832  0.00  0.00    +0.045 C 
ENDROOT
BRANCH   2  13
ATOM     13  C   UNL     1      -0.013   1.076   0.008  0.00  0.00    +0.037 C 
ATOM     14  C   UNL     1      -0.950   1.144   0.997  0.00  0.00    +0.077 C 
ATOM     15  C   UNL     1      -0.994   1.982   2.148  0.00  0.00    +0.259 C 
ATOM     16  O   UNL     1      -0.109   2.791   2.368  0.00  0.00    -0.269 OA
ATOM     17  N   UNL     1      -2.022   1.859   2.970  0.00  0.00    -0.251 N 
ATOM     18  C   UNL     1      -3.004   0.963   2.725  0.00  0.00    +0.121 C 
ATOM     19  S   UNL     1      -4.412   0.636   3.642  0.00  0.00    -0.027 S 
ATOM     20  S   UNL     1      -2.462   0.211   1.197  0.00  0.00    -0.061 S 
BRANCH  17  21
ATOM     21  C   UNL     1      -2.098   2.705   4.163  0.00  0.00    +0.150 C 
BRANCH  21  22
ATOM     22  C   UNL     1      -2.835   3.977   3.830  0.00  0.00    -0.029 A 
ATOM     23  C   UNL     1      -2.137   5.082   3.380  0.00  0.00    +0.009 A 
ATOM     24  C   UNL     1      -2.811   6.247   3.068  0.00  0.00    +0.046 A 
ATOM     25  C   UNL     1      -4.189   6.311   3.219  0.00  0.00    +0.120 A 
ATOM     26  C   UNL     1      -4.886   5.203   3.677  0.00  0.00    +0.046 A 
ATOM     27  C   UNL     1      -4.208   4.038   3.981  0.00  0.00    +0.009 A 
BRANCH  25  28
ATOM     28  O   UNL     1      -4.854   7.458   2.919  0.00  0.00    -0.495 OA
ATOM     29  C   UNL     1      -4.071   8.559   2.453  0.00  0.00    +0.277 C 
ENDBRANCH  25  28
ENDBRANCH  21  22
ENDBRANCH  17  21
ENDBRANCH   2  13
BRANCH   1  30
ATOM     30  N   UNL     1       2.677   0.282   0.414  0.00  0.00    -0.328 N 
ATOM     31  H   UNL     1       1.868  -0.463   0.448  0.00  0.00    +0.147 HD
BRANCH  30  32
ATOM     32  C   UNL     1       4.066  -0.135   0.624  0.00  0.00    +0.105 C 
BRANCH  32  33
ATOM     33  C   UNL     1       4.114  -1.644   0.868  0.00  0.00    +0.047 C 
BRANCH  33  34
ATOM     34  C   UNL     1       5.564  -2.079   1.087  0.00  0.00    +0.161 C 
BRANCH  34  35
ATOM     35  O   UNL     1       5.609  -3.489   1.315  0.00  0.00    -0.380 OA
BRANCH  35  37
ATOM     36  C   UNL     1       6.854  -5.512   1.765  0.00  0.00    +0.034 C 
ATOM     37  C   UNL     1       6.926  -4.001   1.533  0.00  0.00    +0.156 C 
ENDBRANCH  35  37
ENDBRANCH  34  35
ENDBRANCH  33  34
ENDBRANCH  32  33
ENDBRANCH  30  32
ENDBRANCH   1  30
TORSDOF 10
