REMARK  Name = ZINC09010783
REMARK  9 active torsions:
REMARK  status: ('A' for Active; 'I' for Inactive)
REMARK    1  A    between atoms: C_1  and  O_2
REMARK    2  A    between atoms: O_2  and  C_3
REMARK    3  A    between atoms: C_3  and  C_5
REMARK    4  A    between atoms: C_5  and  C_15
REMARK    5  A    between atoms: C_15  and  C_17
REMARK    6  A    between atoms: C_17  and  S_18
REMARK    7  A    between atoms: S_18  and  C_19
REMARK    8  A    between atoms: N_29  and  C_30
REMARK    9  A    between atoms: C_30  and  C_31
REMARK                            x       y       z     vdW  Elec       q    Type
REMARK                         _______ _______ _______ _____ _____    ______ ____
ROOT
ATOM      1  C   UNL     1      -3.800  -1.496   0.033  0.00  0.00    +0.157 C 
ENDROOT
BRANCH   1   2
ATOM      2  C   UNL     1      -5.218  -2.007   0.044  0.00  0.00    +0.183 C 
ATOM      3  O   UNL     1      -5.434  -3.203   0.041  0.00  0.00    -0.291 OA
BRANCH   2   4
ATOM      4  C   UNL     1      -6.293  -1.098   0.060  0.00  0.00    +0.138 C 
ATOM      5  C   UNL     1      -7.617  -1.575   0.071  0.00  0.00    +0.110 C 
ATOM      6  N   UNL     1      -7.982  -2.882   0.062  0.00  0.00    -0.301 N 
ATOM      7  C   UNL     1      -9.370  -2.948   0.080  0.00  0.00    +0.054 A 
ATOM      8  C   UNL     1     -10.270  -4.005   0.083  0.00  0.00    +0.025 A 
ATOM      9  C   UNL     1     -11.627  -3.753   0.097  0.00  0.00    +0.002 A 
ATOM     10  C   UNL     1     -12.095  -2.450   0.109  0.00  0.00    +0.002 A 
ATOM     11  C   UNL     1     -11.210  -1.392   0.107  0.00  0.00    +0.025 A 
ATOM     12  C   UNL     1      -9.843  -1.634   0.092  0.00  0.00    +0.054 A 
ATOM     13  N   UNL     1      -8.731  -0.800   0.086  0.00  0.00    -0.301 N 
ATOM     14  H   UNL     1      -7.377  -3.640   0.047  0.00  0.00    +0.153 HD
ATOM     15  H   UNL     1      -8.748   0.170   0.091  0.00  0.00    +0.153 HD
BRANCH   4  16
ATOM     16  C   UNL     1      -6.033   0.340   0.064  0.00  0.00    +0.345 C 
ATOM     17  O   UNL     1      -6.963   1.126   0.078  0.00  0.00    -0.245 OA
BRANCH  16  19
ATOM     18  C   UNL     1      -4.585   2.215   0.059  0.00  0.00    +0.280 C 
ATOM     19  O   UNL     1      -4.764   0.797   0.054  0.00  0.00    -0.464 OA
ENDBRANCH  16  19
ENDBRANCH   4  16
ENDBRANCH   2   4
ENDBRANCH   1   2
BRANCH   1  20
ATOM     20  S   UNL     1      -2.655  -2.898   0.014  0.00  0.00    -0.080 S 
BRANCH  20  21
ATOM     21  C   UNL     1      -1.118  -2.037   0.003  0.00  0.00    +0.173 A 
ATOM     22  N   UNL     1      -1.136  -0.727   0.009  0.00  0.00    -0.223 NA
ATOM     23  C   UNL     1       0.002  -0.004   0.002  0.00  0.00    +0.079 A 
ATOM     24  C   UNL     1      -0.017   1.394   0.010  0.00  0.00    +0.028 A 
ATOM     25  C   UNL     1       1.161   2.086   0.002  0.00  0.00    +0.002 A 
ATOM     26  C   UNL     1       2.381   1.422  -0.013  0.00  0.00    +0.001 A 
ATOM     27  C   UNL     1       2.432   0.055  -0.021  0.00  0.00    +0.015 A 
ATOM     28  C   UNL     1       1.245  -0.677  -0.013  0.00  0.00    +0.065 A 
ATOM     29  C   UNL     1       1.240  -2.146  -0.021  0.00  0.00    +0.263 A 
ATOM     30  O   UNL     1       2.278  -2.781  -0.034  0.00  0.00    -0.267 OA
ATOM     31  N   UNL     1       0.037  -2.766  -0.012  0.00  0.00    -0.280 N 
BRANCH  31  32
ATOM     32  C   UNL     1      -0.027  -4.229  -0.019  0.00  0.00    +0.201 C 
BRANCH  32  33
ATOM     33  C   UNL     1      -0.063  -4.724  -1.443  0.00  0.00    +0.125 A 
ATOM     34  C   UNL     1       1.009  -5.024  -2.198  0.00  0.00    +0.046 A 
ATOM     35  C   UNL     1       0.519  -5.447  -3.455  0.00  0.00    +0.041 A 
ATOM     36  C   UNL     1      -0.823  -5.372  -3.395  0.00  0.00    +0.195 A 
ATOM     37  O   UNL     1      -1.170  -4.933  -2.174  0.00  0.00    -0.466 OA
ENDBRANCH  32  33
ENDBRANCH  31  32
ENDBRANCH  20  21
ENDBRANCH   1  20
TORSDOF 8
