REMARK  Name = ZINC35967655
REMARK  9 active torsions:
REMARK  status: ('A' for Active; 'I' for Inactive)
REMARK    1  A    between atoms: C_1  and  N_2
REMARK    2  A    between atoms: C_5  and  C_10
REMARK    3  A    between atoms: C_15  and  C_16
REMARK    4  A    between atoms: N_22  and  C_24
REMARK    5  A    between atoms: C_24  and  C_25
REMARK    6  A    between atoms: C_25  and  C_26
REMARK    7  A    between atoms: N_28  and  C_29
REMARK    8  A    between atoms: C_29  and  C_30
REMARK    9  A    between atoms: C_30  and  C_31
REMARK                            x       y       z     vdW  Elec       q    Type
REMARK                         _______ _______ _______ _____ _____    ______ ____
ROOT
ATOM      1  C   UNL     1      -1.867   1.072   0.129  0.00  0.00    +0.139 C 
ATOM      2  N   UNL     1      -1.323  -0.287   0.089  0.00  0.00    -0.260 N 
ATOM      3  C   UNL     1      -2.191  -1.334   0.213  0.00  0.00    +0.042 C 
ATOM      4  C   UNL     1      -1.756  -2.610   0.184  0.00  0.00    +0.058 C 
ATOM      5  C   UNL     1      -0.270  -2.844   0.009  0.00  0.00    +0.142 C 
ATOM      6  N   UNL     1       0.583  -1.650  -0.117  0.00  0.00    -0.288 N 
ATOM      7  C   UNL     1      -0.002  -0.436  -0.074  0.00  0.00    +0.307 C 
ATOM      8  O   UNL     1       0.693   0.555  -0.181  0.00  0.00    -0.252 OA
ATOM      9  C   UNL     1      -2.840  -3.501   0.333  0.00  0.00    +0.247 C 
ATOM     10  O   UNL     1      -2.737  -4.714   0.343  0.00  0.00    -0.270 OA
ATOM     11  N   UNL     1      -4.002  -2.835   0.461  0.00  0.00    -0.292 N 
ATOM     12  C   UNL     1      -3.691  -1.399   0.397  0.00  0.00    +0.159 C 
ATOM     13  H   UNL     1       1.542  -1.735  -0.232  0.00  0.00    +0.151 HD
ENDROOT
BRANCH   5  14
ATOM     14  C   UNL     1      -0.074  -3.685  -1.226  0.00  0.00    -0.011 A 
ATOM     15  C   UNL     1      -0.275  -3.133  -2.478  0.00  0.00    +0.006 A 
ATOM     16  C   UNL     1      -0.096  -3.905  -3.611  0.00  0.00    +0.000 A 
ATOM     17  C   UNL     1       0.284  -5.229  -3.492  0.00  0.00    +0.001 A 
ATOM     18  C   UNL     1       0.486  -5.780  -2.241  0.00  0.00    +0.013 A 
ATOM     19  C   UNL     1       0.311  -5.008  -1.108  0.00  0.00    +0.060 A 
BRANCH  19  20
ATOM     20  C   UNL     1       0.536  -5.608   0.256  0.00  0.00    +0.418 C 
ATOM     21  F   UNL     1       0.851  -6.964   0.122  0.00  0.00    -0.166 F 
ATOM     22  F   UNL     1       1.592  -4.944   0.889  0.00  0.00    -0.166 F 
ATOM     23  F   UNL     1      -0.626  -5.472   1.022  0.00  0.00    -0.166 F 
ENDBRANCH  19  20
ENDBRANCH   5  14
BRANCH  11  24
ATOM     24  C   UNL     1      -5.329  -3.430   0.633  0.00  0.00    +0.117 C 
BRANCH  24  25
ATOM     25  C   UNL     1      -5.618  -3.610   2.125  0.00  0.00    +0.114 C 
BRANCH  25  26
ATOM     26  C   UNL     1      -6.984  -4.222   2.301  0.00  0.00    +0.215 C 
ATOM     27  O   UNL     1      -7.660  -4.488   1.330  0.00  0.00    -0.276 OA
ATOM     28  N   UNL     1      -7.454  -4.474   3.539  0.00  0.00    -0.315 N 
ATOM     29  H   UNL     1      -6.914  -4.261   4.316  0.00  0.00    +0.149 HD
BRANCH  28  30
ATOM     30  C   UNL     1      -8.782  -5.069   3.711  0.00  0.00    +0.110 C 
BRANCH  30  31
ATOM     31  C   UNL     1      -9.071  -5.249   5.203  0.00  0.00    +0.074 C 
BRANCH  31  32
ATOM     32  C   UNL     1     -10.437  -5.861   5.380  0.00  0.00    +0.043 A 
ATOM     33  C   UNL     1     -10.575  -7.022   6.117  0.00  0.00    +0.023 A 
ATOM     34  C   UNL     1     -11.836  -7.577   6.274  0.00  0.00    +0.003 A 
ATOM     35  C   UNL     1     -12.915  -6.940   5.680  0.00  0.00    +0.020 A 
ATOM     36  C   UNL     1     -12.700  -5.783   4.957  0.00  0.00    +0.111 A 
ATOM     37  N   UNL     1     -11.487  -5.280   4.833  0.00  0.00    -0.260 NA
ENDBRANCH  31  32
ENDBRANCH  30  31
ENDBRANCH  28  30
ENDBRANCH  25  26
ENDBRANCH  24  25
ENDBRANCH  11  24
TORSDOF 8
