REMARK  Name = ZINC45726809
REMARK  10 active torsions:
REMARK  status: ('A' for Active; 'I' for Inactive)
REMARK    1  A    between atoms: C_4  and  C_7
REMARK    2  A    between atoms: C_10  and  O_13
REMARK    3  A    between atoms: O_13  and  C_14
REMARK    4  A    between atoms: C_14  and  C_15
REMARK    5  A    between atoms: C_15  and  C_17
REMARK    6  A    between atoms: C_15  and  O_32
REMARK    7  A    between atoms: C_17  and  S_18
REMARK    8  A    between atoms: S_18  and  C_19
REMARK    9  A    between atoms: C_22  and  C_25
REMARK   10  A    between atoms: N_23  and  N_24
REMARK                            x       y       z     vdW  Elec       q    Type
REMARK                         _______ _______ _______ _____ _____    ______ ____
ROOT
ATOM      1  C   UNL     1       8.662  -4.680  -0.261  0.00  0.00    +0.162 C 
ENDROOT
BRANCH   1   2
ATOM      2  O   UNL     1       9.455  -4.262   0.852  0.00  0.00    -0.388 OA
ATOM      3  H   UNL     1       9.120  -4.563   1.708  0.00  0.00    +0.210 HD
ENDBRANCH   1   2
BRANCH   1   4
ATOM      4  C   UNL     1       7.243  -4.128  -0.113  0.00  0.00    +0.261 C 
BRANCH   4   5
ATOM      5  O   UNL     1       7.276  -2.701  -0.186  0.00  0.00    -0.489 OA
BRANCH   5   9
ATOM      6  C   UNL     1       3.670  -0.722   0.161  0.00  0.00    -0.018 A 
ATOM      7  C   UNL     1       4.848   0.000  -0.019  0.00  0.00    +0.012 A 
ATOM      8  C   UNL     1       6.051  -0.664  -0.135  0.00  0.00    +0.046 A 
ATOM      9  C   UNL     1       6.090  -2.050  -0.072  0.00  0.00    +0.121 A 
ATOM     10  C   UNL     1       4.918  -2.772   0.108  0.00  0.00    +0.046 A 
ATOM     11  C   UNL     1       3.712  -2.113   0.230  0.00  0.00    +0.012 A 
BRANCH   6  15
ATOM     12  C   UNL     1      -0.044   1.317   0.518  0.00  0.00    +0.000 A 
ATOM     13  C   UNL     1       1.122   2.037   0.334  0.00  0.00    +0.001 A 
ATOM     14  C   UNL     1       2.330   1.381   0.217  0.00  0.00    +0.008 A 
ATOM     15  C   UNL     1       2.374  -0.010   0.286  0.00  0.00    -0.018 A 
ATOM     16  C   UNL     1       1.196  -0.731   0.472  0.00  0.00    +0.008 A 
ATOM     17  C   UNL     1      -0.007  -0.064   0.587  0.00  0.00    +0.001 A 
ENDBRANCH   6  15
ENDBRANCH   5   9
ENDBRANCH   4   5
ENDBRANCH   1   4
BRANCH   1  18
ATOM     18  C   UNL     1       8.613  -6.208  -0.307  0.00  0.00    +0.112 C 
BRANCH  18  19
ATOM     19  S   UNL     1      10.296  -6.862  -0.483  0.00  0.00    -0.082 S 
BRANCH  19  20
ATOM     20  C   UNL     1      10.072  -8.610  -0.520  0.00  0.00    +0.209 A 
ATOM     21  N   UNL     1       8.928  -9.251  -0.442  0.00  0.00    -0.121 NA
ATOM     22  N   UNL     1       9.128 -10.519  -0.500  0.00  0.00    -0.127 NA
ATOM     23  C   UNL     1      10.412 -10.766  -0.619  0.00  0.00    +0.183 A 
ATOM     24  N   UNL     1      11.056  -9.550  -0.641  0.00  0.00    -0.224 N 
BRANCH  23  25
ATOM     25  C   UNL     1      11.046 -12.098  -0.716  0.00  0.00    +0.035 A 
ATOM     26  C   UNL     1      12.155 -12.406   0.073  0.00  0.00    +0.013 A 
ATOM     27  C   UNL     1      12.741 -13.650  -0.022  0.00  0.00    +0.001 A 
ATOM     28  C   UNL     1      12.233 -14.594  -0.898  0.00  0.00    +0.001 A 
ATOM     29  C   UNL     1      11.134 -14.296  -1.684  0.00  0.00    +0.016 A 
ATOM     30  C   UNL     1      10.534 -13.055  -1.595  0.00  0.00    +0.029 A 
ATOM     31 BR   UNL     1       9.027 -12.652  -2.664  0.00  0.00    -0.050 Br
ENDBRANCH  23  25
BRANCH  24  32
ATOM     32  N   UNL     1      12.399  -9.329  -0.757  0.00  0.00    -0.295 N 
ATOM     33  H   UNL     1      12.854  -9.386   0.141  0.00  0.00    +0.163 HD
ATOM     34  H   UNL     1      12.815  -9.972  -1.415  0.00  0.00    +0.163 HD
ENDBRANCH  24  32
ENDBRANCH  19  20
ENDBRANCH  18  19
ENDBRANCH   1  18
TORSDOF 10
