REMARK  Name = ZINC08775540
REMARK  14 active torsions:
REMARK  status: ('A' for Active; 'I' for Inactive)
REMARK    1  A    between atoms: C_1  and  C_2
REMARK    2  A    between atoms: C_4  and  C_33
REMARK    3  A    between atoms: C_5  and  C_32
REMARK    4  A    between atoms: C_6  and  S_9
REMARK    5  A    between atoms: C_7  and  C_8
REMARK    6  A    between atoms: S_9  and  N_12
REMARK    7  A    between atoms: C_15  and  C_18
REMARK    8  A    between atoms: C_18  and  O_20
REMARK    9  A    between atoms: O_20  and  C_21
REMARK   10  A    between atoms: C_21  and  C_22
REMARK   11  A    between atoms: N_27  and  C_28
REMARK   12  A    between atoms: C_28  and  C_29
REMARK   13  A    between atoms: C_29  and  C_30
REMARK   14  A    between atoms: C_29  and  C_31
REMARK                            x       y       z     vdW  Elec       q    Type
REMARK                         _______ _______ _______ _____ _____    ______ ____
ROOT
ATOM      1  N   UNL     1       0.058  -0.572   0.857  0.00  0.00    -0.177 NA
ATOM      2  C   UNL     1      -1.214  -0.400   0.143  0.00  0.00    +0.110 C 
ATOM      3  C   UNL     1      -1.526   1.097   0.043  0.00  0.00    +0.032 C 
ATOM      4  C   UNL     1      -0.340   1.819  -0.602  0.00  0.00    +0.100 C 
ATOM      5  C   UNL     1       0.904   1.641   0.272  0.00  0.00    +0.032 C 
ATOM      6  C   UNL     1       1.243   0.151   0.374  0.00  0.00    +0.110 C 
ENDROOT
BRANCH   1   7
ATOM      7  S   UNL     1       0.155  -1.560   2.183  0.00  0.00    +0.061 S 
ATOM      8  O   UNL     1       1.262  -1.106   2.948  0.00  0.00    -0.153 OA
ATOM      9  O   UNL     1      -1.158  -1.648   2.720  0.00  0.00    -0.153 OA
BRANCH   7  15
ATOM     10  C   UNL     1       3.633  -5.352   1.264  0.00  0.00    +0.044 C 
ATOM     11  C   UNL     1       2.205  -4.873   1.202  0.00  0.00    -0.045 A 
ATOM     12  C   UNL     1       1.222  -5.698   0.690  0.00  0.00    +0.007 A 
ATOM     13  C   UNL     1      -0.088  -5.259   0.633  0.00  0.00    -0.045 A 
ATOM     14  C   UNL     1      -0.414  -3.996   1.089  0.00  0.00    -0.021 A 
ATOM     15  C   UNL     1       0.570  -3.171   1.602  0.00  0.00    +0.112 A 
ATOM     16  C   UNL     1       1.880  -3.608   1.654  0.00  0.00    -0.021 A 
ATOM     17  C   UNL     1       2.954  -2.706   2.207  0.00  0.00    +0.046 C 
ATOM     18  C   UNL     1      -1.841  -3.517   1.027  0.00  0.00    +0.046 C 
ATOM     19  C   UNL     1      -1.161  -6.159   0.075  0.00  0.00    +0.044 C 
ENDBRANCH   7  15
ENDBRANCH   1   7
BRANCH   4  20
ATOM     20  C   UNL     1      -0.656   3.286  -0.733  0.00  0.00    +0.311 C 
ATOM     21  O   UNL     1      -1.721   3.711  -0.350  0.00  0.00    -0.251 OA
BRANCH  20  22
ATOM     22  O   UNL     1       0.244   4.121  -1.275  0.00  0.00    -0.455 OA
BRANCH  22  23
ATOM     23  C   UNL     1      -0.129   5.521  -1.369  0.00  0.00    +0.328 C 
BRANCH  23  24
ATOM     24  C   UNL     1       0.998   6.300  -1.999  0.00  0.00    +0.258 C 
ATOM     25  O   UNL     1       2.014   5.730  -2.335  0.00  0.00    -0.272 OA
ATOM     26  N   UNL     1       0.876   7.628  -2.188  0.00  0.00    -0.237 N 
ATOM     27  C   UNL     1       1.883   8.324  -2.751  0.00  0.00    +0.306 C 
ATOM     28  O   UNL     1       2.902   7.754  -3.088  0.00  0.00    -0.252 OA
ATOM     29  N   UNL     1       1.761   9.653  -2.941  0.00  0.00    -0.299 N 
ATOM     30  H   UNL     1       0.062   8.084  -1.920  0.00  0.00    +0.159 HD
ATOM     31  H   UNL     1       0.948  10.108  -2.672  0.00  0.00    +0.150 HD
BRANCH  29  32
ATOM     32  C   UNL     1       2.856  10.409  -3.553  0.00  0.00    +0.108 C 
BRANCH  32  33
ATOM     33  C   UNL     1       2.463  11.885  -3.652  0.00  0.00    -0.000 C 
ATOM     34  C   UNL     1       2.306  12.467  -2.246  0.00  0.00    +0.009 C 
ATOM     35  C   UNL     1       3.553  12.653  -4.403  0.00  0.00    +0.009 C 
ENDBRANCH  32  33
ENDBRANCH  29  32
ENDBRANCH  23  24
ENDBRANCH  22  23
ENDBRANCH  20  22
ENDBRANCH   4  20
TORSDOF 8
