REMARK  Name = ZINC13720009
REMARK  8 active torsions:
REMARK  status: ('A' for Active; 'I' for Inactive)
REMARK    1  A    between atoms: C_1  and  O_2
REMARK    2  A    between atoms: O_2  and  C_3
REMARK    3  A    between atoms: C_9  and  C_13
REMARK    4  A    between atoms: C_13  and  C_14
REMARK    5  A    between atoms: C_14  and  N_15
REMARK    6  A    between atoms: C_16  and  C_18
REMARK    7  A    between atoms: C_23  and  N_24
REMARK    8  A    between atoms: C_25  and  C_27
REMARK                            x       y       z     vdW  Elec       q    Type
REMARK                         _______ _______ _______ _____ _____    ______ ____
ROOT
ATOM      1  N   UNL     1       6.861   1.734  -1.486  0.00  0.00    -0.311 N 
ATOM      2  C   UNL     1       7.495   1.529  -2.658  0.00  0.00    +0.246 C 
ATOM      3  O   UNL     1       6.867   1.538  -3.699  0.00  0.00    -0.270 OA
ATOM      4  H   UNL     1       7.362   1.727  -0.656  0.00  0.00    +0.149 HD
ENDROOT
BRANCH   2   5
ATOM      5  C   UNL     1       8.951   1.295  -2.678  0.00  0.00    +0.058 A 
ATOM      6  C   UNL     1       9.695   1.392  -1.499  0.00  0.00    +0.015 A 
ATOM      7  C   UNL     1      11.054   1.168  -1.523  0.00  0.00    +0.001 A 
ATOM      8  C   UNL     1      11.691   0.856  -2.713  0.00  0.00    +0.002 A 
ATOM      9  C   UNL     1      10.971   0.762  -3.887  0.00  0.00    +0.024 A 
ATOM     10  C   UNL     1       9.599   0.980  -3.881  0.00  0.00    +0.046 A 
BRANCH  10  11
ATOM     11  N   UNL     1       8.872   0.886  -5.064  0.00  0.00    -0.278 N 
ATOM     12  C   UNL     1       9.218  -0.021  -5.998  0.00  0.00    +0.284 C 
ATOM     13  O   UNL     1      10.106  -0.822  -5.769  0.00  0.00    -0.266 OA
ATOM     14  H   UNL     1       8.115   1.473  -5.215  0.00  0.00    +0.155 HD
BRANCH  12  15
ATOM     15  C   UNL     1       8.527  -0.044  -7.290  0.00  0.00    +0.189 A 
ATOM     16  C   UNL     1       8.777  -0.905  -8.320  0.00  0.00    +0.054 A 
ATOM     17  C   UNL     1       7.887  -0.569  -9.353  0.00  0.00    +0.042 A 
ATOM     18  C   UNL     1       7.142   0.469  -8.913  0.00  0.00    +0.196 A 
ATOM     19  O   UNL     1       7.527   0.779  -7.669  0.00  0.00    -0.458 OA
ENDBRANCH  12  15
ENDBRANCH  10  11
ENDBRANCH   2   5
BRANCH   1  20
ATOM     20  C   UNL     1       5.415   1.966  -1.467  0.00  0.00    +0.109 C 
BRANCH  20  21
ATOM     21  C   UNL     1       4.950   2.167  -0.023  0.00  0.00    +0.056 C 
BRANCH  21  28
ATOM     22  C   UNL     1       1.231  -0.705   0.017  0.00  0.00    +0.121 A 
ATOM     23  C   UNL     1       0.021  -0.015   0.034  0.00  0.00    +0.047 A 
ATOM     24  C   UNL     1      -0.001   1.361   0.038  0.00  0.00    +0.030 A 
ATOM     25  C   UNL     1       1.192   2.076   0.025  0.00  0.00    +0.047 A 
ATOM     26  C   UNL     1       2.415   1.382   0.007  0.00  0.00    +0.006 A 
ATOM     27  C   UNL     1       2.426  -0.014   0.003  0.00  0.00    +0.056 A 
ATOM     28  C   UNL     1       3.462   2.407  -0.004  0.00  0.00    -0.021 A 
ATOM     29  C   UNL     1       2.845   3.599   0.008  0.00  0.00    +0.087 A 
ATOM     30  N   UNL     1       1.489   3.423   0.025  0.00  0.00    -0.360 N 
ATOM     31  H   UNL     1       0.834   4.138   0.035  0.00  0.00    +0.165 HD
BRANCH  22  33
ATOM     32  C   UNL     1      -0.037  -2.718   0.027  0.00  0.00    +0.277 C 
ATOM     33  O   UNL     1       1.235  -2.065   0.013  0.00  0.00    -0.495 OA
ENDBRANCH  22  33
ENDBRANCH  21  28
ENDBRANCH  20  21
ENDBRANCH   1  20
TORSDOF 7
