REMARK  Name = ZINC63754604
REMARK  8 active torsions:
REMARK  status: ('A' for Active; 'I' for Inactive)
REMARK    1  A    between atoms: C_1  and  C_2
REMARK    2  A    between atoms: C_3  and  C_22
REMARK    3  A    between atoms: C_5  and  C_7
REMARK    4  A    between atoms: C_7  and  N_8
REMARK    5  A    between atoms: N_8  and  C_9
REMARK    6  A    between atoms: N_8  and  C_17
REMARK    7  A    between atoms: C_9  and  C_10
REMARK    8  A    between atoms: C_10  and  C_11
REMARK                            x       y       z     vdW  Elec       q    Type
REMARK                         _______ _______ _______ _____ _____    ______ ____
ROOT
ATOM      1  N   UNL     1      -1.270  -3.511   1.953  0.00  0.00    -0.291 NA
ENDROOT
BRANCH   1   2
ATOM      2  C   UNL     1      -1.864  -3.920   0.673  0.00  0.00    +0.057 C 
ATOM      3  C   UNL     1      -3.398  -3.771   0.730  0.00  0.00    +0.019 C 
ATOM      4  C   UNL     1      -3.928  -4.982  -0.078  0.00  0.00    +0.002 C 
ATOM      5  C   UNL     1      -2.946  -6.113   0.317  0.00  0.00    +0.002 C 
ATOM      6  C   UNL     1      -1.576  -5.409   0.410  0.00  0.00    +0.019 C 
ENDBRANCH   1   2
BRANCH   1   7
ATOM      7  C   UNL     1       0.148  -3.166   1.789  0.00  0.00    +0.181 C 
BRANCH   7  12
ATOM      8  C   UNL     1       0.343   1.735   0.766  0.00  0.00    +0.069 C 
ATOM      9  C   UNL     1       0.350   0.238   0.591  0.00  0.00    +0.079 A 
ATOM     10  C   UNL     1       0.499  -0.424  -0.568  0.00  0.00    +0.125 A 
ATOM     11  O   UNL     1       0.446  -1.740  -0.283  0.00  0.00    -0.443 OA
ATOM     12  C   UNL     1       0.265  -1.865   1.038  0.00  0.00    +0.210 A 
ATOM     13  N   UNL     1       0.213  -0.676   1.568  0.00  0.00    -0.217 NA
ATOM     14  C   UNL     1       0.690   0.190  -1.931  0.00  0.00    +0.088 C 
ENDBRANCH   7  12
ENDBRANCH   1   7
BRANCH   1  15
ATOM     15  C   UNL     1      -1.444  -4.556   2.971  0.00  0.00    +0.090 C 
BRANCH  15  16
ATOM     16  C   UNL     1      -2.936  -4.783   3.219  0.00  0.00    +0.050 C 
BRANCH  16  17
ATOM     17  C   UNL     1      -3.114  -5.734   4.375  0.00  0.00    -0.046 A 
ATOM     18  C   UNL     1      -3.175  -7.096   4.147  0.00  0.00    +0.003 A 
ATOM     19  C   UNL     1      -3.338  -7.967   5.207  0.00  0.00    +0.000 A 
ATOM     20  C   UNL     1      -3.441  -7.477   6.496  0.00  0.00    +0.000 A 
ATOM     21  C   UNL     1      -3.379  -6.115   6.724  0.00  0.00    +0.000 A 
ATOM     22  C   UNL     1      -3.211  -5.244   5.664  0.00  0.00    +0.003 A 
ENDBRANCH  16  17
ENDBRANCH  15  16
ENDBRANCH   1  15
TORSDOF 6
