REMARK  Name = ZINC45649018
REMARK  7 active torsions:
REMARK  status: ('A' for Active; 'I' for Inactive)
REMARK    1  A    between atoms: C_1  and  C_2
REMARK    2  A    between atoms: C_2  and  C_4
REMARK    3  A    between atoms: C_2  and  C_23
REMARK    4  A    between atoms: C_4  and  N_5
REMARK    5  A    between atoms: C_18  and  C_20
REMARK    6  A    between atoms: C_23  and  O_24
REMARK    7  A    between atoms: O_24  and  C_25
REMARK                            x       y       z     vdW  Elec       q    Type
REMARK                         _______ _______ _______ _____ _____    ______ ____
ROOT
ATOM      1  N   UNL     1      -2.082  -0.162   1.273  0.00  0.00    -0.299 N 
ATOM      2  C   UNL     1      -3.358  -0.524   1.506  0.00  0.00    +0.303 C 
ATOM      3  O   UNL     1      -3.973  -1.159   0.671  0.00  0.00    -0.253 OA
ATOM      4  N   UNL     1      -3.955  -0.182   2.666  0.00  0.00    -0.269 N 
ATOM      5  C   UNL     1      -5.316  -0.502   3.064  0.00  0.00    +0.082 C 
ATOM      6  C   UNL     1      -5.915  -1.795   2.551  0.00  0.00    +0.023 C 
ATOM      7  C   UNL     1      -7.356  -1.874   3.080  0.00  0.00    +0.002 C 
ATOM      8  C   UNL     1      -7.395  -1.796   4.604  0.00  0.00    +0.000 C 
ATOM      9  C   UNL     1      -6.675  -0.541   5.122  0.00  0.00    +0.005 C 
ATOM     10  C   UNL     1      -5.241  -0.617   4.611  0.00  0.00    +0.012 C 
ATOM     11  C   UNL     1      -4.380   0.614   4.934  0.00  0.00    +0.039 C 
ATOM     12  C   UNL     1      -3.344   0.586   3.777  0.00  0.00    +0.191 C 
ATOM     13  H   UNL     1      -1.592   0.345   1.939  0.00  0.00    +0.150 HD
ENDROOT
BRANCH  12  14
ATOM     14  C   UNL     1      -3.045   1.992   3.325  0.00  0.00    +0.376 C 
ATOM     15  O   UNL     1      -3.449   2.384   2.244  0.00  0.00    -0.244 OA
ATOM     16  O   UNL     1      -2.399   2.738   4.042  0.00  0.00    -0.244 OA
ENDBRANCH  12  14
BRANCH   1  17
ATOM     17  C   UNL     1      -1.433  -0.534   0.013  0.00  0.00    +0.111 C 
BRANCH  17  19
ATOM     18  C   UNL     1      -0.019   1.526   0.010  0.00  0.00    +0.011 C 
ATOM     19  C   UNL     1       0.002  -0.004   0.002  0.00  0.00    +0.029 C 
BRANCH  19  20
ATOM     20  C   UNL     1       0.718  -0.497  -1.257  0.00  0.00    +0.164 C 
BRANCH  20  21
ATOM     21  O   UNL     1       2.090  -0.101  -1.210  0.00  0.00    -0.383 OA
ATOM     22  C   UNL     1       2.853  -0.514  -2.346  0.00  0.00    +0.193 C 
ENDBRANCH  20  21
ENDBRANCH  19  20
ENDBRANCH  17  19
ENDBRANCH   1  17
TORSDOF 5
