REMARK  Name = ZINC63122513
REMARK  8 active torsions:
REMARK  status: ('A' for Active; 'I' for Inactive)
REMARK    1  A    between atoms: C_1  and  C_2
REMARK    2  A    between atoms: C_2  and  C_3
REMARK    3  A    between atoms: C_6  and  C_9
REMARK    4  A    between atoms: C_11  and  N_15
REMARK    5  A    between atoms: C_16  and  C_18
REMARK    6  A    between atoms: C_18  and  S_19
REMARK    7  A    between atoms: S_19  and  C_20
REMARK    8  A    between atoms: C_23  and  C_25
REMARK                            x       y       z     vdW  Elec       q    Type
REMARK                         _______ _______ _______ _____ _____    ______ ____
ROOT
ATOM      1  N   UNL     1       2.512  -3.976  -7.234  0.00  0.00    -0.285 N 
ATOM      2  C   UNL     1       2.805  -4.532  -8.426  0.00  0.00    +0.225 C 
ATOM      3  O   UNL     1       3.267  -3.850  -9.316  0.00  0.00    -0.275 OA
ATOM      4  H   UNL     1       2.142  -4.521  -6.522  0.00  0.00    +0.152 HD
ENDROOT
BRANCH   1   7
ATOM      5  C   UNL     1       2.695  -1.860  -4.731  0.00  0.00    +0.056 C 
ATOM      6  N   UNL     1       2.050  -2.070  -5.805  0.00  0.00    -0.254 NA
ATOM      7  C   UNL     1       2.752  -2.547  -7.013  0.00  0.00    +0.251 C 
ATOM      8  S   UNL     1       4.508  -2.231  -6.541  0.00  0.00    -0.109 S 
ATOM      9  C   UNL     1       4.197  -2.105  -4.726  0.00  0.00    +0.128 C 
BRANCH   5  13
ATOM     10  C   UNL     1       0.707  -0.490  -1.238  0.00  0.00    -0.048 A 
ATOM     11  C   UNL     1      -0.014  -0.718  -2.396  0.00  0.00    +0.004 A 
ATOM     12  C   UNL     1       0.625  -1.163  -3.535  0.00  0.00    +0.010 A 
ATOM     13  C   UNL     1       2.004  -1.383  -3.516  0.00  0.00    -0.003 A 
ATOM     14  C   UNL     1       2.726  -1.151  -2.344  0.00  0.00    +0.010 A 
ATOM     15  C   UNL     1       2.075  -0.701  -1.214  0.00  0.00    +0.004 A 
BRANCH  10  17
ATOM     16  C   UNL     1      -0.019   1.526   0.010  0.00  0.00    +0.009 C 
ATOM     17  C   UNL     1       0.002  -0.004   0.002  0.00  0.00    +0.032 C 
ENDBRANCH  10  17
ENDBRANCH   5  13
ENDBRANCH   1   7
BRANCH   2  18
ATOM     18  C   UNL     1       2.558  -6.001  -8.653  0.00  0.00    +0.174 C 
BRANCH  18  19
ATOM     19  S   UNL     1       3.051  -6.443 -10.342  0.00  0.00    -0.056 S 
BRANCH  19  20
ATOM     20  C   UNL     1       2.706  -8.168 -10.449  0.00  0.00    +0.278 A 
ATOM     21  N   UNL     1       2.196  -8.925  -9.489  0.00  0.00    -0.101 NA
ATOM     22  N   UNL     1       2.079 -10.133  -9.915  0.00  0.00    -0.107 NA
ATOM     23  C   UNL     1       2.509 -10.198 -11.165  0.00  0.00    +0.248 A 
ATOM     24  O   UNL     1       2.906  -8.953 -11.522  0.00  0.00    -0.411 OA
BRANCH  23  25
ATOM     25  C   UNL     1       2.542 -11.344 -11.974  0.00  0.00    +0.044 C 
ATOM     26  C   UNL     1       2.127 -12.631 -11.630  0.00  0.00    +0.008 A 
ATOM     27  C   UNL     1       1.579 -13.172 -10.448  0.00  0.00    +0.010 A 
ATOM     28  C   UNL     1       1.262 -14.491 -10.395  0.00  0.00    +0.001 A 
ATOM     29  C   UNL     1       1.465 -15.337 -11.488  0.00  0.00    +0.002 A 
ATOM     30  C   UNL     1       1.987 -14.885 -12.655  0.00  0.00    +0.026 A 
ATOM     31  C   UNL     1       2.343 -13.518 -12.786  0.00  0.00    +0.043 A 
ATOM     32  N   UNL     1       2.859 -12.844 -13.794  0.00  0.00    -0.380 N 
ATOM     33  C   UNL     1       3.029 -11.441 -13.403  0.00  0.00    +0.154 C 
ATOM     34  H   UNL     1       3.087 -13.216 -14.660  0.00  0.00    +0.160 HD
ENDBRANCH  23  25
ENDBRANCH  19  20
ENDBRANCH  18  19
ENDBRANCH   2  18
TORSDOF 7
