REMARK  Name = ZINC02521893
REMARK  6 active torsions:
REMARK  status: ('A' for Active; 'I' for Inactive)
REMARK    1  A    between atoms: C_8  and  C_13
REMARK    2  A    between atoms: N_14  and  N_15
REMARK    3  A    between atoms: C_16  and  C_18
REMARK    4  A    between atoms: C_23  and  N_24
REMARK    5  A    between atoms: N_24  and  S_25
REMARK    6  A    between atoms: S_25  and  C_28
REMARK                            x       y       z     vdW  Elec       q    Type
REMARK                         _______ _______ _______ _____ _____    ______ ____
ROOT
ATOM      1  N   UNL     1       0.318  -1.812  -5.545  0.00  0.00    -0.203 N 
ATOM      2  C   UNL     1       0.583  -2.174  -4.274  0.00  0.00    +0.265 C 
ATOM      3  O   UNL     1      -0.323  -2.511  -3.537  0.00  0.00    -0.268 OA
ATOM      4  H   UNL     1       1.040  -1.543  -6.134  0.00  0.00    +0.178 HD
ENDROOT
BRANCH   2   5
ATOM      5  C   UNL     1       1.971  -2.160  -3.779  0.00  0.00    +0.061 A 
ATOM      6  C   UNL     1       3.015  -1.772  -4.622  0.00  0.00    +0.015 A 
ATOM      7  C   UNL     1       4.310  -1.761  -4.152  0.00  0.00    +0.001 A 
ATOM      8  C   UNL     1       4.584  -2.133  -2.845  0.00  0.00    +0.002 A 
ATOM      9  C   UNL     1       3.564  -2.513  -1.998  0.00  0.00    +0.025 A 
ATOM     10  C   UNL     1       2.252  -2.536  -2.455  0.00  0.00    +0.060 A 
BRANCH  10  11
ATOM     11  N   UNL     1       1.223  -2.923  -1.606  0.00  0.00    -0.216 N 
ATOM     12  H   UNL     1       0.470  -3.426  -1.954  0.00  0.00    +0.174 HD
BRANCH  11  13
ATOM     13  S   UNL     1       1.282  -2.525   0.000  0.00  0.00    +0.072 S 
ATOM     14  O   UNL     1       2.534  -2.988   0.488  0.00  0.00    -0.150 OA
ATOM     15  O   UNL     1       0.045  -2.936   0.566  0.00  0.00    -0.150 OA
BRANCH  13  16
ATOM     16  C   UNL     1       1.322  -0.766   0.100  0.00  0.00    +0.109 A 
ATOM     17  C   UNL     1       0.141  -0.052   0.177  0.00  0.00    +0.030 A 
ATOM     18  C   UNL     1       0.171   1.328   0.256  0.00  0.00    +0.022 A 
ATOM     19  C   UNL     1       1.384   1.994   0.258  0.00  0.00    +0.041 A 
ATOM     20  C   UNL     1       2.566   1.278   0.181  0.00  0.00    +0.022 A 
ATOM     21  C   UNL     1       2.534  -0.101   0.102  0.00  0.00    +0.030 A 
ATOM     22 CL   UNL     1       1.423   3.727   0.357  0.00  0.00    -0.084 Cl
ENDBRANCH  13  16
ENDBRANCH  11  13
ENDBRANCH  10  11
ENDBRANCH   2   5
BRANCH   1  24
ATOM     23  C   UNL     1      -1.257  -1.476  -7.242  0.00  0.00    +0.143 C 
ATOM     24  N   UNL     1      -1.001  -1.825  -6.017  0.00  0.00    -0.187 NA
BRANCH  23  32
ATOM     25  C   UNL     1      -5.876  -0.799 -11.227  0.00  0.00    +0.001 A 
ATOM     26  C   UNL     1      -6.893  -1.189 -10.365  0.00  0.00    +0.002 A 
ATOM     27  C   UNL     1      -6.611  -1.556  -9.067  0.00  0.00    +0.026 A 
ATOM     28  C   UNL     1      -5.295  -1.538  -8.611  0.00  0.00    +0.049 A 
ATOM     29  C   UNL     1      -4.267  -1.143  -9.487  0.00  0.00    -0.001 A 
ATOM     30  C   UNL     1      -4.579  -0.774 -10.803  0.00  0.00    +0.010 A 
ATOM     31  C   UNL     1      -2.923  -1.121  -9.038  0.00  0.00    +0.024 A 
ATOM     32  C   UNL     1      -2.642  -1.490  -7.737  0.00  0.00    +0.059 A 
ATOM     33  C   UNL     1      -3.742  -1.901  -6.856  0.00  0.00    +0.258 A 
ATOM     34  O   UNL     1      -3.508  -2.235  -5.708  0.00  0.00    -0.267 OA
ATOM     35  N   UNL     1      -5.008  -1.906  -7.312  0.00  0.00    -0.322 N 
ATOM     36  H   UNL     1      -5.752  -2.180  -6.701  0.00  0.00    +0.169 HD
ENDBRANCH  23  32
ENDBRANCH   1  24
TORSDOF 6
