REMARK  Name = ZINC16491678
REMARK  9 active torsions:
REMARK  status: ('A' for Active; 'I' for Inactive)
REMARK    1  A    between atoms: C_1  and  C_2
REMARK    2  A    between atoms: C_4  and  C_32
REMARK    3  A    between atoms: C_6  and  S_8
REMARK    4  A    between atoms: S_8  and  C_9
REMARK    5  A    between atoms: C_9  and  C_10
REMARK    6  A    between atoms: C_13  and  C_16
REMARK    7  A    between atoms: N_18  and  N_19
REMARK    8  A    between atoms: C_20  and  C_22
REMARK    9  A    between atoms: C_27  and  N_28
REMARK                            x       y       z     vdW  Elec       q    Type
REMARK                         _______ _______ _______ _____ _____    ______ ____
ROOT
ATOM      1  C   UNL     1       1.154   3.597   0.545  0.00  0.00    +0.260 C 
ATOM      2  O   UNL     1       0.102   4.204   0.585  0.00  0.00    -0.269 OA
ATOM      3  N   UNL     1       2.315   4.269   0.416  0.00  0.00    -0.230 N 
ATOM      4  H   UNL     1       3.155   3.784   0.384  0.00  0.00    +0.173 HD
ENDROOT
BRANCH   1   8
ATOM      5  C   UNL     1       1.171  -0.642   0.814  0.00  0.00    -0.037 A 
ATOM      6  C   UNL     1      -0.028   0.046   0.859  0.00  0.00    +0.005 A 
ATOM      7  C   UNL     1      -0.041   1.423   0.773  0.00  0.00    +0.013 A 
ATOM      8  C   UNL     1       1.160   2.122   0.639  0.00  0.00    +0.038 A 
ATOM      9  C   UNL     1       2.366   1.421   0.593  0.00  0.00    +0.013 A 
ATOM     10  C   UNL     1       2.365   0.045   0.681  0.00  0.00    +0.005 A 
BRANCH   5  11
ATOM     11  C   UNL     1       1.177  -2.146   0.909  0.00  0.00    +0.112 C 
BRANCH  11  12
ATOM     12  S   UNL     1       1.053  -2.856  -0.751  0.00  0.00    -0.081 S 
BRANCH  12  18
ATOM     13  C   UNL     1       1.308  -6.630   2.696  0.00  0.00    +0.066 C 
ATOM     14  C   UNL     1       1.201  -6.220   1.250  0.00  0.00    +0.043 A 
ATOM     15  C   UNL     1       1.126  -7.180   0.252  0.00  0.00    +0.046 A 
ATOM     16  C   UNL     1       1.028  -6.761  -1.065  0.00  0.00    +0.043 A 
ATOM     17  N   UNL     1       1.009  -5.465  -1.330  0.00  0.00    -0.227 NA
ATOM     18  C   UNL     1       1.082  -4.572  -0.353  0.00  0.00    +0.189 A 
ATOM     19  N   UNL     1       1.182  -4.940   0.916  0.00  0.00    -0.227 NA
ATOM     20  C   UNL     1       0.943  -7.769  -2.182  0.00  0.00    +0.066 C 
ENDBRANCH  12  18
ENDBRANCH  11  12
ENDBRANCH   5  11
ENDBRANCH   1   8
BRANCH   3  21
ATOM     21  N   UNL     1       2.309   5.667   0.327  0.00  0.00    -0.230 N 
ATOM     22  C   UNL     1       3.470   6.339   0.198  0.00  0.00    +0.262 C 
ATOM     23  O   UNL     1       4.523   5.732   0.158  0.00  0.00    -0.269 OA
ATOM     24  H   UNL     1       1.469   6.152   0.359  0.00  0.00    +0.173 HD
BRANCH  22  25
ATOM     25  C   UNL     1       3.464   7.814   0.105  0.00  0.00    +0.068 A 
ATOM     26  C   UNL     1       2.255   8.505   0.013  0.00  0.00    +0.017 A 
ATOM     27  C   UNL     1       2.255   9.882  -0.073  0.00  0.00    +0.021 A 
ATOM     28  C   UNL     1       3.453  10.578  -0.070  0.00  0.00    +0.043 A 
ATOM     29  C   UNL     1       4.656   9.898   0.019  0.00  0.00    +0.053 A 
ATOM     30  C   UNL     1       4.667   8.522   0.113  0.00  0.00    +0.140 A 
ATOM     31 CL   UNL     1       3.446  12.310  -0.179  0.00  0.00    -0.083 Cl
BRANCH  30  32
ATOM     32  N   UNL     1       5.954   7.796   0.215  0.00  0.00    +0.057 N 
ATOM     33  O   UNL     1       6.118   6.969   1.094  0.00  0.00    -0.126 OA
ATOM     34  O   UNL     1       6.848   8.027  -0.579  0.00  0.00    -0.126 OA
ENDBRANCH  30  32
ENDBRANCH  22  25
ENDBRANCH   3  21
TORSDOF 7
