REMARK  Name = ZINC33340597
REMARK  4 active torsions:
REMARK  status: ('A' for Active; 'I' for Inactive)
REMARK    1  A    between atoms: C_3  and  C_7
REMARK    2  A    between atoms: N_8  and  N_9
REMARK    3  A    between atoms: C_10  and  C_12
REMARK    4  A    between atoms: C_14  and  C_18
REMARK                            x       y       z     vdW  Elec       q    Type
REMARK                         _______ _______ _______ _____ _____    ______ ____
ROOT
ATOM      1  C   UNL     1      -1.295   1.719  -1.133  0.00  0.00    +0.122 A 
ATOM      2  C   UNL     1      -0.833   3.022  -1.145  0.00  0.00    +0.062 A 
ATOM      3  C   UNL     1       0.429   2.962  -1.764  0.00  0.00    +0.093 A 
ATOM      4  N   UNL     1       0.660   1.704  -2.075  0.00  0.00    -0.173 NA
ATOM      5  N   UNL     1      -0.322   0.958  -1.718  0.00  0.00    -0.272 N 
ATOM      6  H   UNL     1      -0.460  -0.129  -1.818  0.00  0.00    +0.189 HD
ENDROOT
BRANCH   3   7
ATOM      7  C   UNL     1       1.335   4.110  -2.021  0.00  0.00    +0.004 A 
ATOM      8  C   UNL     1       2.562   3.905  -2.648  0.00  0.00    +0.011 A 
ATOM      9  C   UNL     1       3.401   4.974  -2.885  0.00  0.00    +0.022 A 
ATOM     10  C   UNL     1       3.026   6.250  -2.501  0.00  0.00    +0.059 A 
ATOM     11  C   UNL     1       1.807   6.460  -1.877  0.00  0.00    +0.060 A 
ATOM     12  C   UNL     1       0.958   5.396  -1.642  0.00  0.00    +0.031 A 
ATOM     13 CL   UNL     1       1.343   8.062  -1.397  0.00  0.00    -0.082 Cl
ATOM     14 CL   UNL     1       4.086   7.592  -2.801  0.00  0.00    -0.082 Cl
ENDBRANCH   3   7
BRANCH   1  16
ATOM     15  N   UNL     1      -2.892  -0.065  -0.651  0.00  0.00    -0.202 N 
ATOM     16  C   UNL     1      -2.579   1.245  -0.594  0.00  0.00    +0.281 C 
ATOM     17  O   UNL     1      -3.360   2.035  -0.098  0.00  0.00    -0.267 OA
ATOM     18  H   UNL     1      -2.186  -0.779  -1.100  0.00  0.00    +0.178 HD
BRANCH  15  20
ATOM     19  C   UNL     1      -4.367  -1.788  -0.086  0.00  0.00    +0.139 C 
ATOM     20  N   UNL     1      -4.114  -0.516  -0.138  0.00  0.00    -0.187 NA
BRANCH  19  23
ATOM     21  C   UNL     1      -0.935  -3.291   0.091  0.00  0.00    +0.020 A 
ATOM     22  C   UNL     1      -1.938  -2.338   0.104  0.00  0.00    +0.012 A 
ATOM     23  C   UNL     1      -3.258  -2.761  -0.096  0.00  0.00    +0.013 A 
ATOM     24  C   UNL     1      -3.506  -4.119  -0.310  0.00  0.00    +0.120 A 
ATOM     25  N   UNL     1      -2.515  -4.986  -0.320  0.00  0.00    -0.263 NA
ATOM     26  C   UNL     1      -1.263  -4.617  -0.129  0.00  0.00    +0.111 A 
ENDBRANCH  19  23
ENDBRANCH  15  20
ENDBRANCH   1  16
TORSDOF 4
