REMARK  Name = ZINC62845498
REMARK  6 active torsions:
REMARK  status: ('A' for Active; 'I' for Inactive)
REMARK    1  A    between atoms: C_1  and  C_2
REMARK    2  A    between atoms: C_2  and  C_3
REMARK    3  A    between atoms: C_3  and  C_4
REMARK    4  A    between atoms: C_4  and  C_18
REMARK    5  A    between atoms: C_10  and  C_12
REMARK    6  A    between atoms: C_12  and  N_17
REMARK                            x       y       z     vdW  Elec       q    Type
REMARK                         _______ _______ _______ _____ _____    ______ ____
ROOT
ATOM      1  C   UNL     1      -1.468  -1.796  -0.053  0.00  0.00    +0.075 C 
ATOM      2  C   UNL     1      -0.725  -2.316  -1.286  0.00  0.00    +0.037 C 
ATOM      3  C   UNL     1      -1.472  -1.877  -2.549  0.00  0.00    +0.109 C 
ATOM      4  N   UNL     1      -2.868  -2.324  -2.452  0.00  0.00    -0.303 N 
ATOM      5  C   UNL     1      -3.647  -1.956  -1.262  0.00  0.00    +0.109 C 
ATOM      6  C   UNL     1      -2.876  -2.394  -0.013  0.00  0.00    +0.037 C 
ATOM      7  C   UNL     1      -3.424  -3.058  -3.437  0.00  0.00    +0.204 C 
ATOM      8  O   UNL     1      -4.537  -3.518  -3.296  0.00  0.00    -0.277 OA
ENDROOT
BRANCH   7   9
ATOM      9  C   UNL     1      -2.663  -3.306  -4.713  0.00  0.00    +0.007 C 
ATOM     10  C   UNL     1      -3.543  -4.077  -5.728  0.00  0.00    -0.004 C 
ATOM     11  C   UNL     1      -3.420  -5.543  -5.242  0.00  0.00    -0.001 C 
ATOM     12  C   UNL     1      -1.950  -5.670  -4.792  0.00  0.00    -0.001 C 
ATOM     13  C   UNL     1      -1.469  -4.247  -4.455  0.00  0.00    -0.004 C 
BRANCH   9  14
ATOM     14  N   UNL     1      -2.201  -2.036  -5.290  0.00  0.00    +0.388 N 
ATOM     15  H   UNL     1      -1.523  -1.613  -4.674  0.00  0.00    -0.089 HD
ATOM     16  H   UNL     1      -1.777  -2.210  -6.189  0.00  0.00    -0.089 HD
ATOM     17  H   UNL     1      -2.986  -1.413  -5.404  0.00  0.00    -0.089 HD
ENDBRANCH   9  14
ENDBRANCH   7   9
BRANCH   1  18
ATOM     18  C   UNL     1      -0.717  -2.197   1.191  0.00  0.00    +0.362 C 
ATOM     19  O   UNL     1      -0.297  -1.343   1.952  0.00  0.00    -0.246 OA
ATOM     20  O   UNL     1      -0.529  -3.377   1.436  0.00  0.00    -0.246 OA
ENDBRANCH   1  18
BRANCH   1  21
ATOM     21  C   UNL     1      -1.563  -0.271  -0.120  0.00  0.00    +0.018 C 
BRANCH  21  23
ATOM     22  C   UNL     1      -0.251   1.853  -0.227  0.00  0.00    +0.004 C 
ATOM     23  C   UNL     1      -0.155   0.327  -0.160  0.00  0.00    -0.002 C 
ENDBRANCH  21  23
ENDBRANCH   1  21
TORSDOF 5
