REMARK  Name = ZINC38690707
REMARK  11 active torsions:
REMARK  status: ('A' for Active; 'I' for Inactive)
REMARK    1  A    between atoms: C_1  and  C_2
REMARK    2  A    between atoms: C_2  and  C_4
REMARK    3  A    between atoms: C_2  and  N_23
REMARK    4  A    between atoms: N_6  and  C_7
REMARK    5  A    between atoms: C_11  and  C_13
REMARK    6  A    between atoms: C_13  and  O_15
REMARK    7  A    between atoms: O_15  and  C_16
REMARK    8  A    between atoms: C_20  and  O_21
REMARK    9  A    between atoms: O_21  and  C_22
REMARK   10  A    between atoms: N_26  and  C_29
REMARK   11  A    between atoms: C_33  and  C_35
REMARK                            x       y       z     vdW  Elec       q    Type
REMARK                         _______ _______ _______ _____ _____    ______ ____
ROOT
ATOM      1  C   UNL     1      -1.502  -0.614  -0.116  0.00  0.00    +0.234 C 
ATOM      2  O   UNL     1      -1.835  -1.052  -1.196  0.00  0.00    -0.274 OA
ATOM      3  N   UNL     1      -2.416  -0.469   0.863  0.00  0.00    -0.285 N 
ATOM      4  H   UNL     1      -2.169  -0.040   1.698  0.00  0.00    +0.155 HD
ENDROOT
BRANCH   3   5
ATOM      5  C   UNL     1      -3.688  -0.925   0.682  0.00  0.00    +0.056 C 
ATOM      6  C   UNL     1      -4.773  -0.716   1.508  0.00  0.00    +0.059 A 
ATOM      7  C   UNL     1      -5.950  -1.389   0.928  0.00  0.00    +0.048 A 
ATOM      8  N   UNL     1      -5.625  -1.989  -0.200  0.00  0.00    -0.367 N 
ATOM      9  C   UNL     1      -4.202  -1.759  -0.470  0.00  0.00    +0.234 C 
ATOM     10  C   UNL     1      -7.179  -1.298   1.625  0.00  0.00    +0.026 A 
ATOM     11  C   UNL     1      -7.262  -0.609   2.790  0.00  0.00    +0.006 A 
ATOM     12  C   UNL     1      -6.168   0.036   3.360  0.00  0.00    +0.046 A 
ATOM     13  C   UNL     1      -4.937   0.009   2.769  0.00  0.00    +0.131 A 
ATOM     14  H   UNL     1      -6.230  -2.497  -0.762  0.00  0.00    +0.161 HD
BRANCH   9  15
ATOM     15  C   UNL     1      -3.469  -3.075  -0.526  0.00  0.00    +0.335 C 
ATOM     16  O   UNL     1      -3.983  -4.073  -0.079  0.00  0.00    -0.248 OA
BRANCH  15  17
ATOM     17  O   UNL     1      -2.244  -3.138  -1.073  0.00  0.00    -0.466 OA
ATOM     18  C   UNL     1      -1.608  -4.417  -1.092  0.00  0.00    +0.280 C 
ENDBRANCH  15  17
ENDBRANCH   9  15
BRANCH  13  19
ATOM     19  O   UNL     1      -3.884   0.644   3.340  0.00  0.00    -0.494 OA
ATOM     20  C   UNL     1      -4.101   1.235   4.623  0.00  0.00    +0.277 C 
ENDBRANCH  13  19
ENDBRANCH   3   5
BRANCH   1  22
ATOM     21  C   UNL     1       0.030   1.282   0.340  0.00  0.00    +0.034 C 
ATOM     22  C   UNL     1      -0.066  -0.231   0.131  0.00  0.00    +0.140 C 
BRANCH  22  23
ATOM     23  N   UNL     1       0.751  -0.617  -1.027  0.00  0.00    -0.289 NA
ATOM     24  C   UNL     1       0.409   0.191  -2.205  0.00  0.00    +0.104 C 
ATOM     25  C   UNL     1       1.147  -0.360  -3.430  0.00  0.00    +0.120 C 
ATOM     26  N   UNL     1       2.583  -0.429  -3.119  0.00  0.00    -0.327 N 
ATOM     27  C   UNL     1       2.994  -1.106  -1.879  0.00  0.00    +0.120 C 
ATOM     28  C   UNL     1       2.184  -0.526  -0.716  0.00  0.00    +0.104 C 
BRANCH  26  29
ATOM     29  C   UNL     1       3.530   0.132  -3.977  0.00  0.00    +0.030 A 
ATOM     30  C   UNL     1       4.886  -0.058  -3.738  0.00  0.00    +0.023 A 
ATOM     31  C   UNL     1       5.820   0.498  -4.589  0.00  0.00    +0.002 A 
ATOM     32  C   UNL     1       5.408   1.245  -5.678  0.00  0.00    +0.012 A 
ATOM     33  C   UNL     1       4.060   1.436  -5.919  0.00  0.00    +0.057 A 
ATOM     34  C   UNL     1       3.120   0.877  -5.075  0.00  0.00    +0.035 A 
BRANCH  33  35
ATOM     35  C   UNL     1       3.616   2.251  -7.106  0.00  0.00    +0.417 C 
ATOM     36  F   UNL     1       4.739   2.703  -7.808  0.00  0.00    -0.166 F 
ATOM     37  F   UNL     1       2.828   1.458  -7.948  0.00  0.00    -0.166 F 
ATOM     38  F   UNL     1       2.868   3.349  -6.665  0.00  0.00    -0.166 F 
ENDBRANCH  33  35
ENDBRANCH  26  29
ENDBRANCH  22  23
ENDBRANCH   1  22
TORSDOF 8
