REMARK  Name = ZINC38546644
REMARK  10 active torsions:
REMARK  status: ('A' for Active; 'I' for Inactive)
REMARK    1  A    between atoms: C_1  and  N_2
REMARK    2  A    between atoms: N_5  and  C_8
REMARK    3  A    between atoms: C_8  and  C_10
REMARK    4  A    between atoms: C_8  and  C_20
REMARK    5  A    between atoms: C_13  and  O_18
REMARK    6  A    between atoms: C_15  and  O_16
REMARK    7  A    between atoms: O_16  and  C_17
REMARK    8  A    between atoms: O_18  and  C_19
REMARK    9  A    between atoms: C_24  and  N_25
REMARK   10  A    between atoms: C_26  and  C_28
REMARK                            x       y       z     vdW  Elec       q    Type
REMARK                         _______ _______ _______ _____ _____    ______ ____
ROOT
ATOM      1  C   UNL     1       1.453  -3.974  -0.034  0.00  0.00    +0.123 C 
ENDROOT
BRANCH   1   2
ATOM      2  C   UNL     1       2.209  -4.347   1.215  0.00  0.00    +0.006 A 
ATOM      3  C   UNL     1       3.281  -3.564   1.645  0.00  0.00    -0.030 A 
ATOM      4  C   UNL     1       3.913  -3.965   2.780  0.00  0.00    -0.005 A 
ATOM      5  S   UNL     1       3.031  -5.425   3.265  0.00  0.00    -0.078 S 
ATOM      6  C   UNL     1       1.844  -5.445   1.930  0.00  0.00    +0.078 A 
ATOM      7  C   UNL     1       5.079  -3.316   3.451  0.00  0.00    +0.043 C 
ATOM      8  C   UNL     1       5.708  -2.317   2.468  0.00  0.00    +0.005 C 
ATOM      9  C   UNL     1       4.593  -1.465   1.854  0.00  0.00    +0.005 C 
ATOM     10  C   UNL     1       3.749  -2.314   0.904  0.00  0.00    +0.036 C 
BRANCH   6  11
ATOM     11  N   UNL     1       0.811  -6.352   1.684  0.00  0.00    -0.273 N 
ATOM     12  C   UNL     1       0.610  -7.388   2.523  0.00  0.00    +0.284 C 
ATOM     13  O   UNL     1       1.328  -7.532   3.495  0.00  0.00    -0.266 OA
ATOM     14  H   UNL     1       0.239  -6.237   0.910  0.00  0.00    +0.156 HD
BRANCH  12  15
ATOM     15  C   UNL     1      -0.474  -8.340   2.264  0.00  0.00    +0.189 A 
ATOM     16  C   UNL     1      -0.790  -9.424   3.032  0.00  0.00    +0.054 A 
ATOM     17  C   UNL     1      -1.887 -10.049   2.418  0.00  0.00    +0.042 A 
ATOM     18  C   UNL     1      -2.189  -9.327   1.316  0.00  0.00    +0.196 A 
ATOM     19  O   UNL     1      -1.339  -8.296   1.230  0.00  0.00    -0.458 OA
ENDBRANCH  12  15
ENDBRANCH   6  11
ENDBRANCH   1   2
BRANCH   1  24
ATOM     20  C   UNL     1      -0.857   1.165   0.044  0.00  0.00    -0.096 C 
ATOM     21  N   UNL     1      -0.605  -0.283   0.021  0.00  0.00    +0.379 N 
ATOM     22  C   UNL     1       0.164  -0.626  -1.183  0.00  0.00    -0.064 C 
ATOM     23  C   UNL     1       0.410  -2.136  -1.217  0.00  0.00    +0.067 C 
ATOM     24  N   UNL     1       1.148  -2.537  -0.011  0.00  0.00    -0.295 NA
ATOM     25  C   UNL     1       0.401  -2.177   1.202  0.00  0.00    +0.067 C 
ATOM     26  C   UNL     1       0.155  -0.667   1.217  0.00  0.00    -0.064 C 
ATOM     27  H   UNL     1      -1.485  -0.776   0.009  0.00  0.00    -0.082 HD
ENDBRANCH   1  24
BRANCH   1  28
ATOM     28  C   UNL     1       2.296  -4.289  -1.243  0.00  0.00    +0.016 A 
ATOM     29  C   UNL     1       3.068  -3.301  -1.823  0.00  0.00    +0.013 A 
ATOM     30  C   UNL     1       3.842  -3.587  -2.932  0.00  0.00    +0.046 A 
ATOM     31  C   UNL     1       3.844  -4.868  -3.466  0.00  0.00    +0.124 A 
ATOM     32  C   UNL     1       3.070  -5.861  -2.886  0.00  0.00    +0.091 A 
ATOM     33  C   UNL     1       2.299  -5.573  -1.770  0.00  0.00    +0.129 A 
BRANCH  33  34
ATOM     34  O   UNL     1       1.543  -6.546  -1.196  0.00  0.00    -0.495 OA
ATOM     35  C   UNL     1       1.595  -7.844  -1.792  0.00  0.00    +0.277 C 
ENDBRANCH  33  34
BRANCH  31  36
ATOM     36  O   UNL     1       4.604  -5.148  -4.557  0.00  0.00    -0.495 OA
ATOM     37  C   UNL     1       5.377  -4.077  -5.102  0.00  0.00    +0.277 C 
ENDBRANCH  31  36
ENDBRANCH   1  28
TORSDOF 7
