REMARK  Name = ZINC36316125
REMARK  19 active torsions:
REMARK  status: ('A' for Active; 'I' for Inactive)
REMARK    1  A    between atoms: C_1  and  C_2
REMARK    2  A    between atoms: C_2  and  C_3
REMARK    3  A    between atoms: C_2  and  C_4
REMARK    4  A    between atoms: C_4  and  O_5
REMARK    5  A    between atoms: O_5  and  C_6
REMARK    6  A    between atoms: C_6  and  C_7
REMARK    7  A    between atoms: C_7  and  C_9
REMARK    8  A    between atoms: C_7  and  O_37
REMARK    9  A    between atoms: C_9  and  N_10
REMARK   10  A    between atoms: N_10  and  C_11
REMARK   11  A    between atoms: N_10  and  C_15
REMARK   12  A    between atoms: C_11  and  C_12
REMARK   13  A    between atoms: C_12  and  O_13
REMARK   14  A    between atoms: O_13  and  C_14
REMARK   15  A    between atoms: C_15  and  C_16
REMARK   16  A    between atoms: C_17  and  C_31
REMARK   17  A    between atoms: N_19  and  C_30
REMARK   18  A    between atoms: C_20  and  O_21
REMARK   19  A    between atoms: O_21  and  C_22
REMARK                            x       y       z     vdW  Elec       q    Type
REMARK                         _______ _______ _______ _____ _____    ______ ____
ROOT
ATOM      1  C   UNL     1      -4.903  -8.572  -0.907  0.00  0.00    +0.025 A 
ATOM      2  C   UNL     1      -4.961  -9.053  -2.228  0.00  0.00    +0.098 A 
ATOM      3  N   UNL     1      -5.025 -10.367  -2.183  0.00  0.00    -0.168 NA
ATOM      4  N   UNL     1      -5.010 -10.762  -0.839  0.00  0.00    -0.235 N 
ATOM      5  C   UNL     1      -4.930  -9.643  -0.073  0.00  0.00    +0.221 A 
ATOM      6  C   UNL     1      -5.067 -12.140  -0.346  0.00  0.00    +0.176 C 
ENDROOT
BRANCH   2   7
ATOM      7  C   UNL     1      -4.950  -8.224  -3.459  0.00  0.00    +0.002 A 
ATOM      8  C   UNL     1      -4.171  -8.601  -4.550  0.00  0.00    +0.010 A 
ATOM      9  C   UNL     1      -4.165  -7.826  -5.692  0.00  0.00    +0.001 A 
ATOM     10  C   UNL     1      -4.931  -6.676  -5.754  0.00  0.00    +0.000 A 
ATOM     11  C   UNL     1      -5.707  -6.296  -4.674  0.00  0.00    +0.001 A 
ATOM     12  C   UNL     1      -5.725  -7.068  -3.529  0.00  0.00    +0.010 A 
ENDBRANCH   2   7
BRANCH   1  13
ATOM     13  C   UNL     1      -4.821  -7.126  -0.492  0.00  0.00    -0.035 C 
BRANCH  13  14
ATOM     14  N   UNL     1      -3.418  -6.768  -0.239  0.00  0.00    +0.386 N 
ATOM     15  H   UNL     1      -3.040  -7.375   0.473  0.00  0.00    -0.081 HD
BRANCH  14  16
ATOM     16  C   UNL     1      -3.343  -5.374   0.217  0.00  0.00    -0.044 C 
BRANCH  16  17
ATOM     17  C   UNL     1      -3.985  -5.254   1.601  0.00  0.00    +0.124 C 
BRANCH  17  18
ATOM     18  O   UNL     1      -5.393  -5.472   1.493  0.00  0.00    -0.391 OA
ATOM     19  H   UNL     1      -5.845  -4.844   0.913  0.00  0.00    +0.210 HD
ENDBRANCH  17  18
BRANCH  17  20
ATOM     20  C   UNL     1      -3.727  -3.854   2.163  0.00  0.00    +0.189 C 
BRANCH  20  21
ATOM     21  O   UNL     1      -4.224  -3.780   3.501  0.00  0.00    -0.377 OA
BRANCH  21  22
ATOM     22  C   UNL     1      -4.033  -2.507   4.121  0.00  0.00    +0.163 C 
BRANCH  22  24
ATOM     23  C   UNL     1      -4.285  -1.222   6.250  0.00  0.00    +0.009 C 
ATOM     24  C   UNL     1      -4.600  -2.542   5.542  0.00  0.00    +0.009 C 
ATOM     25  C   UNL     1      -6.117  -2.738   5.481  0.00  0.00    +0.009 C 
ENDBRANCH  22  24
ENDBRANCH  21  22
ENDBRANCH  20  21
ENDBRANCH  17  20
ENDBRANCH  16  17
ENDBRANCH  14  16
BRANCH  14  26
ATOM     26  C   UNL     1      -2.643  -6.921  -1.477  0.00  0.00    -0.050 C 
BRANCH  26  27
ATOM     27  C   UNL     1      -1.159  -6.695  -1.181  0.00  0.00    +0.141 C 
BRANCH  27  28
ATOM     28  O   UNL     1      -0.699  -7.689  -0.263  0.00  0.00    -0.385 OA
ATOM     29  C   UNL     1       0.682  -7.567   0.081  0.00  0.00    +0.193 C 
ENDBRANCH  27  28
ENDBRANCH  26  27
ENDBRANCH  14  26
ENDBRANCH  13  14
ENDBRANCH   1  13
BRANCH   5  30
ATOM     30  O   UNL     1      -4.887  -9.603   1.283  0.00  0.00    -0.435 OA
BRANCH  30  31
ATOM     31  C   UNL     1      -6.066  -9.575   1.959  0.00  0.00    +0.166 A 
ATOM     32  C   UNL     1      -7.264  -9.693   1.270  0.00  0.00    +0.052 A 
ATOM     33  C   UNL     1      -8.462  -9.664   1.958  0.00  0.00    +0.042 A 
ATOM     34  C   UNL     1      -8.468  -9.518   3.334  0.00  0.00    +0.126 A 
ATOM     35  C   UNL     1      -7.274  -9.399   4.025  0.00  0.00    +0.080 A 
ATOM     36  C   UNL     1      -6.073  -9.434   3.341  0.00  0.00    +0.168 A 
ATOM     37  F   UNL     1      -4.907  -9.324   4.015  0.00  0.00    -0.202 F 
ATOM     38  F   UNL     1      -9.641  -9.489   4.004  0.00  0.00    -0.205 F 
ENDBRANCH  30  31
ENDBRANCH   5  30
TORSDOF 15
