REMARK  Name = ZINC66343004
REMARK  5 active torsions:
REMARK  status: ('A' for Active; 'I' for Inactive)
REMARK    1  A    between atoms: C_5  and  C_7
REMARK    2  A    between atoms: N_9  and  N_10
REMARK    3  A    between atoms: N_13  and  C_14
REMARK    4  A    between atoms: C_14  and  C_15
REMARK    5  A    between atoms: N_19  and  C_21
REMARK                            x       y       z     vdW  Elec       q    Type
REMARK                         _______ _______ _______ _____ _____    ______ ____
ROOT
ATOM      1  N   UNL     1       0.121  -4.256  -0.022  0.00  0.00    -0.218 N 
ATOM      2  C   UNL     1      -1.033  -4.952  -0.015  0.00  0.00    +0.316 C 
ATOM      3  O   UNL     1      -1.010  -6.167  -0.022  0.00  0.00    -0.251 OA
ATOM      4  N   UNL     1      -2.212  -4.300   0.001  0.00  0.00    -0.298 N 
ATOM      5  H   UNL     1       0.970  -4.725  -0.034  0.00  0.00    +0.174 HD
ATOM      6  H   UNL     1      -2.231  -3.330   0.007  0.00  0.00    +0.150 HD
ENDROOT
BRANCH   1   9
ATOM      7  C   UNL     1       1.250  -2.160  -0.022  0.00  0.00    +0.263 C 
ATOM      8  O   UNL     1       2.314  -2.748  -0.036  0.00  0.00    -0.269 OA
ATOM      9  N   UNL     1       0.095  -2.855  -0.014  0.00  0.00    -0.229 N 
ATOM     10  H   UNL     1      -0.753  -2.386  -0.003  0.00  0.00    +0.173 HD
BRANCH   7  15
ATOM     11  C   UNL     1      -0.017   1.374   0.010  0.00  0.00    +0.001 A 
ATOM     12  C   UNL     1       1.170   2.087   0.002  0.00  0.00    +0.003 A 
ATOM     13  C   UNL     1       2.383   1.425  -0.013  0.00  0.00    +0.039 A 
ATOM     14  C   UNL     1       2.418   0.042  -0.021  0.00  0.00    +0.136 A 
ATOM     15  C   UNL     1       1.222  -0.683  -0.013  0.00  0.00    +0.073 A 
ATOM     16  C   UNL     1       0.002  -0.004   0.002  0.00  0.00    +0.016 A 
ATOM     17  F   UNL     1       3.603  -0.606  -0.037  0.00  0.00    -0.205 F 
ENDBRANCH   7  15
ENDBRANCH   1   9
BRANCH   4  18
ATOM     18  C   UNL     1      -3.467  -5.056   0.009  0.00  0.00    +0.111 C 
BRANCH  18  19
ATOM     19  C   UNL     1      -4.648  -4.083   0.027  0.00  0.00    +0.025 C 
ATOM     20  C   UNL     1      -4.753  -3.322  -1.321  0.00  0.00    +0.025 C 
ATOM     21  C   UNL     1      -6.262  -2.977  -1.367  0.00  0.00    +0.105 C 
ATOM     22  N   UNL     1      -6.936  -4.150  -0.781  0.00  0.00    -0.330 N 
ATOM     23  C   UNL     1      -5.986  -4.850   0.100  0.00  0.00    +0.110 C 
BRANCH  22  24
ATOM     24  C   UNL     1      -8.260  -4.533  -1.019  0.00  0.00    +0.030 A 
ATOM     25  C   UNL     1      -8.780  -5.661  -0.398  0.00  0.00    +0.026 A 
ATOM     26  C   UNL     1     -10.088  -6.037  -0.634  0.00  0.00    +0.040 A 
ATOM     27  C   UNL     1     -10.880  -5.290  -1.489  0.00  0.00    +0.124 A 
ATOM     28  C   UNL     1     -10.364  -4.165  -2.109  0.00  0.00    +0.040 A 
ATOM     29  C   UNL     1      -9.058  -3.782  -1.872  0.00  0.00    +0.026 A 
ATOM     30  F   UNL     1     -12.159  -5.660  -1.719  0.00  0.00    -0.205 F 
ENDBRANCH  22  24
ENDBRANCH  18  19
ENDBRANCH   4  18
TORSDOF 5
