REMARK  Name = ZINC59040406
REMARK  5 active torsions:
REMARK  status: ('A' for Active; 'I' for Inactive)
REMARK    1  A    between atoms: N_5  and  N_6
REMARK    2  A    between atoms: C_9  and  S_12
REMARK    3  A    between atoms: S_12  and  C_13
REMARK    4  A    between atoms: C_13  and  C_14
REMARK    5  A    between atoms: C_14  and  C_16
REMARK                            x       y       z     vdW  Elec       q    Type
REMARK                         _______ _______ _______ _____ _____    ______ ____
ROOT
ATOM      1  N   UNL     1       1.285  -2.699  -0.324  0.00  0.00    -0.205 N 
ATOM      2  C   UNL     1       1.685  -3.998  -0.071  0.00  0.00    +0.232 A 
ATOM      3  N   UNL     1       2.757  -4.361   0.600  0.00  0.00    -0.186 NA
ATOM      4  C   UNL     1       2.828  -5.696   0.648  0.00  0.00    +0.210 A 
ATOM      5  N   UNL     1       1.801  -6.200   0.007  0.00  0.00    -0.144 NA
ATOM      6  N   UNL     1       1.040  -5.118  -0.463  0.00  0.00    -0.245 N 
ATOM      7  H   UNL     1       0.472  -2.530  -0.827  0.00  0.00    +0.177 HD
ATOM      8  H   UNL     1       0.216  -5.165  -0.972  0.00  0.00    +0.192 HD
ENDROOT
BRANCH   1  13
ATOM      9  C   UNL     1       0.443   1.546  -0.874  0.00  0.00    +0.006 C 
ATOM     10  C   UNL     1       1.931   1.921  -0.658  0.00  0.00    +0.006 C 
ATOM     11  C   UNL     1       2.401   0.842   0.348  0.00  0.00    +0.052 C 
ATOM     12  C   UNL     1       1.683  -0.422  -0.089  0.00  0.00    +0.037 C 
ATOM     13  N   UNL     1       2.053  -1.625   0.145  0.00  0.00    -0.189 NA
ATOM     14  C   UNL     1       0.447   0.004  -0.854  0.00  0.00    +0.052 C 
ENDBRANCH   1  13
BRANCH   4  15
ATOM     15  S   UNL     1       4.097  -6.626   1.442  0.00  0.00    -0.077 S 
BRANCH  15  16
ATOM     16  C   UNL     1       3.623  -8.353   1.151  0.00  0.00    +0.152 C 
BRANCH  16  17
ATOM     17  C   UNL     1       4.638  -9.267   1.786  0.00  0.00    +0.147 C 
ATOM     18  O   UNL     1       5.584  -8.801   2.376  0.00  0.00    -0.296 OA
BRANCH  17  19
ATOM     19  C   UNL     1       4.473 -10.761   1.688  0.00  0.00    +0.062 C 
ATOM     20  C   UNL     1       3.350 -11.213   2.623  0.00  0.00    +0.000 C 
ATOM     21  C   UNL     1       3.182 -12.731   2.522  0.00  0.00    +0.007 C 
ATOM     22  C   UNL     1       4.489 -13.416   2.926  0.00  0.00    -0.010 C 
ATOM     23  C   UNL     1       4.841 -13.036   4.366  0.00  0.00    +0.007 C 
ATOM     24  C   UNL     1       5.008 -11.519   4.467  0.00  0.00    -0.010 C 
ATOM     25  C   UNL     1       3.701 -10.833   4.063  0.00  0.00    +0.007 C 
ATOM     26  C   UNL     1       6.131 -11.066   3.531  0.00  0.00    +0.007 C 
ATOM     27  C   UNL     1       5.780 -11.447   2.091  0.00  0.00    +0.000 C 
ATOM     28  C   UNL     1       5.612 -12.964   1.991  0.00  0.00    +0.007 C 
ENDBRANCH  17  19
ENDBRANCH  16  17
ENDBRANCH  15  16
ENDBRANCH   4  15
TORSDOF 5
