REMARK  Name = ZINC59293222
REMARK  14 active torsions:
REMARK  status: ('A' for Active; 'I' for Inactive)
REMARK    1  A    between atoms: C_1  and  C_2
REMARK    2  A    between atoms: C_3  and  C_33
REMARK    3  A    between atoms: N_11  and  C_14
REMARK    4  A    between atoms: C_14  and  C_15
REMARK    5  A    between atoms: C_15  and  O_17
REMARK    6  A    between atoms: O_17  and  C_18
REMARK    7  A    between atoms: C_18  and  C_19
REMARK    8  A    between atoms: C_25  and  C_29
REMARK    9  A    between atoms: C_26  and  N_28
REMARK   10  A    between atoms: C_29  and  O_31
REMARK   11  A    between atoms: O_31  and  C_32
REMARK   12  A    between atoms: C_33  and  O_35
REMARK   13  A    between atoms: O_35  and  C_36
REMARK   14  A    between atoms: C_36  and  C_37
REMARK                            x       y       z     vdW  Elec       q    Type
REMARK                         _______ _______ _______ _____ _____    ______ ____
ROOT
ATOM      1  C   UNL     1       0.235   1.300  -1.369  0.00  0.00    +0.087 C 
ATOM      2  C   UNL     1       0.167  -0.180  -1.092  0.00  0.00    +0.116 C 
ATOM      3  C   UNL     1      -1.023  -0.797  -1.142  0.00  0.00    +0.098 C 
ATOM      4  C   UNL     1      -1.141  -2.269  -0.875  0.00  0.00    +0.145 C 
ATOM      5  C   UNL     1      -1.785  -2.514   0.466  0.00  0.00    -0.002 A 
ATOM      6  C   UNL     1      -1.429  -2.185   1.755  0.00  0.00    +0.007 A 
ATOM      7  C   UNL     1      -2.241  -2.555   2.812  0.00  0.00    +0.000 A 
ATOM      8  C   UNL     1      -3.409  -3.255   2.570  0.00  0.00    +0.002 A 
ATOM      9  C   UNL     1      -3.769  -3.587   1.281  0.00  0.00    +0.024 A 
ATOM     10  C   UNL     1      -2.956  -3.217   0.211  0.00  0.00    +0.042 A 
ATOM     11  N   UNL     1      -3.101  -3.431  -1.161  0.00  0.00    -0.259 N 
ATOM     12  C   UNL     1      -2.084  -2.908  -1.868  0.00  0.00    +0.240 C 
ATOM     13  O   UNL     1      -1.949  -2.943  -3.073  0.00  0.00    -0.274 OA
ATOM     14  C   UNL     1       0.207  -2.928  -0.940  0.00  0.00    +0.117 C 
ATOM     15  C   UNL     1       1.343  -2.182  -0.901  0.00  0.00    +0.195 C 
ATOM     16  O   UNL     1       1.299  -0.843  -0.808  0.00  0.00    -0.446 OA
ENDROOT
BRANCH  15  17
ATOM     17  N   UNL     1       2.559  -2.809  -0.964  0.00  0.00    -0.329 N 
ATOM     18  H   UNL     1       2.604  -3.767  -1.108  0.00  0.00    +0.145 HD
ATOM     19  H   UNL     1       3.375  -2.295  -0.863  0.00  0.00    +0.145 HD
ENDBRANCH  15  17
BRANCH  14  20
ATOM     20  C   UNL     1       0.295  -4.325  -1.040  0.00  0.00    +0.341 C 
ATOM     21  O   UNL     1       0.180  -5.016  -0.043  0.00  0.00    -0.245 OA
BRANCH  20  22
ATOM     22  O   UNL     1       0.506  -4.904  -2.242  0.00  0.00    -0.465 OA
ATOM     23  C   UNL     1       0.585  -6.331  -2.270  0.00  0.00    +0.280 C 
ENDBRANCH  20  22
ENDBRANCH  14  20
BRANCH   3  24
ATOM     24  C   UNL     1      -2.185  -0.048  -1.451  0.00  0.00    +0.340 C 
ATOM     25  O   UNL     1      -3.259  -0.609  -1.557  0.00  0.00    -0.245 OA
BRANCH  24  26
ATOM     26  O   UNL     1      -2.100   1.287  -1.626  0.00  0.00    -0.457 OA
BRANCH  26  27
ATOM     27  C   UNL     1      -3.326   1.995  -1.821  0.00  0.00    +0.259 C 
BRANCH  27  28
ATOM     28  C   UNL     1      -3.030   3.444  -2.111  0.00  0.00    +0.006 C 
ATOM     29  C   UNL     1      -3.634   4.051  -3.102  0.00  0.00    +0.007 C 
ENDBRANCH  27  28
ENDBRANCH  26  27
ENDBRANCH  24  26
ENDBRANCH   3  24
BRANCH  11  30
ATOM     30  C   UNL     1      -4.232  -4.144  -1.762  0.00  0.00    +0.234 C 
BRANCH  30  31
ATOM     31  C   UNL     1      -5.385  -3.191  -1.945  0.00  0.00    +0.325 C 
ATOM     32  O   UNL     1      -5.261  -2.027  -1.648  0.00  0.00    -0.249 OA
BRANCH  31  33
ATOM     33  O   UNL     1      -6.551  -3.637  -2.438  0.00  0.00    -0.459 OA
BRANCH  33  34
ATOM     34  C   UNL     1      -7.636  -2.707  -2.479  0.00  0.00    +0.267 C 
BRANCH  34  35
ATOM     35  C   UNL     1      -8.883  -3.411  -2.948  0.00  0.00    -0.010 A 
ATOM     36  C   UNL     1      -9.179  -3.468  -4.298  0.00  0.00    +0.007 A 
ATOM     37  C   UNL     1     -10.323  -4.114  -4.728  0.00  0.00    +0.000 A 
ATOM     38  C   UNL     1     -11.171  -4.702  -3.809  0.00  0.00    +0.000 A 
ATOM     39  C   UNL     1     -10.876  -4.646  -2.460  0.00  0.00    +0.000 A 
ATOM     40  C   UNL     1      -9.729  -4.004  -2.030  0.00  0.00    +0.007 A 
ENDBRANCH  34  35
ENDBRANCH  33  34
ENDBRANCH  31  33
ENDBRANCH  30  31
ENDBRANCH  11  30
TORSDOF 12
