REMARK  Name = ZINC04735754
REMARK  4 active torsions:
REMARK  status: ('A' for Active; 'I' for Inactive)
REMARK    1  A    between atoms: C_1  and  C_2
REMARK    2  A    between atoms: C_7  and  N_8
REMARK    3  A    between atoms: N_8  and  S_9
REMARK    4  A    between atoms: S_9  and  C_12
REMARK                            x       y       z     vdW  Elec       q    Type
REMARK                         _______ _______ _______ _____ _____    ______ ____
ROOT
ATOM      1  C   UNL     1       0.149   2.110  -6.985  0.00  0.00    +0.046 C 
ATOM      2  C   UNL     1      -0.139   1.856  -5.527  0.00  0.00    -0.025 A 
ATOM      3  C   UNL     1      -1.421   2.074  -5.051  0.00  0.00    +0.052 A 
ATOM      4  C   UNL     1      -1.648   1.829  -3.700  0.00  0.00    +0.136 A 
ATOM      5  C   UNL     1      -0.600   1.375  -2.862  0.00  0.00    +0.025 A 
ATOM      6  C   UNL     1       0.688   1.159  -3.355  0.00  0.00    +0.036 A 
ATOM      7  C   UNL     1       0.891   1.410  -4.707  0.00  0.00    +0.052 A 
ATOM      8  C   UNL     1      -1.192   1.232  -1.546  0.00  0.00    +0.001 A 
ATOM      9  C   UNL     1      -2.486   1.587  -1.670  0.00  0.00    +0.109 A 
ATOM     10  O   UNL     1      -2.746   1.939  -2.944  0.00  0.00    -0.459 OA
ATOM     11  C   UNL     1      -3.468   1.579  -0.521  0.00  0.00    +0.075 C 
ATOM     12  C   UNL     1      -2.886   0.730   0.614  0.00  0.00    +0.008 C 
ATOM     13  C   UNL     1      -1.449   1.185   0.910  0.00  0.00    +0.005 C 
ATOM     14  C   UNL     1      -0.546   0.782  -0.263  0.00  0.00    +0.039 C 
ENDROOT
BRANCH   7  15
ATOM     15  N   UNL     1       2.162   1.210  -5.255  0.00  0.00    -0.216 N 
ATOM     16  H   UNL     1       2.488   1.800  -5.954  0.00  0.00    +0.174 HD
BRANCH  15  17
ATOM     17  S   UNL     1       3.112  -0.033  -4.712  0.00  0.00    +0.079 S 
ATOM     18  O   UNL     1       4.263  -0.058  -5.545  0.00  0.00    -0.149 OA
ATOM     19  O   UNL     1       3.196   0.107  -3.301  0.00  0.00    -0.149 OA
BRANCH  17  20
ATOM     20  C   UNL     1       2.236  -1.530  -5.019  0.00  0.00    +0.146 A 
ATOM     21  C   UNL     1       2.262  -2.326  -6.116  0.00  0.00    +0.036 A 
ATOM     22  C   UNL     1       1.483  -3.467  -6.136  0.00  0.00    +0.010 A 
ATOM     23  C   UNL     1       0.715  -3.757  -5.057  0.00  0.00    +0.047 A 
ATOM     24  S   UNL     1       1.089  -2.398  -3.961  0.00  0.00    -0.077 S 
ENDBRANCH  17  20
ENDBRANCH  15  17
ENDBRANCH   7  15
TORSDOF 3
