REMARK  Name = ZINC35489694
REMARK  13 active torsions:
REMARK  status: ('A' for Active; 'I' for Inactive)
REMARK    1  A    between atoms: C_1  and  C_2
REMARK    2  A    between atoms: C_2  and  C_3
REMARK    3  A    between atoms: C_2  and  C_4
REMARK    4  A    between atoms: C_2  and  O_5
REMARK    5  A    between atoms: O_5  and  C_6
REMARK    6  A    between atoms: N_8  and  C_9
REMARK    7  A    between atoms: C_9  and  C_10
REMARK    8  A    between atoms: C_10  and  C_11
REMARK    9  A    between atoms: C_11  and  N_12
REMARK   10  A    between atoms: N_12  and  C_13
REMARK   11  A    between atoms: C_13  and  C_14
REMARK   12  A    between atoms: C_23  and  C_25
REMARK   13  A    between atoms: C_25  and  C_28
REMARK                            x       y       z     vdW  Elec       q    Type
REMARK                         _______ _______ _______ _____ _____    ______ ____
ROOT
ATOM      1  C   UNL     1      -0.847  -2.372  -4.128  0.00  0.00    +0.410 C 
ATOM      2  O   UNL     1      -1.603  -3.023  -3.435  0.00  0.00    -0.226 OA
ATOM      3  N   UNL     1       0.433  -2.195  -3.747  0.00  0.00    -0.207 N 
ATOM      4  C   UNL     1       1.243  -1.387  -4.460  0.00  0.00    +0.235 C 
ATOM      5  O   UNL     1       0.793  -0.738  -5.380  0.00  0.00    -0.274 OA
ENDROOT
BRANCH   4   6
ATOM      6  C   UNL     1       2.706  -1.291  -4.114  0.00  0.00    +0.073 C 
ATOM      7  C   UNL     1       3.122  -0.231  -3.091  0.00  0.00    +0.022 C 
ATOM      8  C   UNL     1       3.460  -0.040  -4.572  0.00  0.00    +0.022 C 
BRANCH   6   9
ATOM      9  C   UNL     1       3.461  -2.595  -4.111  0.00  0.00    -0.032 A 
ATOM     10  C   UNL     1       3.550  -3.345  -5.269  0.00  0.00    +0.004 A 
ATOM     11  C   UNL     1       4.242  -4.542  -5.266  0.00  0.00    +0.000 A 
ATOM     12  C   UNL     1       4.845  -4.989  -4.105  0.00  0.00    +0.000 A 
ATOM     13  C   UNL     1       4.756  -4.239  -2.947  0.00  0.00    +0.000 A 
ATOM     14  C   UNL     1       4.068  -3.040  -2.951  0.00  0.00    +0.004 A 
ENDBRANCH   6   9
ENDBRANCH   4   6
BRANCH   1  15
ATOM     15  O   UNL     1      -1.289  -1.829  -5.277  0.00  0.00    -0.444 OA
BRANCH  15  17
ATOM     16  C   UNL     1      -3.569  -1.541  -4.530  0.00  0.00    +0.055 C 
ATOM     17  C   UNL     1      -2.651  -2.076  -5.631  0.00  0.00    +0.107 C 
ATOM     18  C   UNL     1      -2.871  -3.582  -5.791  0.00  0.00    +0.055 C 
ATOM     19  C   UNL     1      -2.972  -1.371  -6.950  0.00  0.00    +0.055 C 
ENDBRANCH  15  17
ENDBRANCH   1  15
BRANCH   3  20
ATOM     20  C   UNL     1       0.945  -2.880  -2.558  0.00  0.00    +0.118 C 
BRANCH  20  21
ATOM     21  C   UNL     1       1.334  -4.314  -2.923  0.00  0.00    +0.001 C 
BRANCH  21  22
ATOM     22  C   UNL     1       2.086  -4.953  -1.754  0.00  0.00    -0.081 C 
BRANCH  22  23
ATOM     23  N   UNL     1       2.414  -6.346  -2.085  0.00  0.00    +0.382 N 
ATOM     24  H   UNL     1       1.571  -6.839  -2.336  0.00  0.00    -0.085 HD
ATOM     25  H   UNL     1       3.059  -6.364  -2.861  0.00  0.00    -0.085 HD
BRANCH  23  26
ATOM     26  C   UNL     1       3.032  -6.993  -0.920  0.00  0.00    -0.047 C 
BRANCH  26  27
ATOM     27  C   UNL     1       3.369  -8.422  -1.259  0.00  0.00    -0.061 A 
ATOM     28  C   UNL     1       2.439  -9.421  -1.039  0.00  0.00    +0.005 A 
ATOM     29  C   UNL     1       2.744 -10.734  -1.349  0.00  0.00    +0.050 A 
ATOM     30  C   UNL     1       3.983 -11.050  -1.882  0.00  0.00    +0.166 A 
ATOM     31  C   UNL     1       4.919 -10.044  -2.104  0.00  0.00    +0.166 A 
ATOM     32  C   UNL     1       4.605  -8.730  -1.796  0.00  0.00    +0.051 A 
ATOM     33  O   UNL     1       6.047 -10.606  -2.629  0.00  0.00    -0.453 OA
ATOM     34  C   UNL     1       5.943 -12.014  -2.345  0.00  0.00    +0.466 C 
ATOM     35  O   UNL     1       4.524 -12.243  -2.268  0.00  0.00    -0.453 OA
ENDBRANCH  26  27
ENDBRANCH  23  26
ENDBRANCH  22  23
ENDBRANCH  21  22
ENDBRANCH  20  21
ENDBRANCH   3  20
TORSDOF 10
