REMARK  Name = ZINC20362068
REMARK  6 active torsions:
REMARK  status: ('A' for Active; 'I' for Inactive)
REMARK    1  A    between atoms: C_1  and  C_2
REMARK    2  A    between atoms: C_2  and  N_3
REMARK    3  A    between atoms: C_7  and  C_9
REMARK    4  A    between atoms: C_9  and  C_11
REMARK    5  A    between atoms: C_9  and  N_12
REMARK    6  A    between atoms: N_12  and  C_13
REMARK                            x       y       z     vdW  Elec       q    Type
REMARK                         _______ _______ _______ _____ _____    ______ ____
ROOT
ATOM      1  C   UNL     1      -0.729   1.579   1.267  0.00  0.00    +0.154 C 
ATOM      2  C   UNL     1      -0.013   1.086   0.008  0.00  0.00    +0.038 C 
ENDROOT
BRANCH   1   7
ATOM      3  N   UNL     1       0.938  -2.015   3.989  0.00  0.00    -0.299 N 
ATOM      4  C   UNL     1       0.795  -0.691   3.784  0.00  0.00    +0.306 C 
ATOM      5  O   UNL     1       1.254   0.101   4.584  0.00  0.00    -0.252 OA
ATOM      6  N   UNL     1       0.143  -0.244   2.692  0.00  0.00    -0.239 N 
ATOM      7  C   UNL     1       0.000   1.080   2.488  0.00  0.00    +0.240 C 
ATOM      8  O   UNL     1       0.458   1.870   3.286  0.00  0.00    -0.273 OA
ATOM      9  H   UNL     1       0.523  -2.732   3.265  0.00  0.00    +0.150 HD
ATOM     10  H   UNL     1      -0.272  -0.961   1.968  0.00  0.00    +0.159 HD
BRANCH   3  12
ATOM     11  C   UNL     1       1.667  -4.030   5.168  0.00  0.00    +0.024 C 
ATOM     12  C   UNL     1       1.647  -2.501   5.176  0.00  0.00    +0.102 C 
ENDBRANCH   3  12
ENDBRANCH   1   7
BRANCH   1  13
ATOM     13  N   UNL     1      -0.749   3.044   1.275  0.00  0.00    -0.333 N 
ATOM     14  H   UNL     1       0.029   3.602   1.817  0.00  0.00    +0.147 HD
BRANCH  13  15
ATOM     15  C   UNL     1      -1.756   3.733   0.594  0.00  0.00    +0.033 A 
ATOM     16  C   UNL     1      -2.735   3.030  -0.095  0.00  0.00    +0.061 A 
ATOM     17  C   UNL     1      -3.735   3.713  -0.763  0.00  0.00    +0.128 A 
ATOM     18  C   UNL     1      -3.753   5.098  -0.755  0.00  0.00    +0.076 A 
ATOM     19  C   UNL     1      -2.773   5.801  -0.073  0.00  0.00    +0.128 A 
ATOM     20  C   UNL     1      -1.775   5.121   0.601  0.00  0.00    +0.061 A 
ATOM     21  F   UNL     1      -2.793   7.152  -0.067  0.00  0.00    -0.205 F 
ATOM     22  F   UNL     1      -4.692   3.030  -1.428  0.00  0.00    -0.205 F 
ENDBRANCH  13  15
ENDBRANCH   1  13
TORSDOF 4
