REMARK  Name = ZINC00143238
REMARK  5 active torsions:
REMARK  status: ('A' for Active; 'I' for Inactive)
REMARK    1  A    between atoms: C_1  and  C_2
REMARK    2  A    between atoms: C_6  and  C_7
REMARK    3  A    between atoms: N_8  and  N_9
REMARK    4  A    between atoms: C_10  and  C_12
REMARK    5  A    between atoms: C_13  and  C_18
REMARK                            x       y       z     vdW  Elec       q    Type
REMARK                         _______ _______ _______ _____ _____    ______ ____
ROOT
ATOM      1  N   UNL     1      -0.016   1.344   0.009  0.00  0.00    -0.202 N 
ATOM      2  C   UNL     1       0.002  -0.004   0.002  0.00  0.00    +0.272 C 
ATOM      3  O   UNL     1      -1.044  -0.627   0.009  0.00  0.00    -0.268 OA
ATOM      4  H   UNL     1       0.817   1.840   0.004  0.00  0.00    +0.178 HD
ENDROOT
BRANCH   2   5
ATOM      5  C   UNL     1       1.278  -0.718  -0.014  0.00  0.00    +0.100 A 
ATOM      6  C   UNL     1       1.530  -2.082  -0.018  0.00  0.00    +0.060 A 
ATOM      7  N   UNL     1       2.779  -2.471  -0.037  0.00  0.00    -0.230 NA
ATOM      8  C   UNL     1       3.777  -1.599  -0.042  0.00  0.00    +0.156 A 
ATOM      9  S   UNL     1       2.946  -0.075  -0.026  0.00  0.00    -0.048 S 
ATOM     10  N   UNL     1       5.134  -1.842  -0.056  0.00  0.00    -0.337 N 
ATOM     11  C   UNL     1       0.403  -3.083  -0.005  0.00  0.00    +0.067 C 
ATOM     12  H   UNL     1       5.759  -1.100  -0.058  0.00  0.00    +0.144 HD
ATOM     13  H   UNL     1       5.463  -2.754  -0.063  0.00  0.00    +0.144 HD
ENDBRANCH   2   5
BRANCH   1  15
ATOM     14  C   UNL     1      -1.256   3.328   0.026  0.00  0.00    +0.145 C 
ATOM     15  N   UNL     1      -1.239   2.027   0.019  0.00  0.00    -0.187 NA
BRANCH  14  21
ATOM     16  C   UNL     1      -1.631   6.390   0.058  0.00  0.00    +0.045 C 
ATOM     17  C   UNL     1      -2.773   5.408   0.050  0.00  0.00    -0.035 A 
ATOM     18  C   UNL     1      -4.078   5.844   0.053  0.00  0.00    +0.011 A 
ATOM     19  C   UNL     1      -5.085   4.932   0.053  0.00  0.00    +0.046 A 
ATOM     20  S   UNL     1      -4.195   3.384   0.041  0.00  0.00    -0.095 S 
ATOM     21  C   UNL     1      -2.537   4.044   0.036  0.00  0.00    +0.035 A 
ENDBRANCH  14  21
ENDBRANCH   1  15
TORSDOF 3
