REMARK  Name = ZINC23196937
REMARK  15 active torsions:
REMARK  status: ('A' for Active; 'I' for Inactive)
REMARK    1  A    between atoms: C_1  and  C_2
REMARK    2  A    between atoms: C_2  and  N_3
REMARK    3  A    between atoms: N_3  and  C_4
REMARK    4  A    between atoms: N_3  and  C_6
REMARK    5  A    between atoms: C_4  and  C_5
REMARK    6  A    between atoms: C_6  and  C_8
REMARK    7  A    between atoms: C_6  and  C_15
REMARK    8  A    between atoms: C_8  and  C_9
REMARK    9  A    between atoms: C_15  and  N_16
REMARK   10  A    between atoms: C_17  and  C_19
REMARK   11  A    between atoms: C_19  and  N_20
REMARK   12  A    between atoms: C_23  and  C_27
REMARK   13  A    between atoms: C_23  and  C_28
REMARK   14  A    between atoms: C_31  and  O_34
REMARK   15  A    between atoms: O_34  and  C_35
REMARK                            x       y       z     vdW  Elec       q    Type
REMARK                         _______ _______ _______ _____ _____    ______ ____
ROOT
ATOM      1  N   UNL     1      -2.429   2.832  -0.037  0.00  0.00    -0.316 N 
ATOM      2  C   UNL     1      -3.127   3.482  -0.990  0.00  0.00    +0.231 C 
ATOM      3  O   UNL     1      -3.844   2.861  -1.746  0.00  0.00    -0.274 OA
ATOM      4  H   UNL     1      -1.779   3.395   0.649  0.00  0.00    +0.149 HD
ENDROOT
BRANCH   1   5
ATOM      5  C   UNL     1      -2.536   1.376   0.084  0.00  0.00    +0.089 C 
BRANCH   5   6
ATOM      6  C   UNL     1      -1.724   0.904   1.292  0.00  0.00    -0.047 C 
BRANCH   6   7
ATOM      7  N   UNL     1      -0.316   1.281   1.113  0.00  0.00    +0.382 N 
ATOM      8  H   UNL     1       0.305   0.497   1.571  0.00  0.00    -0.081 HD
BRANCH   7  10
ATOM      9  C   UNL     1       0.122   2.296   3.298  0.00  0.00    -0.017 C 
ATOM     10  C   UNL     1      -0.019   2.548   1.796  0.00  0.00    -0.082 C 
ENDBRANCH   7  10
BRANCH   7  11
ATOM     11  C   UNL     1       0.032   1.358  -0.312  0.00  0.00    -0.082 C 
ATOM     12  C   UNL     1       0.085  -0.053  -0.901  0.00  0.00    -0.017 C 
ENDBRANCH   7  11
ENDBRANCH   6   7
BRANCH   6  13
ATOM     13  C   UNL     1      -1.832  -0.617   1.416  0.00  0.00    +0.021 C 
BRANCH  13  14
ATOM     14  C   UNL     1      -1.167  -1.066   2.692  0.00  0.00    -0.049 A 
ATOM     15  C   UNL     1       0.193  -1.317   2.711  0.00  0.00    +0.003 A 
ATOM     16  C   UNL     1       0.804  -1.723   3.882  0.00  0.00    +0.000 A 
ATOM     17  C   UNL     1       0.054  -1.889   5.032  0.00  0.00    +0.000 A 
ATOM     18  C   UNL     1      -1.306  -1.643   5.011  0.00  0.00    +0.000 A 
ATOM     19  C   UNL     1      -1.916  -1.232   3.841  0.00  0.00    +0.003 A 
ENDBRANCH  13  14
ENDBRANCH   6  13
ENDBRANCH   5   6
ENDBRANCH   1   5
BRANCH   2  20
ATOM     20  C   UNL     1      -3.017   4.979  -1.115  0.00  0.00    +0.213 C 
BRANCH  20  21
ATOM     21  N   UNL     1      -3.866   5.441  -2.216  0.00  0.00    -0.215 N 
ATOM     22  C   UNL     1      -5.157   5.802  -2.077  0.00  0.00    +0.251 C 
ATOM     23  O   UNL     1      -5.811   5.804  -1.056  0.00  0.00    -0.272 OA
ATOM     24  C   UNL     1      -5.622   6.203  -3.462  0.00  0.00    +0.135 C 
ATOM     25  N   UNL     1      -4.426   6.003  -4.300  0.00  0.00    -0.281 N 
ATOM     26  C   UNL     1      -3.453   5.562  -3.483  0.00  0.00    +0.310 C 
ATOM     27  O   UNL     1      -2.326   5.301  -3.854  0.00  0.00    -0.252 OA
ATOM     28  C   UNL     1      -6.764   5.299  -3.930  0.00  0.00    +0.047 C 
ATOM     29  H   UNL     1      -4.469   6.216  -5.378  0.00  0.00    +0.152 HD
BRANCH  24  30
ATOM     30  C   UNL     1      -6.047   7.649  -3.481  0.00  0.00    -0.015 A 
ATOM     31  C   UNL     1      -6.576   8.227  -2.342  0.00  0.00    +0.010 A 
ATOM     32  C   UNL     1      -6.961   9.554  -2.355  0.00  0.00    +0.046 A 
ATOM     33  C   UNL     1      -6.827  10.303  -3.515  0.00  0.00    +0.120 A 
ATOM     34  C   UNL     1      -6.301   9.718  -4.658  0.00  0.00    +0.046 A 
ATOM     35  C   UNL     1      -5.912   8.393  -4.639  0.00  0.00    +0.010 A 
BRANCH  33  36
ATOM     36  O   UNL     1      -7.211  11.606  -3.532  0.00  0.00    -0.495 OA
ATOM     37  C   UNL     1      -7.744  12.141  -2.319  0.00  0.00    +0.277 C 
ENDBRANCH  33  36
ENDBRANCH  24  30
ENDBRANCH  20  21
ENDBRANCH   2  20
TORSDOF 11
