REMARK  Name = ZINC13124788
REMARK  9 active torsions:
REMARK  status: ('A' for Active; 'I' for Inactive)
REMARK    1  A    between atoms: C_1  and  C_2
REMARK    2  A    between atoms: C_5  and  C_32
REMARK    3  A    between atoms: C_10  and  C_12
REMARK    4  A    between atoms: N_14  and  C_15
REMARK    5  A    between atoms: C_16  and  C_29
REMARK    6  A    between atoms: C_21  and  C_25
REMARK    7  A    between atoms: C_25  and  C_26
REMARK    8  A    between atoms: C_25  and  C_27
REMARK    9  A    between atoms: C_25  and  C_28
REMARK                            x       y       z     vdW  Elec       q    Type
REMARK                         _______ _______ _______ _____ _____    ______ ____
ROOT
ATOM      1  C   UNL     1      -1.230   2.158   0.020  0.00  0.00    +0.288 C 
ATOM      2  O   UNL     1      -2.329   1.640   0.022  0.00  0.00    -0.266 OA
ATOM      3  N   UNL     1      -1.117   3.501   0.027  0.00  0.00    -0.272 N 
ATOM      4  H   UNL     1      -0.122   3.970   0.024  0.00  0.00    +0.156 HD
ENDROOT
BRANCH   1  12
ATOM      5  C   UNL     1       5.576  -0.499   0.078  0.00  0.00    +0.028 C 
ATOM      6  C   UNL     1       4.105  -0.542  -0.341  0.00  0.00    +0.072 C 
ATOM      7  C   UNL     1       3.381  -1.647   0.437  0.00  0.00    +0.054 C 
ATOM      8  C   UNL     1       1.920  -1.731  -0.022  0.00  0.00    +0.178 C 
ATOM      9  N   UNL     1       1.344  -0.387  -0.012  0.00  0.00    -0.224 N 
ATOM     10  C   UNL     1       2.075   0.758  -0.014  0.00  0.00    +0.215 A 
ATOM     11  N   UNL     1       1.252   1.768  -0.000  0.00  0.00    -0.189 NA
ATOM     12  C   UNL     1      -0.016   1.315   0.009  0.00  0.00    +0.238 A 
ATOM     13  N   UNL     1       0.002  -0.004   0.002  0.00  0.00    -0.143 NA
ATOM     14  N   UNL     1       3.464   0.750  -0.031  0.00  0.00    -0.311 N 
ATOM     15  H   UNL     1       4.083   1.637   0.170  0.00  0.00    +0.149 HD
BRANCH   8  16
ATOM     16  C   UNL     1       1.134  -2.633   0.932  0.00  0.00    +0.365 C 
ATOM     17  F   UNL     1       1.687  -3.918   0.921  0.00  0.00    -0.207 F 
ATOM     18  F   UNL     1       1.198  -2.108   2.228  0.00  0.00    -0.207 F 
ENDBRANCH   8  16
ENDBRANCH   1  12
BRANCH   3  19
ATOM     19  C   UNL     1      -2.257   4.292   0.036  0.00  0.00    +0.090 A 
ATOM     20  C   UNL     1      -2.345   5.676   0.050  0.00  0.00    +0.084 A 
ATOM     21  C   UNL     1      -3.672   6.265   0.054  0.00  0.00    -0.018 A 
ATOM     22  C   UNL     1      -4.694   5.380   0.054  0.00  0.00    -0.004 A 
ATOM     23  S   UNL     1      -3.915   3.791   0.042  0.00  0.00    -0.077 S 
ATOM     24  C   UNL     1      -6.159   5.692   0.063  0.00  0.00    +0.047 C 
ATOM     25  C   UNL     1      -6.340   7.172  -0.307  0.00  0.00    -0.000 C 
ATOM     26  C   UNL     1      -5.370   8.012   0.529  0.00  0.00    +0.009 C 
ATOM     27  C   UNL     1      -3.934   7.766   0.064  0.00  0.00    +0.037 C 
BRANCH  25  28
ATOM     28  C   UNL     1      -7.778   7.601  -0.011  0.00  0.00    -0.035 C 
ATOM     29  C   UNL     1      -8.071   7.410   1.479  0.00  0.00    +0.011 C 
ATOM     30  C   UNL     1      -7.956   9.076  -0.380  0.00  0.00    +0.011 C 
ATOM     31  C   UNL     1      -8.745   6.749  -0.835  0.00  0.00    +0.011 C 
ENDBRANCH  25  28
BRANCH  20  32
ATOM     32  C   UNL     1      -1.169   6.495   0.056  0.00  0.00    +0.102 C 
ATOM     33  N   UNL     1      -0.237   7.144   0.060  0.00  0.00    -0.191 NA
ENDBRANCH  20  32
ENDBRANCH   3  19
TORSDOF 5
