REMARK  Name = ZINC39953446
REMARK  4 active torsions:
REMARK  status: ('A' for Active; 'I' for Inactive)
REMARK    1  A    between atoms: C_7  and  C_10
REMARK    2  A    between atoms: N_23  and  C_24
REMARK    3  A    between atoms: C_24  and  C_25
REMARK    4  A    between atoms: C_25  and  O_26
REMARK                            x       y       z     vdW  Elec       q    Type
REMARK                         _______ _______ _______ _____ _____    ______ ____
ROOT
ATOM      1  C   UNL     1       0.628  -3.298  -0.030  0.00  0.00    +0.034 C 
ATOM      2  C   UNL     1       1.224  -4.543  -0.071  0.00  0.00    +0.099 C 
ATOM      3  C   UNL     1       0.422  -5.788  -0.094  0.00  0.00    +0.210 C 
ATOM      4  O   UNL     1      -0.595  -5.843  -0.758  0.00  0.00    -0.285 OA
ATOM      5  C   UNL     1       0.858  -6.963   0.688  0.00  0.00    +0.050 A 
ATOM      6  C   UNL     1      -0.029  -8.033   0.862  0.00  0.00    +0.014 A 
ATOM      7  C   UNL     1       0.365  -9.144   1.576  0.00  0.00    +0.001 A 
ATOM      8  C   UNL     1       1.637  -9.207   2.120  0.00  0.00    +0.002 A 
ATOM      9  C   UNL     1       2.517  -8.151   1.957  0.00  0.00    +0.029 A 
ATOM     10  C   UNL     1       2.132  -7.030   1.252  0.00  0.00    +0.120 A 
ATOM     11  S   UNL     1       3.253  -5.677   1.087  0.00  0.00    +0.076 S 
ATOM     12  O   UNL     1       3.199  -4.947   2.305  0.00  0.00    -0.150 OA
ATOM     13  O   UNL     1       4.464  -6.208   0.567  0.00  0.00    -0.150 OA
ATOM     14  N   UNL     1       2.609  -4.692  -0.098  0.00  0.00    -0.197 N 
ENDROOT
BRANCH   1  21
ATOM     15  C   UNL     1      -0.356   1.122   0.176  0.00  0.00    +0.001 A 
ATOM     16  C   UNL     1       0.621   1.882   0.828  0.00  0.00    +0.002 A 
ATOM     17  C   UNL     1       1.742   1.320   1.337  0.00  0.00    +0.026 A 
ATOM     18  C   UNL     1       1.948  -0.082   1.215  0.00  0.00    +0.043 A 
ATOM     19  N   UNL     1       2.933  -0.855   1.616  0.00  0.00    -0.380 N 
ATOM     20  C   UNL     1       2.649  -2.241   1.232  0.00  0.00    +0.149 C 
ATOM     21  C   UNL     1       1.315  -2.214   0.520  0.00  0.00    -0.017 C 
ATOM     22  C   UNL     1       0.915  -0.877   0.527  0.00  0.00    +0.003 A 
ATOM     23  C   UNL     1      -0.228  -0.220   0.022  0.00  0.00    +0.010 A 
ATOM     24  H   UNL     1       3.724  -0.555   2.091  0.00  0.00    +0.160 HD
ENDBRANCH   1  21
BRANCH  14  25
ATOM     25  C   UNL     1       3.443  -4.026  -1.101  0.00  0.00    +0.159 C 
BRANCH  25  26
ATOM     26  C   UNL     1       4.028  -5.071  -2.054  0.00  0.00    +0.176 C 
BRANCH  26  27
ATOM     27  O   UNL     1       2.969  -5.707  -2.772  0.00  0.00    -0.393 OA
ATOM     28  H   UNL     1       3.259  -6.434  -3.339  0.00  0.00    +0.209 HD
ENDBRANCH  26  27
ENDBRANCH  25  26
ENDBRANCH  14  25
TORSDOF 4
