REMARK  Name = ZINC20618098
REMARK  11 active torsions:
REMARK  status: ('A' for Active; 'I' for Inactive)
REMARK    1  A    between atoms: C_1  and  C_2
REMARK    2  A    between atoms: C_2  and  C_3
REMARK    3  A    between atoms: C_3  and  C_5
REMARK    4  A    between atoms: C_3  and  N_6
REMARK    5  A    between atoms: N_6  and  C_7
REMARK    6  A    between atoms: N_6  and  C_31
REMARK    7  A    between atoms: C_7  and  C_8
REMARK    8  A    between atoms: C_8  and  N_9
REMARK    9  A    between atoms: C_10  and  C_12
REMARK   10  A    between atoms: C_15  and  N_18
REMARK   11  A    between atoms: C_31  and  C_32
REMARK                            x       y       z     vdW  Elec       q    Type
REMARK                         _______ _______ _______ _____ _____    ______ ____
ROOT
ATOM      1  N   UNL     1      -1.758   3.314  -1.647  0.00  0.00    -0.313 N 
ATOM      2  C   UNL     1      -2.732   3.880  -0.908  0.00  0.00    +0.244 C 
ATOM      3  O   UNL     1      -3.533   3.180  -0.318  0.00  0.00    -0.270 OA
ATOM      4  H   UNL     1      -1.119   3.872  -2.118  0.00  0.00    +0.149 HD
ENDROOT
BRANCH   2   5
ATOM      5  C   UNL     1      -2.827   5.348  -0.815  0.00  0.00    +0.037 A 
ATOM      6  C   UNL     1      -1.909   6.153  -1.498  0.00  0.00    +0.015 A 
ATOM      7  C   UNL     1      -1.997   7.512  -1.412  0.00  0.00    +0.028 A 
ATOM      8  C   UNL     1      -3.005   8.101  -0.640  0.00  0.00    +0.067 A 
ATOM      9  C   UNL     1      -3.923   7.295   0.044  0.00  0.00    +0.028 A 
ATOM     10  C   UNL     1      -3.838   5.936  -0.047  0.00  0.00    +0.015 A 
BRANCH   8  11
ATOM     11  N   UNL     1      -3.093   9.459  -0.553  0.00  0.00    -0.226 NA
ATOM     12  C   UNL     1      -4.262  10.052  -0.670  0.00  0.00    +0.155 C 
ATOM     13  N   UNL     1      -4.530  11.400  -0.615  0.00  0.00    -0.318 N 
ATOM     14  C   UNL     1      -5.894  11.851  -0.834  0.00  0.00    +0.108 C 
ATOM     15  C   UNL     1      -6.195  13.119  -0.014  0.00  0.00    +0.189 C 
ATOM     16  S   UNL     1      -7.016  12.461   1.492  0.00  0.00    -0.028 S 
ATOM     17  O   UNL     1      -6.161  12.662   2.610  0.00  0.00    -0.174 OA
ATOM     18  O   UNL     1      -8.352  12.944   1.539  0.00  0.00    -0.174 OA
ATOM     19  C   UNL     1      -7.041  10.669   1.072  0.00  0.00    +0.182 C 
ATOM     20  C   UNL     1      -6.904  10.727  -0.454  0.00  0.00    +0.097 C 
ATOM     21  S   UNL     1      -5.854   9.284  -0.944  0.00  0.00    -0.084 S 
ATOM     22  H   UNL     1      -3.822  12.038  -0.433  0.00  0.00    +0.148 HD
ENDBRANCH   8  11
ENDBRANCH   2   5
BRANCH   1  23
ATOM     23  C   UNL     1      -1.664   1.855  -1.740  0.00  0.00    +0.086 C 
BRANCH  23  24
ATOM     24  C   UNL     1      -0.481   1.476  -2.633  0.00  0.00    -0.059 C 
BRANCH  24  25
ATOM     25  N   UNL     1      -0.458   0.019  -2.824  0.00  0.00    +0.387 N 
ATOM     26  H   UNL     1      -1.351  -0.288  -3.178  0.00  0.00    -0.081 HD
BRANCH  25  27
ATOM     27  C   UNL     1      -0.189  -0.638  -1.538  0.00  0.00    -0.071 C 
ATOM     28  C   UNL     1       1.254  -0.357  -1.113  0.00  0.00    -0.013 C 
BRANCH  27  30
ATOM     29  C   UNL     1      -1.830  -2.427  -2.127  0.00  0.00    +0.002 C 
ATOM     30  C   UNL     1      -0.393  -2.147  -1.685  0.00  0.00    -0.019 C 
ENDBRANCH  27  30
ENDBRANCH  25  27
BRANCH  25  31
ATOM     31  C   UNL     1       0.597  -0.332  -3.784  0.00  0.00    -0.003 C 
BRANCH  31  32
ATOM     32  C   UNL     1       0.439  -1.772  -4.199  0.00  0.00    +0.089 A 
ATOM     33  C   UNL     1      -0.563  -2.270  -4.946  0.00  0.00    +0.042 A 
ATOM     34  C   UNL     1      -0.317  -3.655  -5.091  0.00  0.00    +0.041 A 
ATOM     35  C   UNL     1       0.821  -3.920  -4.424  0.00  0.00    +0.195 A 
ATOM     36  O   UNL     1       1.277  -2.775  -3.891  0.00  0.00    -0.470 OA
ENDBRANCH  31  32
ENDBRANCH  25  31
ENDBRANCH  24  25
ENDBRANCH  23  24
ENDBRANCH   1  23
TORSDOF 9
