REMARK  Name = ZINC50033469
REMARK  5 active torsions:
REMARK  status: ('A' for Active; 'I' for Inactive)
REMARK    1  A    between atoms: C_1  and  C_2
REMARK    2  A    between atoms: C_2  and  N_8
REMARK    3  A    between atoms: N_8  and  C_9
REMARK    4  A    between atoms: C_11  and  C_17
REMARK    5  A    between atoms: C_12  and  N_16
REMARK                            x       y       z     vdW  Elec       q    Type
REMARK                         _______ _______ _______ _____ _____    ______ ____
ROOT
ATOM      1  C   UNL     1      -2.153  -0.078   1.210  0.00  0.00    +0.064 A 
ATOM      2  C   UNL     1      -1.684   0.834   2.135  0.00  0.00    +0.042 A 
ATOM      3  C   UNL     1      -2.494   1.211   3.214  0.00  0.00    +0.086 A 
ATOM      4  C   UNL     1      -3.779   0.657   3.346  0.00  0.00    +0.042 A 
ATOM      5  C   UNL     1      -4.235  -0.258   2.407  0.00  0.00    +0.063 A 
ATOM      6  C   UNL     1      -3.431  -0.620   1.343  0.00  0.00    +0.146 A 
ATOM      7  F   UNL     1      -3.884  -1.507   0.430  0.00  0.00    -0.203 F 
ENDROOT
BRANCH   4   8
ATOM      8  N   UNL     1      -4.590   1.024   4.413  0.00  0.00    -0.357 N 
ATOM      9  H   UNL     1      -4.317   1.743   5.005  0.00  0.00    +0.142 HD
ATOM     10  H   UNL     1      -5.429   0.563   4.565  0.00  0.00    +0.142 HD
ENDBRANCH   4   8
BRANCH   3  11
ATOM     11  C   UNL     1      -2.002   2.179   4.203  0.00  0.00    +0.388 C 
ATOM     12  O   UNL     1      -0.848   2.582   4.144  0.00  0.00    -0.241 OA
ATOM     13  O   UNL     1      -2.747   2.584   5.086  0.00  0.00    -0.241 OA
ENDBRANCH   3  11
BRANCH   1  14
ATOM     14  N   UNL     1      -1.343  -0.456   0.130  0.00  0.00    -0.336 N 
ATOM     15  H   UNL     1      -1.685  -1.066  -0.542  0.00  0.00    +0.147 HD
BRANCH  14  17
ATOM     16  C   UNL     1      -0.034   1.596  -0.109  0.00  0.00    +0.031 C 
ATOM     17  C   UNL     1       0.019   0.072   0.015  0.00  0.00    +0.029 C 
ATOM     18  C   UNL     1       0.692  -0.518  -1.226  0.00  0.00    +0.025 C 
ATOM     19  C   UNL     1       0.744  -2.042  -1.101  0.00  0.00    +0.002 C 
ATOM     20  C   UNL     1       1.546  -2.425   0.145  0.00  0.00    +0.000 C 
ATOM     21  C   UNL     1       0.872  -1.835   1.385  0.00  0.00    +0.002 C 
ATOM     22  C   UNL     1       0.820  -0.311   1.261  0.00  0.00    +0.025 C 
ENDBRANCH  14  17
ENDBRANCH   1  14
TORSDOF 4
