REMARK  Name = ZINC20416171
REMARK  7 active torsions:
REMARK  status: ('A' for Active; 'I' for Inactive)
REMARK    1  A    between atoms: C_1  and  C_2
REMARK    2  A    between atoms: C_5  and  N_9
REMARK    3  A    between atoms: C_6  and  C_8
REMARK    4  A    between atoms: C_10  and  C_12
REMARK    5  A    between atoms: C_19  and  C_21
REMARK    6  A    between atoms: N_24  and  C_31
REMARK    7  A    between atoms: C_25  and  N_26
REMARK                            x       y       z     vdW  Elec       q    Type
REMARK                         _______ _______ _______ _____ _____    ______ ____
ROOT
ATOM      1  C   UNL     1       0.413  -0.462  -1.759  0.00  0.00    +0.093 C 
ATOM      2  C   UNL     1       1.738   0.246  -2.050  0.00  0.00    +0.016 C 
ATOM      3  C   UNL     1       1.511   1.759  -2.098  0.00  0.00    +0.020 C 
ATOM      4  C   UNL     1       0.997   2.237  -0.737  0.00  0.00    +0.108 C 
ATOM      5  N   UNL     1      -0.198   1.458  -0.382  0.00  0.00    -0.297 N 
ATOM      6  C   UNL     1      -0.114  -0.009  -0.394  0.00  0.00    +0.120 C 
ATOM      7  C   UNL     1      -1.350   2.078  -0.058  0.00  0.00    +0.252 C 
ATOM      8  O   UNL     1      -2.356   1.424   0.143  0.00  0.00    -0.270 OA
ENDROOT
BRANCH   7   9
ATOM      9  C   UNL     1      -1.391   3.543   0.052  0.00  0.00    +0.099 A 
ATOM     10  C   UNL     1      -0.292   4.399   0.292  0.00  0.00    +0.150 A 
ATOM     11  N   UNL     1      -0.729   5.627   0.317  0.00  0.00    -0.172 NA
ATOM     12  N   UNL     1      -2.113   5.626   0.107  0.00  0.00    -0.215 N 
ATOM     13  C   UNL     1      -2.519   4.349  -0.055  0.00  0.00    +0.153 A 
BRANCH  12  14
ATOM     14  C   UNL     1      -2.937   6.759   0.072  0.00  0.00    +0.068 A 
ATOM     15  C   UNL     1      -4.022   6.803  -0.794  0.00  0.00    +0.028 A 
ATOM     16  C   UNL     1      -4.836   7.918  -0.822  0.00  0.00    +0.002 A 
ATOM     17  C   UNL     1      -4.564   8.995   0.002  0.00  0.00    +0.000 A 
ATOM     18  C   UNL     1      -3.481   8.957   0.860  0.00  0.00    +0.002 A 
ATOM     19  C   UNL     1      -2.667   7.842   0.898  0.00  0.00    +0.028 A 
ENDBRANCH  12  14
BRANCH  13  20
ATOM     20  N   UNL     1      -3.821   3.920  -0.285  0.00  0.00    -0.307 N 
ATOM     21  C   UNL     1      -4.202   2.994  -1.217  0.00  0.00    +0.092 A 
ATOM     22  C   UNL     1      -5.539   2.843  -1.136  0.00  0.00    +0.019 A 
ATOM     23  C   UNL     1      -6.004   3.711  -0.126  0.00  0.00    +0.019 A 
ATOM     24  C   UNL     1      -4.934   4.357   0.377  0.00  0.00    +0.092 A 
ENDBRANCH  13  20
ENDBRANCH   7   9
BRANCH   1  26
ATOM     25  N   UNL     1      -0.402  -2.783  -1.503  0.00  0.00    -0.285 N 
ATOM     26  C   UNL     1       0.631  -1.953  -1.744  0.00  0.00    +0.222 C 
ATOM     27  O   UNL     1       1.738  -2.405  -1.950  0.00  0.00    -0.275 OA
ATOM     28  H   UNL     1      -1.418  -2.377  -1.387  0.00  0.00    +0.155 HD
BRANCH  25  33
ATOM     29  C   UNL     1       0.484  -8.371  -1.086  0.00  0.00    +0.044 C 
ATOM     30  C   UNL     1       0.249  -6.886  -1.196  0.00  0.00    -0.050 A 
ATOM     31  C   UNL     1       1.111  -6.105  -1.944  0.00  0.00    +0.005 A 
ATOM     32  C   UNL     1       0.897  -4.744  -2.048  0.00  0.00    +0.024 A 
ATOM     33  C   UNL     1      -0.184  -4.161  -1.400  0.00  0.00    +0.036 A 
ATOM     34  C   UNL     1      -1.044  -4.947  -0.645  0.00  0.00    -0.029 A 
ATOM     35  C   UNL     1      -0.829  -6.309  -0.551  0.00  0.00    +0.008 A 
ATOM     36  C   UNL     1      -2.214  -4.318   0.065  0.00  0.00    +0.045 C 
ENDBRANCH  25  33
ENDBRANCH   1  26
TORSDOF 5
