REMARK  Name = ZINC04219524
REMARK  11 active torsions:
REMARK  status: ('A' for Active; 'I' for Inactive)
REMARK    1  A    between atoms: C_1  and  C_2
REMARK    2  A    between atoms: C_7  and  C_8
REMARK    3  A    between atoms: C_8  and  N_9
REMARK    4  A    between atoms: N_9  and  C_10
REMARK    5  A    between atoms: C_11  and  C_13
REMARK    6  A    between atoms: C_13  and  O_14
REMARK    7  A    between atoms: O_14  and  C_15
REMARK    8  A    between atoms: C_15  and  C_17
REMARK    9  A    between atoms: C_17  and  S_18
REMARK   10  A    between atoms: S_18  and  C_19
REMARK   11  A    between atoms: C_22  and  N_25
REMARK                            x       y       z     vdW  Elec       q    Type
REMARK                         _______ _______ _______ _____ _____    ______ ____
ROOT
ATOM      1  O   UNL     1      -3.931   2.656   2.433  0.00  0.00    -0.455 OA
ENDROOT
BRANCH   1   2
ATOM      2  C   UNL     1      -5.216   2.981   2.644  0.00  0.00    +0.318 C 
ATOM      3  O   UNL     1      -5.938   2.227   3.251  0.00  0.00    -0.250 OA
BRANCH   2   4
ATOM      4  C   UNL     1      -5.757   4.287   2.123  0.00  0.00    +0.194 C 
BRANCH   4   5
ATOM      5  S   UNL     1      -7.510   4.434   2.565  0.00  0.00    -0.114 S 
BRANCH   5   6
ATOM      6  C   UNL     1      -7.990   5.992   1.894  0.00  0.00    +0.009 A 
ATOM      7  C   UNL     1      -7.065   6.769   1.208  0.00  0.00    +0.017 A 
ATOM      8  C   UNL     1      -7.444   7.989   0.684  0.00  0.00    +0.034 A 
ATOM      9  C   UNL     1      -8.743   8.437   0.841  0.00  0.00    +0.126 A 
ATOM     10  C   UNL     1      -9.666   7.666   1.524  0.00  0.00    +0.034 A 
ATOM     11  C   UNL     1      -9.296   6.443   2.046  0.00  0.00    +0.017 A 
BRANCH   9  12
ATOM     12  N   UNL     1      -9.146   9.745   0.278  0.00  0.00    +0.056 N 
ATOM     13  O   UNL     1      -8.340  10.421  -0.319  0.00  0.00    -0.126 OA
ATOM     14  O   UNL     1     -10.281  10.139   0.415  0.00  0.00    -0.126 OA
ENDBRANCH   9  12
ENDBRANCH   5   6
ENDBRANCH   4   5
ENDBRANCH   2   4
ENDBRANCH   1   2
BRANCH   1  15
ATOM     15  C   UNL     1      -3.485   1.402   2.955  0.00  0.00    +0.327 C 
BRANCH  15  18
ATOM     16  N   UNL     1      -1.388   0.091   3.019  0.00  0.00    -0.297 N 
ATOM     17  C   UNL     1      -2.076  -0.883   3.871  0.00  0.00    +0.132 C 
ATOM     18  C   UNL     1      -2.027   1.210   2.624  0.00  0.00    +0.253 C 
ATOM     19  O   UNL     1      -1.429   2.062   2.002  0.00  0.00    -0.272 OA
BRANCH  16  20
ATOM     20  C   UNL     1      -0.007  -0.152   2.596  0.00  0.00    +0.142 C 
BRANCH  20  27
ATOM     21  C   UNL     1       2.489  -1.001   1.415  0.00  0.00    +0.044 C 
ATOM     22  C   UNL     1       1.189  -1.267   0.701  0.00  0.00    -0.046 A 
ATOM     23  C   UNL     1       1.189  -1.923  -0.516  0.00  0.00    +0.003 A 
ATOM     24  C   UNL     1      -0.003  -2.167  -1.170  0.00  0.00    +0.000 A 
ATOM     25  C   UNL     1      -1.197  -1.756  -0.607  0.00  0.00    +0.000 A 
ATOM     26  C   UNL     1      -1.198  -1.101   0.610  0.00  0.00    +0.005 A 
ATOM     27  C   UNL     1      -0.005  -0.861   1.267  0.00  0.00    -0.027 A 
ENDBRANCH  20  27
ENDBRANCH  16  20
ENDBRANCH  15  18
ENDBRANCH   1  15
TORSDOF 9
