REMARK  Name = ZINC66674937
REMARK  8 active torsions:
REMARK  status: ('A' for Active; 'I' for Inactive)
REMARK    1  A    between atoms: C_1  and  C_2
REMARK    2  A    between atoms: C_2  and  N_3
REMARK    3  A    between atoms: N_3  and  C_4
REMARK    4  A    between atoms: C_10  and  C_12
REMARK    5  A    between atoms: C_13  and  C_15
REMARK    6  A    between atoms: C_15  and  C_16
REMARK    7  A    between atoms: C_16  and  C_18
REMARK    8  A    between atoms: C_16  and  N_23
REMARK                            x       y       z     vdW  Elec       q    Type
REMARK                         _______ _______ _______ _____ _____    ______ ____
ROOT
ATOM      1  C   UNL     1      -1.274  -0.497   2.484  0.00  0.00    +0.123 C 
ENDROOT
BRANCH   1   3
ATOM      2  N   UNL     1      -1.372  -0.511   0.012  0.00  0.00    -0.298 N 
ATOM      3  C   UNL     1      -1.993  -0.751   1.184  0.00  0.00    +0.218 C 
ATOM      4  O   UNL     1      -3.131  -1.171   1.193  0.00  0.00    -0.276 OA
BRANCH   2   5
ATOM      5  C   UNL     1      -2.072  -0.758  -1.251  0.00  0.00    +0.079 C 
ATOM      6  C   UNL     1      -3.330   0.110  -1.315  0.00  0.00    +0.023 C 
ATOM      7  C   UNL     1      -4.060  -0.148  -2.635  0.00  0.00    +0.002 C 
ATOM      8  C   UNL     1      -4.454  -1.624  -2.720  0.00  0.00    +0.000 C 
ATOM      9  C   UNL     1      -3.196  -2.492  -2.656  0.00  0.00    +0.005 C 
ATOM     10  C   UNL     1      -2.465  -2.234  -1.336  0.00  0.00    +0.006 C 
ATOM     11  C   UNL     1      -1.207  -3.102  -1.272  0.00  0.00    +0.009 C 
ENDBRANCH   2   5
BRANCH   2  13
ATOM     12  C   UNL     1      -0.019   1.526   0.010  0.00  0.00    +0.024 C 
ATOM     13  C   UNL     1       0.002  -0.004   0.002  0.00  0.00    +0.105 C 
ENDBRANCH   2  13
ENDBRANCH   1   3
BRANCH   1  14
ATOM     14  C   UNL     1      -2.196  -0.847   3.654  0.00  0.00    +0.120 C 
BRANCH  14  15
ATOM     15  N   UNL     1      -3.343   0.064   3.662  0.00  0.00    -0.292 N 
ATOM     16  C   UNL     1      -4.503  -0.318   4.231  0.00  0.00    +0.298 C 
ATOM     17  O   UNL     1      -4.598  -1.419   4.739  0.00  0.00    -0.253 OA
ATOM     18  N   UNL     1      -5.559   0.520   4.238  0.00  0.00    -0.313 N 
ATOM     19  H   UNL     1      -3.268   0.942   3.257  0.00  0.00    +0.151 HD
ATOM     20  H   UNL     1      -5.483   1.398   3.833  0.00  0.00    +0.146 HD
ATOM     21  H   UNL     1      -6.394   0.245   4.648  0.00  0.00    +0.146 HD
ENDBRANCH  14  15
BRANCH  14  22
ATOM     22  C   UNL     1      -1.437  -0.711   4.949  0.00  0.00    +0.010 A 
ATOM     23  C   UNL     1      -0.860  -1.676   5.706  0.00  0.00    +0.013 A 
ATOM     24  C   UNL     1      -0.208  -1.315   6.870  0.00  0.00    +0.008 A 
ATOM     25  C   UNL     1      -0.166  -0.006   7.221  0.00  0.00    +0.045 A 
ATOM     26  S   UNL     1      -1.060   0.764   5.881  0.00  0.00    -0.100 S 
ENDBRANCH  14  22
ENDBRANCH   1  14
TORSDOF 6
