REMARK  Name = ZINC09409010
REMARK  12 active torsions:
REMARK  status: ('A' for Active; 'I' for Inactive)
REMARK    1  A    between atoms: C_1  and  C_2
REMARK    2  A    between atoms: C_2  and  C_3
REMARK    3  A    between atoms: C_3  and  O_4
REMARK    4  A    between atoms: O_4  and  C_5
REMARK    5  A    between atoms: C_8  and  C_14
REMARK    6  A    between atoms: C_10  and  O_11
REMARK    7  A    between atoms: O_11  and  C_12
REMARK    8  A    between atoms: C_12  and  C_13
REMARK    9  A    between atoms: C_17  and  C_31
REMARK   10  A    between atoms: N_24  and  C_25
REMARK   11  A    between atoms: C_25  and  C_26
REMARK   12  A    between atoms: C_36  and  O_37
REMARK                            x       y       z     vdW  Elec       q    Type
REMARK                         _______ _______ _______ _____ _____    ______ ____
ROOT
ATOM      1  C   UNL     1      -6.173  -4.160   0.209  0.00  0.00    +0.142 C 
ATOM      2  C   UNL     1      -6.820  -4.515   1.520  0.00  0.00    +0.035 A 
ATOM      3  C   UNL     1      -6.721  -5.194   2.739  0.00  0.00    +0.102 A 
ATOM      4  N   UNL     1      -7.840  -4.981   3.402  0.00  0.00    -0.173 NA
ATOM      5  N   UNL     1      -8.637  -4.235   2.722  0.00  0.00    -0.272 N 
ATOM      6  H   UNL     1      -9.517  -3.949   3.014  0.00  0.00    +0.189 HD
ATOM      7  C   UNL     1      -8.060  -3.905   1.529  0.00  0.00    +0.126 A 
ATOM      8  C   UNL     1      -8.229  -3.172   0.269  0.00  0.00    +0.266 C 
ATOM      9  O   UNL     1      -9.215  -2.528  -0.033  0.00  0.00    -0.268 OA
ATOM     10  N   UNL     1      -7.137  -3.314  -0.506  0.00  0.00    -0.278 N 
ENDROOT
BRANCH   1  14
ATOM     11  C   UNL     1      -2.543  -2.005   0.894  0.00  0.00    +0.162 A 
ATOM     12  C   UNL     1      -2.502  -3.288   0.373  0.00  0.00    +0.050 A 
ATOM     13  C   UNL     1      -3.678  -3.983   0.153  0.00  0.00    +0.009 A 
ATOM     14  C   UNL     1      -4.895  -3.399   0.452  0.00  0.00    -0.019 A 
ATOM     15  C   UNL     1      -4.942  -2.119   0.972  0.00  0.00    +0.055 A 
ATOM     16  C   UNL     1      -3.768  -1.420   1.200  0.00  0.00    +0.162 A 
BRANCH  11  17
ATOM     17  O   UNL     1      -1.388  -1.321   1.112  0.00  0.00    -0.488 OA
BRANCH  17  18
ATOM     18  C   UNL     1      -0.168  -1.984   0.774  0.00  0.00    +0.229 C 
BRANCH  18  20
ATOM     19  C   UNL     1       2.321  -1.776   0.724  0.00  0.00    +0.007 C 
ATOM     20  C   UNL     1       1.015  -1.066   1.086  0.00  0.00    +0.038 C 
ENDBRANCH  18  20
ENDBRANCH  17  18
ENDBRANCH  11  17
BRANCH  16  21
ATOM     21  O   UNL     1      -3.812  -0.163   1.718  0.00  0.00    -0.489 OA
BRANCH  21  22
ATOM     22  C   UNL     1      -5.105   0.373   2.007  0.00  0.00    +0.226 C 
ATOM     23  C   UNL     1      -4.955   1.785   2.578  0.00  0.00    +0.048 C 
ENDBRANCH  21  22
ENDBRANCH  16  21
ENDBRANCH   1  14
BRANCH   3  24
ATOM     24  C   UNL     1      -5.566  -6.004   3.202  0.00  0.00    +0.044 A 
ATOM     25  C   UNL     1      -4.495  -6.247   2.346  0.00  0.00    +0.014 A 
ATOM     26  C   UNL     1      -3.424  -7.002   2.780  0.00  0.00    +0.001 A 
ATOM     27  C   UNL     1      -3.411  -7.519   4.064  0.00  0.00    +0.004 A 
ATOM     28  C   UNL     1      -4.469  -7.284   4.921  0.00  0.00    +0.046 A 
ATOM     29  C   UNL     1      -5.548  -6.522   4.499  0.00  0.00    +0.126 A 
BRANCH  29  30
ATOM     30  O   UNL     1      -6.586  -6.285   5.343  0.00  0.00    -0.506 OA
ATOM     31  H   UNL     1      -7.287  -6.950   5.300  0.00  0.00    +0.292 HD
ENDBRANCH  29  30
ENDBRANCH   3  24
BRANCH  10  32
ATOM     32  C   UNL     1      -6.943  -2.726  -1.834  0.00  0.00    +0.183 C 
BRANCH  32  33
ATOM     33  C   UNL     1      -7.449  -3.681  -2.885  0.00  0.00    +0.122 A 
ATOM     34  C   UNL     1      -8.699  -3.717  -3.378  0.00  0.00    +0.046 A 
ATOM     35  C   UNL     1      -8.733  -4.758  -4.334  0.00  0.00    +0.041 A 
ATOM     36  C   UNL     1      -7.500  -5.297  -4.367  0.00  0.00    +0.195 A 
ATOM     37  O   UNL     1      -6.725  -4.636  -3.491  0.00  0.00    -0.466 OA
ENDBRANCH  32  33
ENDBRANCH  10  32
TORSDOF 10
