REMARK  Name = ZINC39710354
REMARK  12 active torsions:
REMARK  status: ('A' for Active; 'I' for Inactive)
REMARK    1  A    between atoms: C_1  and  C_2
REMARK    2  A    between atoms: C_9  and  C_14
REMARK    3  A    between atoms: C_14  and  C_16
REMARK    4  A    between atoms: C_14  and  N_25
REMARK    5  A    between atoms: N_20  and  C_21
REMARK    6  A    between atoms: C_21  and  C_22
REMARK    7  A    between atoms: C_22  and  O_23
REMARK    8  A    between atoms: O_23  and  C_24
REMARK    9  A    between atoms: N_25  and  C_26
REMARK   10  A    between atoms: N_25  and  C_33
REMARK   11  A    between atoms: C_26  and  C_27
REMARK   12  A    between atoms: C_33  and  C_34
REMARK                            x       y       z     vdW  Elec       q    Type
REMARK                         _______ _______ _______ _____ _____    ______ ____
ROOT
ATOM      1  C   UNL     1      -1.789  -5.735   2.726  0.00  0.00    +0.019 C 
ENDROOT
BRANCH   1  10
ATOM      2  C   UNL     1      -2.155   0.797  -0.137  0.00  0.00    +0.044 C 
ATOM      3  C   UNL     1      -1.555  -0.578   0.007  0.00  0.00    -0.050 A 
ATOM      4  C   UNL     1      -0.813  -1.113  -1.046  0.00  0.00    +0.005 A 
ATOM      5  C   UNL     1      -0.242  -2.344  -0.989  0.00  0.00    +0.024 A 
ATOM      6  C   UNL     1      -0.382  -3.144   0.160  0.00  0.00    +0.040 A 
ATOM      7  N   UNL     1       0.183  -4.350   0.205  0.00  0.00    -0.285 N 
ATOM      8  C   UNL     1       0.091  -5.152   1.252  0.00  0.00    +0.223 C 
ATOM      9  O   UNL     1       0.628  -6.244   1.235  0.00  0.00    -0.275 OA
ATOM     10  C   UNL     1      -0.685  -4.708   2.472  0.00  0.00    +0.092 C 
ATOM     11  C   UNL     1      -1.329  -3.336   2.426  0.00  0.00    -0.006 C 
ATOM     12  C   UNL     1      -1.161  -2.604   1.288  0.00  0.00    -0.007 A 
ATOM     13  C   UNL     1      -1.744  -1.268   1.161  0.00  0.00    +0.012 A 
ATOM     14  H   UNL     1       0.685  -4.654  -0.568  0.00  0.00    +0.155 HD
ENDBRANCH   1  10
BRANCH   1  15
ATOM     15  C   UNL     1      -2.677  -5.252   3.844  0.00  0.00    +0.139 A 
ATOM     16  N   UNL     1      -2.357  -5.154   5.111  0.00  0.00    -0.115 NA
ATOM     17  N   UNL     1      -3.382  -4.703   5.747  0.00  0.00    -0.023 NA
ATOM     18  N   UNL     1      -4.348  -4.510   4.918  0.00  0.00    -0.044 NA
ATOM     19  N   UNL     1      -3.951  -4.832   3.734  0.00  0.00    -0.229 N 
BRANCH  19  20
ATOM     20  C   UNL     1      -4.739  -4.758   2.502  0.00  0.00    +0.175 C 
BRANCH  20  21
ATOM     21  C   UNL     1      -5.478  -6.081   2.288  0.00  0.00    +0.183 C 
BRANCH  21  22
ATOM     22  O   UNL     1      -6.247  -6.009   1.086  0.00  0.00    -0.381 OA
ATOM     23  C   UNL     1      -6.979  -7.200   0.792  0.00  0.00    +0.194 C 
ENDBRANCH  21  22
ENDBRANCH  20  21
ENDBRANCH  19  20
ENDBRANCH   1  15
BRANCH   1  24
ATOM     24  N   UNL     1      -1.185  -7.021   3.101  0.00  0.00    +0.392 N 
ATOM     25  H   UNL     1      -1.744  -7.459   3.818  0.00  0.00    -0.080 HD
BRANCH  24  26
ATOM     26  C   UNL     1       0.174  -6.793   3.611  0.00  0.00    -0.042 C 
BRANCH  26  27
ATOM     27  C   UNL     1       0.102  -6.321   5.040  0.00  0.00    -0.064 A 
ATOM     28  C   UNL     1       0.442  -5.019   5.356  0.00  0.00    +0.002 A 
ATOM     29  C   UNL     1       0.376  -4.586   6.667  0.00  0.00    +0.000 A 
ATOM     30  C   UNL     1      -0.031  -5.455   7.662  0.00  0.00    +0.000 A 
ATOM     31  C   UNL     1      -0.373  -6.756   7.346  0.00  0.00    +0.000 A 
ATOM     32  C   UNL     1      -0.311  -7.188   6.035  0.00  0.00    +0.002 A 
ENDBRANCH  26  27
ENDBRANCH  24  26
BRANCH  24  33
ATOM     33  C   UNL     1      -1.126  -7.896   1.923  0.00  0.00    -0.042 C 
BRANCH  33  34
ATOM     34  C   UNL     1      -0.906  -9.320   2.366  0.00  0.00    -0.064 A 
ATOM     35  C   UNL     1       0.380  -9.807   2.513  0.00  0.00    +0.004 A 
ATOM     36  C   UNL     1       0.583 -11.112   2.919  0.00  0.00    +0.038 A 
ATOM     37  C   UNL     1      -0.502 -11.932   3.180  0.00  0.00    +0.123 A 
ATOM     38  C   UNL     1      -1.789 -11.443   3.033  0.00  0.00    +0.038 A 
ATOM     39  C   UNL     1      -1.990 -10.136   2.631  0.00  0.00    +0.004 A 
ATOM     40  F   UNL     1      -0.305 -13.208   3.577  0.00  0.00    -0.205 F 
ENDBRANCH  33  34
ENDBRANCH  24  33
ENDBRANCH   1  24
TORSDOF 10
