REMARK  Name = ZINC58413769
REMARK  4 active torsions:
REMARK  status: ('A' for Active; 'I' for Inactive)
REMARK    1  A    between atoms: C_1  and  C_2
REMARK    2  A    between atoms: C_12  and  C_16
REMARK    3  A    between atoms: N_18  and  O_19
REMARK    4  A    between atoms: O_19  and  C_20
REMARK                            x       y       z     vdW  Elec       q    Type
REMARK                         _______ _______ _______ _____ _____    ______ ____
ROOT
ATOM      1  C   UNL     1      -0.019   1.526   0.010  0.00  0.00    +0.008 C 
ATOM      2  C   UNL     1       0.002  -0.004   0.002  0.00  0.00    -0.009 C 
ATOM      3  C   UNL     1       0.720  -0.498  -1.257  0.00  0.00    +0.009 C 
ATOM      4  C   UNL     1       0.525  -2.013  -1.393  0.00  0.00    +0.054 C 
ATOM      5  C   UNL     1       0.882  -2.665  -0.079  0.00  0.00    +0.020 A 
ATOM      6  C   UNL     1       0.979  -1.994   1.089  0.00  0.00    -0.019 A 
ATOM      7  C   UNL     1       1.339  -2.962   2.106  0.00  0.00    +0.004 A 
ATOM      8  C   UNL     1       1.574  -2.851   3.479  0.00  0.00    +0.010 A 
ATOM      9  C   UNL     1       1.906  -4.012   4.158  0.00  0.00    +0.001 A 
ATOM     10  C   UNL     1       2.004  -5.233   3.522  0.00  0.00    +0.015 A 
ATOM     11  C   UNL     1       1.775  -5.376   2.149  0.00  0.00    +0.063 A 
ATOM     12  C   UNL     1       1.436  -4.209   1.438  0.00  0.00    +0.059 A 
ATOM     13  N   UNL     1       1.154  -3.993   0.127  0.00  0.00    -0.357 N 
ATOM     14  H   UNL     1       1.145  -4.676  -0.562  0.00  0.00    +0.166 HD
ATOM     15  C   UNL     1       0.745  -0.513   1.243  0.00  0.00    +0.040 C 
ENDROOT
BRANCH  11  16
ATOM     16  C   UNL     1       1.883  -6.685   1.479  0.00  0.00    +0.269 C 
ATOM     17  O   UNL     1       1.678  -6.775   0.284  0.00  0.00    -0.268 OA
ATOM     18  N   UNL     1       2.210  -7.782   2.191  0.00  0.00    -0.188 N 
ATOM     19  H   UNL     1       2.374  -7.710   3.144  0.00  0.00    +0.183 HD
BRANCH  18  20
ATOM     20  O   UNL     1       2.314  -9.039   1.547  0.00  0.00    -0.248 OA
BRANCH  20  21
ATOM     21  C   UNL     1       2.667 -10.112   2.422  0.00  0.00    +0.276 C 
ATOM     22  C   UNL     1       3.455 -11.168   1.643  0.00  0.00    +0.063 C 
ATOM     23  C   UNL     1       3.778 -12.342   2.572  0.00  0.00    +0.007 C 
ATOM     24  C   UNL     1       2.471 -12.898   3.146  0.00  0.00    +0.028 C 
ATOM     25  C   UNL     1       1.721 -11.775   3.868  0.00  0.00    +0.163 C 
ATOM     26  O   UNL     1       1.480 -10.702   2.955  0.00  0.00    -0.349 OA
ENDBRANCH  20  21
ENDBRANCH  18  20
ENDBRANCH  11  16
TORSDOF 3
