REMARK  Name = ZINC39701674
REMARK  8 active torsions:
REMARK  status: ('A' for Active; 'I' for Inactive)
REMARK    1  A    between atoms: C_1  and  C_2
REMARK    2  A    between atoms: C_5  and  C_35
REMARK    3  A    between atoms: C_6  and  N_8
REMARK    4  A    between atoms: C_9  and  S_23
REMARK    5  A    between atoms: S_23  and  C_24
REMARK    6  A    between atoms: C_24  and  C_25
REMARK    7  A    between atoms: N_27  and  C_28
REMARK    8  A    between atoms: C_28  and  C_29
REMARK                            x       y       z     vdW  Elec       q    Type
REMARK                         _______ _______ _______ _____ _____    ______ ____
ROOT
ATOM      1  N   UNL     1       0.052  -2.797   2.391  0.00  0.00    -0.234 N 
ATOM      2  C   UNL     1       1.327  -3.147   3.022  0.00  0.00    +0.259 C 
ATOM      3  N   UNL     1       1.347  -3.888   4.285  0.00  0.00    -0.248 NA
ATOM      4  C   UNL     1       0.246  -4.242   4.857  0.00  0.00    +0.101 C 
ATOM      5  C   UNL     1      -0.098  -4.976   6.097  0.00  0.00    +0.028 A 
ATOM      6  C   UNL     1       0.639  -5.559   7.110  0.00  0.00    +0.012 A 
ATOM      7  C   UNL     1      -0.010  -6.188   8.162  0.00  0.00    +0.001 A 
ATOM      8  C   UNL     1      -1.392  -6.234   8.199  0.00  0.00    +0.002 A 
ATOM      9  C   UNL     1      -2.144  -5.656   7.195  0.00  0.00    +0.028 A 
ATOM     10  C   UNL     1      -1.510  -5.016   6.124  0.00  0.00    +0.074 A 
ATOM     11  N   UNL     1      -2.002  -4.382   5.031  0.00  0.00    -0.240 NA
ATOM     12  C   UNL     1      -1.071  -3.908   4.251  0.00  0.00    +0.152 C 
ATOM     13  C   UNL     1      -1.109  -3.156   2.980  0.00  0.00    +0.274 C 
ATOM     14  O   UNL     1      -2.173  -2.866   2.468  0.00  0.00    -0.268 OA
ENDROOT
BRANCH   1  20
ATOM     15  C   UNL     1      -0.018   1.503   0.010  0.00  0.00    +0.044 C 
ATOM     16  C   UNL     1       0.002  -0.004   0.002  0.00  0.00    -0.049 A 
ATOM     17  C   UNL     1       0.006  -0.688  -1.200  0.00  0.00    +0.004 A 
ATOM     18  C   UNL     1       0.025  -2.071  -1.212  0.00  0.00    +0.005 A 
ATOM     19  C   UNL     1       0.040  -2.773  -0.023  0.00  0.00    -0.029 A 
ATOM     20  C   UNL     1       0.036  -2.089   1.186  0.00  0.00    +0.043 A 
ATOM     21  C   UNL     1       0.023  -0.700   1.194  0.00  0.00    +0.027 A 
ATOM     22  C   UNL     1       0.060  -4.280  -0.037  0.00  0.00    +0.045 C 
ENDBRANCH   1  20
BRANCH   2  23
ATOM     23  S   UNL     1       2.236  -1.600   3.292  0.00  0.00    -0.106 S 
BRANCH  23  24
ATOM     24  C   UNL     1       1.147  -0.636   4.378  0.00  0.00    +0.168 C 
BRANCH  24  25
ATOM     25  C   UNL     1       1.792   0.691   4.685  0.00  0.00    +0.223 C 
ATOM     26  O   UNL     1       2.878   0.960   4.217  0.00  0.00    -0.275 OA
ATOM     27  N   UNL     1       1.161   1.579   5.479  0.00  0.00    -0.312 N 
ATOM     28  H   UNL     1       0.292   1.364   5.852  0.00  0.00    +0.149 HD
BRANCH  27  29
ATOM     29  C   UNL     1       1.788   2.869   5.777  0.00  0.00    +0.135 C 
BRANCH  29  30
ATOM     30  C   UNL     1       0.870   3.682   6.692  0.00  0.00    +0.135 C 
ATOM     31  C   UNL     1       1.465   5.089   6.915  0.00  0.00    +0.035 C 
ATOM     32  C   UNL     1       1.155   5.345   8.415  0.00  0.00    +0.031 C 
ATOM     33  C   UNL     1       1.294   3.913   8.992  0.00  0.00    +0.160 C 
ATOM     34  O   UNL     1       0.771   3.045   7.971  0.00  0.00    -0.375 OA
ENDBRANCH  29  30
ENDBRANCH  27  29
ENDBRANCH  24  25
ENDBRANCH  23  24
ENDBRANCH   2  23
TORSDOF 6
