REMARK  Name = ZINC67483689
REMARK  8 active torsions:
REMARK  status: ('A' for Active; 'I' for Inactive)
REMARK    1  A    between atoms: C_1  and  C_2
REMARK    2  A    between atoms: C_2  and  C_3
REMARK    3  A    between atoms: C_4  and  C_15
REMARK    4  A    between atoms: N_7  and  C_8
REMARK    5  A    between atoms: N_17  and  N_18
REMARK    6  A    between atoms: N_18  and  C_19
REMARK    7  A    between atoms: C_19  and  N_21
REMARK    8  A    between atoms: N_21  and  C_22
REMARK                            x       y       z     vdW  Elec       q    Type
REMARK                         _______ _______ _______ _____ _____    ______ ____
ROOT
ATOM      1  C   UNL     1      -1.891  -0.928   2.356  0.00  0.00    +0.282 C 
ATOM      2  O   UNL     1      -0.734  -0.801   2.706  0.00  0.00    -0.267 OA
ATOM      3  N   UNL     1      -2.862  -1.075   3.279  0.00  0.00    -0.230 N 
ATOM      4  H   UNL     1      -3.786  -1.176   3.000  0.00  0.00    +0.173 HD
ENDROOT
BRANCH   1   6
ATOM      5  C   UNL     1      -1.347  -0.779  -0.110  0.00  0.00    +0.077 A 
ATOM      6  C   UNL     1      -2.233  -0.920   0.921  0.00  0.00    +0.172 A 
ATOM      7  N   UNL     1      -3.468  -1.051   0.407  0.00  0.00    -0.124 NA
ATOM      8  N   UNL     1      -3.408  -1.000  -0.878  0.00  0.00    -0.060 NA
ATOM      9  N   UNL     1      -2.068  -0.821  -1.252  0.00  0.00    -0.216 N 
BRANCH   9  10
ATOM     10  C   UNL     1      -1.571  -0.709  -2.558  0.00  0.00    +0.069 A 
ATOM     11  C   UNL     1      -0.619   0.255  -2.861  0.00  0.00    +0.028 A 
ATOM     12  C   UNL     1      -0.131   0.363  -4.148  0.00  0.00    +0.003 A 
ATOM     13  C   UNL     1      -0.590  -0.488  -5.137  0.00  0.00    +0.020 A 
ATOM     14  C   UNL     1      -1.539  -1.451  -4.839  0.00  0.00    +0.043 A 
ATOM     15  C   UNL     1      -2.027  -1.567  -3.550  0.00  0.00    +0.047 A 
ATOM     16 CL   UNL     1      -2.113  -2.517  -6.083  0.00  0.00    -0.083 Cl
ENDBRANCH   9  10
BRANCH   5  18
ATOM     17  C   UNL     1       0.827  -1.970  -0.079  0.00  0.00    +0.010 C 
ATOM     18  C   UNL     1       0.145  -0.604   0.005  0.00  0.00    +0.054 C 
ENDBRANCH   5  18
ENDBRANCH   1   6
BRANCH   3  19
ATOM     19  N   UNL     1      -2.538  -1.083   4.642  0.00  0.00    -0.246 N 
ATOM     20  H   UNL     1      -1.614  -0.982   4.921  0.00  0.00    +0.172 HD
BRANCH  19  21
ATOM     21  C   UNL     1      -3.509  -1.230   5.565  0.00  0.00    +0.147 C 
ATOM     22  S   UNL     1      -3.112  -1.239   7.231  0.00  0.00    -0.017 S 
BRANCH  21  23
ATOM     23  N   UNL     1      -4.792  -1.371   5.177  0.00  0.00    -0.323 N 
ATOM     24  H   UNL     1      -5.016  -1.366   4.233  0.00  0.00    +0.148 HD
BRANCH  23  25
ATOM     25  C   UNL     1      -5.847  -1.531   6.180  0.00  0.00    +0.072 C 
ATOM     26  C   UNL     1      -6.018  -3.023   6.533  0.00  0.00    +0.022 C 
ATOM     27  C   UNL     1      -7.545  -3.193   6.733  0.00  0.00    +0.002 C 
ATOM     28  C   UNL     1      -8.138  -2.278   5.633  0.00  0.00    +0.002 C 
ATOM     29  C   UNL     1      -7.195  -1.057   5.608  0.00  0.00    +0.022 C 
ENDBRANCH  23  25
ENDBRANCH  21  23
ENDBRANCH  19  21
ENDBRANCH   3  19
TORSDOF 7
