REMARK  Name = ZINC12186445
REMARK  6 active torsions:
REMARK  status: ('A' for Active; 'I' for Inactive)
REMARK    1  A    between atoms: C_1  and  C_2
REMARK    2  A    between atoms: C_5  and  C_19
REMARK    3  A    between atoms: N_11  and  C_13
REMARK    4  A    between atoms: C_19  and  N_51
REMARK    5  A    between atoms: C_20  and  C_21
REMARK    6  A    between atoms: C_20  and  N_51
REMARK                            x       y       z     vdW  Elec       q    Type
REMARK                         _______ _______ _______ _____ _____    ______ ____
ROOT
ATOM      1  C   UNL     1       1.831   4.598   0.010  0.00  0.00    +0.068 C 
ATOM      2  C   UNL     1       0.852   3.453   0.013  0.00  0.00    +0.070 A 
ATOM      3  C   UNL     1       1.184   2.077   0.002  0.00  0.00    +0.040 A 
ATOM      4  C   UNL     1       2.412   1.376  -0.013  0.00  0.00    +0.020 A 
ATOM      5  C   UNL     1       2.396   0.017  -0.020  0.00  0.00    +0.001 A 
ATOM      6  C   UNL     1       1.170  -0.673  -0.012  0.00  0.00    +0.252 A 
ATOM      7  O   UNL     1       1.165  -1.893  -0.018  0.00  0.00    -0.268 OA
ATOM      8  N   UNL     1       0.002  -0.004   0.002  0.00  0.00    -0.307 N 
ATOM      9  H   UNL     1      -0.834  -0.496   0.007  0.00  0.00    +0.170 HD
ATOM     10  C   UNL     1      -0.017   1.364   0.009  0.00  0.00    +0.145 A 
ATOM     11  N   UNL     1      -1.019   2.281   0.019  0.00  0.00    -0.216 N 
ATOM     12  N   UNL     1      -0.447   3.559   0.025  0.00  0.00    -0.169 NA
ENDROOT
BRANCH  11  13
ATOM     13  C   UNL     1      -2.391   1.996   0.023  0.00  0.00    +0.068 A 
ATOM     14  C   UNL     1      -2.876   0.898  -0.675  0.00  0.00    +0.028 A 
ATOM     15  C   UNL     1      -4.228   0.617  -0.665  0.00  0.00    +0.002 A 
ATOM     16  C   UNL     1      -5.101   1.435   0.030  0.00  0.00    +0.000 A 
ATOM     17  C   UNL     1      -4.622   2.532   0.722  0.00  0.00    +0.002 A 
ATOM     18  C   UNL     1      -3.270   2.815   0.720  0.00  0.00    +0.028 A 
ENDBRANCH  11  13
BRANCH   5  19
ATOM     19  C   UNL     1       3.693  -0.751  -0.035  0.00  0.00    -0.041 C 
BRANCH  19  20
ATOM     20  N   UNL     1       4.059  -1.109   1.349  0.00  0.00    +0.384 N 
ATOM     21  H   UNL     1       3.316  -1.687   1.757  0.00  0.00    -0.085 HD
ATOM     22  H   UNL     1       4.168  -0.251   1.902  0.00  0.00    -0.085 HD
BRANCH  20  23
ATOM     23  C   UNL     1       5.327  -1.863   1.364  0.00  0.00    -0.034 C 
BRANCH  23  24
ATOM     24  C   UNL     1       5.680  -2.219   2.810  0.00  0.00    +0.194 C 
ATOM     25  C   UNL     1       7.013  -2.978   2.844  0.00  0.00    +0.271 C 
ATOM     26  O   UNL     1       7.320  -3.283   4.209  0.00  0.00    -0.485 OA
ATOM     27  C   UNL     1       7.173  -2.273   5.109  0.00  0.00    +0.162 A 
ATOM     28  C   UNL     1       7.778  -2.377   6.353  0.00  0.00    +0.049 A 
ATOM     29  C   UNL     1       7.636  -1.361   7.279  0.00  0.00    +0.004 A 
ATOM     30  C   UNL     1       6.889  -0.239   6.969  0.00  0.00    +0.004 A 
ATOM     31  C   UNL     1       6.284  -0.130   5.731  0.00  0.00    +0.049 A 
ATOM     32  C   UNL     1       6.425  -1.145   4.796  0.00  0.00    +0.162 A 
ATOM     33  O   UNL     1       5.826  -1.021   3.580  0.00  0.00    -0.484 OA
ENDBRANCH  23  24
ENDBRANCH  20  23
ENDBRANCH  19  20
ENDBRANCH   5  19
TORSDOF 5
