REMARK  Name = ZINC08636068
REMARK  11 active torsions:
REMARK  status: ('A' for Active; 'I' for Inactive)
REMARK    1  A    between atoms: C_1  and  C_2
REMARK    2  A    between atoms: C_3  and  C_17
REMARK    3  A    between atoms: C_4  and  C_16
REMARK    4  A    between atoms: N_5  and  C_7
REMARK    5  A    between atoms: C_10  and  C_13
REMARK    6  A    between atoms: C_13  and  C_14
REMARK    7  A    between atoms: C_13  and  C_15
REMARK    8  A    between atoms: C_20  and  N_60
REMARK    9  A    between atoms: C_24  and  C_25
REMARK   10  A    between atoms: C_24  and  N_60
REMARK   11  A    between atoms: C_29  and  C_31
REMARK                            x       y       z     vdW  Elec       q    Type
REMARK                         _______ _______ _______ _____ _____    ______ ____
ROOT
ATOM      1  C   UNL     1      -3.072   1.886   0.213  0.00  0.00    +0.044 C 
ATOM      2  C   UNL     1      -2.516   2.619  -1.030  0.00  0.00    +0.000 C 
ATOM      3  C   UNL     1      -3.073   1.743  -2.176  0.00  0.00    -0.047 C 
ATOM      4  C   UNL     1      -3.294   0.386  -1.549  0.00  0.00    -0.046 C 
ATOM      5  C   UNL     1      -3.293   0.464  -0.246  0.00  0.00    -0.025 C 
ENDROOT
BRANCH   1   8
ATOM      6  C   UNL     1      -0.162   0.633   0.157  0.00  0.00    +0.068 C 
ATOM      7  C   UNL     1      -0.784   1.372   1.313  0.00  0.00    +0.064 A 
ATOM      8  C   UNL     1      -2.069   1.925   1.338  0.00  0.00    +0.003 A 
ATOM      9  C   UNL     1      -2.254   2.497   2.550  0.00  0.00    +0.046 A 
ATOM     10  N   UNL     1      -1.119   2.321   3.265  0.00  0.00    -0.236 N 
ATOM     11  N   UNL     1      -0.213   1.612   2.466  0.00  0.00    -0.171 NA
ATOM     12  C   UNL     1      -3.497   3.209   3.017  0.00  0.00    +0.066 C 
BRANCH  10  13
ATOM     13  C   UNL     1      -0.892   2.768   4.574  0.00  0.00    +0.066 A 
ATOM     14  C   UNL     1      -1.431   3.974   5.001  0.00  0.00    +0.028 A 
ATOM     15  C   UNL     1      -1.208   4.410   6.292  0.00  0.00    +0.006 A 
ATOM     16  C   UNL     1      -0.441   3.651   7.157  0.00  0.00    -0.045 A 
ATOM     17  C   UNL     1       0.102   2.452   6.733  0.00  0.00    +0.006 A 
ATOM     18  C   UNL     1      -0.121   2.009   5.444  0.00  0.00    +0.028 A 
BRANCH  16  19
ATOM     19  C   UNL     1      -0.195   4.133   8.563  0.00  0.00    +0.013 C 
ATOM     20  C   UNL     1       0.520   5.485   8.522  0.00  0.00    +0.012 C 
ATOM     21  C   UNL     1      -1.531   4.285   9.292  0.00  0.00    +0.012 C 
ENDBRANCH  16  19
ENDBRANCH  10  13
ENDBRANCH   1   8
BRANCH   3  22
ATOM     22  N   UNL     1      -4.350   2.299  -2.663  0.00  0.00    +0.386 N 
ATOM     23  H   UNL     1      -4.294   3.324  -2.665  0.00  0.00    -0.085 HD
ATOM     24  H   UNL     1      -5.109   1.998  -2.041  0.00  0.00    -0.085 HD
BRANCH  22  25
ATOM     25  C   UNL     1      -4.625   1.824  -4.032  0.00  0.00    -0.046 C 
BRANCH  25  26
ATOM     26  C   UNL     1      -5.933   2.406  -4.503  0.00  0.00    -0.063 A 
ATOM     27  C   UNL     1      -7.115   1.722  -4.277  0.00  0.00    +0.002 A 
ATOM     28  C   UNL     1      -8.320   2.252  -4.701  0.00  0.00    +0.001 A 
ATOM     29  C   UNL     1      -8.351   3.463  -5.362  0.00  0.00    +0.019 A 
ATOM     30  C   UNL     1      -7.162   4.156  -5.598  0.00  0.00    +0.052 A 
ATOM     31  C   UNL     1      -5.949   3.618  -5.162  0.00  0.00    +0.020 A 
BRANCH  30  32
ATOM     32  C   UNL     1      -7.186   5.413  -6.283  0.00  0.00    +0.099 C 
ATOM     33  N   UNL     1      -7.205   6.410  -6.827  0.00  0.00    -0.191 NA
ENDBRANCH  30  32
ENDBRANCH  25  26
ENDBRANCH  22  25
ENDBRANCH   3  22
TORSDOF 7
