REMARK  Name = ZINC33286668
REMARK  8 active torsions:
REMARK  status: ('A' for Active; 'I' for Inactive)
REMARK    1  A    between atoms: C_6  and  C_7
REMARK    2  A    between atoms: C_8  and  C_27
REMARK    3  A    between atoms: C_9  and  N_26
REMARK    4  A    between atoms: C_11  and  S_15
REMARK    5  A    between atoms: C_12  and  C_13
REMARK    6  A    between atoms: S_15  and  C_16
REMARK    7  A    between atoms: C_16  and  C_17
REMARK    8  A    between atoms: C_17  and  C_19
REMARK                            x       y       z     vdW  Elec       q    Type
REMARK                         _______ _______ _______ _____ _____    ______ ____
ROOT
ATOM      1  C   UNL     1       2.428   0.012  -0.021  0.00  0.00    +0.023 A 
ATOM      2  C   UNL     1       1.219  -0.711  -0.014  0.00  0.00    +0.100 A 
ATOM      3  C   UNL     1       0.002  -0.004   0.002  0.00  0.00    +0.136 A 
ATOM      4  N   UNL     1      -0.016   1.319   0.009  0.00  0.00    -0.224 NA
ATOM      5  C   UNL     1       1.096   2.039   0.003  0.00  0.00    +0.117 A 
ATOM      6  C   UNL     1       2.360   1.419  -0.013  0.00  0.00    +0.093 A 
ENDROOT
BRANCH   1  12
ATOM      7  C   UNL     1       4.604  -0.569   1.045  0.00  0.00    +0.010 A 
ATOM      8  C   UNL     1       5.817  -1.226   1.025  0.00  0.00    +0.020 A 
ATOM      9  C   UNL     1       6.174  -1.992  -0.071  0.00  0.00    +0.041 A 
ATOM     10  C   UNL     1       5.316  -2.108  -1.152  0.00  0.00    +0.020 A 
ATOM     11  C   UNL     1       4.098  -1.460  -1.141  0.00  0.00    +0.010 A 
ATOM     12  C   UNL     1       3.732  -0.686  -0.039  0.00  0.00    -0.015 A 
ATOM     13 CL   UNL     1       7.705  -2.812  -0.091  0.00  0.00    -0.084 Cl
ENDBRANCH   1  12
BRANCH   3  14
ATOM     14  N   UNL     1      -1.190  -0.701   0.010  0.00  0.00    -0.342 N 
ATOM     15  H   UNL     1      -2.145  -0.156   0.022  0.00  0.00    +0.144 HD
ATOM     16  H   UNL     1      -1.184  -1.801   0.003  0.00  0.00    +0.144 HD
ENDBRANCH   3  14
BRANCH   6  17
ATOM     17  C   UNL     1       3.556   2.206  -0.019  0.00  0.00    +0.102 C 
ATOM     18  N   UNL     1       4.505   2.830  -0.025  0.00  0.00    -0.191 NA
ENDBRANCH   6  17
BRANCH   2  19
ATOM     19  C   UNL     1       1.227  -2.143  -0.022  0.00  0.00    +0.103 C 
ATOM     20  N   UNL     1       1.234  -3.279  -0.028  0.00  0.00    -0.191 NA
ENDBRANCH   2  19
BRANCH   5  21
ATOM     21  S   UNL     1       0.991   3.798   0.013  0.00  0.00    -0.097 S 
BRANCH  21  22
ATOM     22  C   UNL     1      -0.807   4.006   0.031  0.00  0.00    +0.155 C 
BRANCH  22  23
ATOM     23  C   UNL     1      -1.142   5.476   0.042  0.00  0.00    +0.173 C 
ATOM     24  O   UNL     1      -0.253   6.301   0.038  0.00  0.00    -0.291 OA
BRANCH  23  25
ATOM     25  C   UNL     1      -2.548   5.909   0.058  0.00  0.00    +0.018 A 
ATOM     26  C   UNL     1      -3.576   4.960   0.057  0.00  0.00    +0.013 A 
ATOM     27  C   UNL     1      -4.890   5.373   0.078  0.00  0.00    +0.020 A 
ATOM     28  C   UNL     1      -5.195   6.725   0.087  0.00  0.00    +0.041 A 
ATOM     29  C   UNL     1      -4.182   7.670   0.083  0.00  0.00    +0.020 A 
ATOM     30  C   UNL     1      -2.863   7.272   0.068  0.00  0.00    +0.013 A 
ATOM     31 CL   UNL     1      -6.854   7.236   0.106  0.00  0.00    -0.084 Cl
ENDBRANCH  23  25
ENDBRANCH  22  23
ENDBRANCH  21  22
ENDBRANCH   5  21
TORSDOF 8
