REMARK  Name = ZINC46032487
REMARK  14 active torsions:
REMARK  status: ('A' for Active; 'I' for Inactive)
REMARK    1  A    between atoms: C_1  and  C_2
REMARK    2  A    between atoms: C_2  and  C_3
REMARK    3  A    between atoms: C_3  and  C_4
REMARK    4  A    between atoms: C_10  and  C_14
REMARK    5  A    between atoms: C_14  and  N_15
REMARK    6  A    between atoms: N_15  and  C_16
REMARK    7  A    between atoms: N_15  and  C_26
REMARK    8  A    between atoms: C_16  and  C_17
REMARK    9  A    between atoms: C_20  and  O_23
REMARK   10  A    between atoms: O_23  and  C_24
REMARK   11  A    between atoms: C_24  and  C_25
REMARK   12  A    between atoms: C_26  and  C_27
REMARK   13  A    between atoms: C_27  and  C_28
REMARK   14  A    between atoms: C_27  and  C_29
REMARK                            x       y       z     vdW  Elec       q    Type
REMARK                         _______ _______ _______ _____ _____    ______ ____
ROOT
ATOM      1  N   UNL     1       0.209  -8.674  -2.963  0.00  0.00    +0.386 N 
ATOM      2  H   UNL     1      -0.758  -8.599  -2.685  0.00  0.00    -0.081 HD
ENDROOT
BRANCH   1   3
ATOM      3  C   UNL     1       1.073  -8.276  -1.844  0.00  0.00    -0.022 C 
BRANCH   3  10
ATOM      4  C   UNL     1      -0.096  -2.098  -1.183  0.00  0.00    +0.102 A 
ATOM      5  N   UNL     1      -0.307  -3.022  -0.295  0.00  0.00    -0.159 NA
ATOM      6  N   UNL     1      -0.011  -4.358  -0.547  0.00  0.00    -0.171 N 
ATOM      7  C   UNL     1      -0.186  -5.417   0.297  0.00  0.00    +0.275 A 
ATOM      8  O   UNL     1      -0.649  -5.239   1.413  0.00  0.00    -0.266 OA
ATOM      9  C   UNL     1       0.165  -6.702  -0.116  0.00  0.00    +0.093 A 
ATOM     10  C   UNL     1       0.687  -6.896  -1.378  0.00  0.00    +0.033 A 
ATOM     11  N   UNL     1       0.844  -5.843  -2.176  0.00  0.00    -0.228 NA
ATOM     12  C   UNL     1       0.512  -4.640  -1.780  0.00  0.00    +0.199 A 
ATOM     13  S   UNL     1       0.569  -3.037  -2.549  0.00  0.00    -0.033 S 
BRANCH   4  14
ATOM     14  C   UNL     1      -0.353  -0.617  -1.087  0.00  0.00    +0.064 C 
BRANCH  14  16
ATOM     15  C   UNL     1      -1.192   1.217   0.387  0.00  0.00    +0.004 C 
ATOM     16  C   UNL     1      -0.932  -0.287   0.290  0.00  0.00    +0.003 C 
ENDBRANCH  14  16
ENDBRANCH   4  14
ENDBRANCH   3  10
ENDBRANCH   1   3
BRANCH   1  17
ATOM     17  C   UNL     1       0.504 -10.063  -3.340  0.00  0.00    -0.042 C 
BRANCH  17  18
ATOM     18  C   UNL     1       0.139 -10.981  -2.202  0.00  0.00    -0.064 A 
ATOM     19  C   UNL     1       1.106 -11.380  -1.299  0.00  0.00    +0.005 A 
ATOM     20  C   UNL     1       0.774 -12.222  -0.255  0.00  0.00    +0.046 A 
ATOM     21  C   UNL     1      -0.533 -12.665  -0.113  0.00  0.00    +0.121 A 
ATOM     22  C   UNL     1      -1.503 -12.262  -1.020  0.00  0.00    +0.046 A 
ATOM     23  C   UNL     1      -1.166 -11.417  -2.059  0.00  0.00    +0.005 A 
BRANCH  21  24
ATOM     24  O   UNL     1      -0.863 -13.493   0.913  0.00  0.00    -0.492 OA
BRANCH  24  25
ATOM     25  C   UNL     1      -2.227 -13.910   0.998  0.00  0.00    +0.225 C 
ATOM     26  C   UNL     1      -2.405 -14.831   2.206  0.00  0.00    +0.048 C 
ENDBRANCH  24  25
ENDBRANCH  21  24
ENDBRANCH  17  18
ENDBRANCH   1  17
BRANCH   1  27
ATOM     27  C   UNL     1       0.458  -7.792  -4.112  0.00  0.00    -0.075 C 
BRANCH  27  28
ATOM     28  C   UNL     1      -0.515  -8.139  -5.241  0.00  0.00    -0.034 C 
ATOM     29  C   UNL     1      -1.944  -7.813  -4.801  0.00  0.00    +0.005 C 
ATOM     30  C   UNL     1      -0.165  -7.320  -6.485  0.00  0.00    +0.005 C 
ENDBRANCH  27  28
ENDBRANCH   1  27
TORSDOF 10
