REMARK  Name = ZINC39693181
REMARK  9 active torsions:
REMARK  status: ('A' for Active; 'I' for Inactive)
REMARK    1  A    between atoms: C_1  and  C_2
REMARK    2  A    between atoms: C_3  and  C_36
REMARK    3  A    between atoms: C_9  and  C_13
REMARK    4  A    between atoms: C_13  and  S_14
REMARK    5  A    between atoms: S_14  and  C_15
REMARK    6  A    between atoms: N_19  and  C_20
REMARK    7  A    between atoms: C_22  and  C_35
REMARK    8  A    between atoms: N_24  and  C_34
REMARK    9  A    between atoms: N_25  and  C_28
REMARK                            x       y       z     vdW  Elec       q    Type
REMARK                         _______ _______ _______ _____ _____    ______ ____
ROOT
ATOM      1  C   UNL     1       4.525  -6.214  -0.379  0.00  0.00    +0.210 A 
ATOM      2  N   UNL     1       3.834  -7.270  -0.009  0.00  0.00    -0.101 NA
ATOM      3  N   UNL     1       4.585  -8.101   0.618  0.00  0.00    -0.022 NA
ATOM      4  N   UNL     1       5.789  -7.648   0.696  0.00  0.00    -0.042 NA
ATOM      5  N   UNL     1       5.798  -6.403   0.043  0.00  0.00    -0.206 N 
ENDROOT
BRANCH   5   6
ATOM      6  C   UNL     1       6.938  -5.502  -0.139  0.00  0.00    +0.217 C 
ATOM      7  C   UNL     1       7.884  -6.026  -1.247  0.00  0.00    +0.107 C 
ATOM      8  N   UNL     1       8.880  -6.791  -0.461  0.00  0.00    -0.217 NA
ATOM      9  N   UNL     1       8.922  -6.257   0.793  0.00  0.00    -0.200 N 
ATOM     10  C   UNL     1       7.835  -5.510   1.086  0.00  0.00    +0.260 C 
ATOM     11  O   UNL     1       7.612  -4.947   2.137  0.00  0.00    -0.272 OA
ATOM     12  C   UNL     1       8.530  -8.217  -0.414  0.00  0.00    +0.128 C 
ATOM     13  C   UNL     1       8.548  -4.867  -1.993  0.00  0.00    +0.028 C 
BRANCH   9  14
ATOM     14  C   UNL     1       9.982  -6.459   1.684  0.00  0.00    +0.053 A 
ATOM     15  C   UNL     1       9.725  -6.824   2.999  0.00  0.00    +0.025 A 
ATOM     16  C   UNL     1      10.774  -7.023   3.876  0.00  0.00    +0.002 A 
ATOM     17  C   UNL     1      12.078  -6.858   3.446  0.00  0.00    +0.000 A 
ATOM     18  C   UNL     1      12.336  -6.494   2.137  0.00  0.00    +0.002 A 
ATOM     19  C   UNL     1      11.293  -6.300   1.254  0.00  0.00    +0.025 A 
ENDBRANCH   9  14
ENDBRANCH   5   6
BRANCH   1  20
ATOM     20  S   UNL     1       3.912  -4.819  -1.265  0.00  0.00    -0.077 S 
BRANCH  20  21
ATOM     21  C   UNL     1       2.155  -5.195  -1.514  0.00  0.00    +0.151 C 
BRANCH  21  30
ATOM     22  C   UNL     1       1.506   1.215  -5.030  0.00  0.00    +0.087 C 
ATOM     23  C   UNL     1       1.274  -0.128  -4.387  0.00  0.00    +0.119 A 
ATOM     24  C   UNL     1       0.080  -0.786  -4.348  0.00  0.00    +0.118 A 
ATOM     25  C   UNL     1       0.346  -2.041  -3.624  0.00  0.00    +0.118 A 
ATOM     26  C   UNL     1      -0.431  -3.155  -3.239  0.00  0.00    +0.263 A 
ATOM     27  O   UNL     1      -1.618  -3.216  -3.510  0.00  0.00    -0.267 OA
ATOM     28  N   UNL     1       0.181  -4.153  -2.561  0.00  0.00    -0.309 N 
ATOM     29  H   UNL     1      -0.326  -4.932  -2.283  0.00  0.00    +0.170 HD
ATOM     30  C   UNL     1       1.502  -4.067  -2.270  0.00  0.00    +0.124 A 
ATOM     31  N   UNL     1       2.229  -3.042  -2.621  0.00  0.00    -0.198 NA
ATOM     32  C   UNL     1       1.701  -2.010  -3.296  0.00  0.00    +0.235 A 
ATOM     33  O   UNL     1       2.210  -0.862  -3.773  0.00  0.00    -0.441 OA
BRANCH  24  34
ATOM     34  C   UNL     1      -1.200  -0.338  -4.908  0.00  0.00    +0.391 C 
ATOM     35  O   UNL     1      -1.272   0.738  -5.488  0.00  0.00    -0.240 OA
ATOM     36  O   UNL     1      -2.197  -1.039  -4.794  0.00  0.00    -0.240 OA
ENDBRANCH  24  34
ENDBRANCH  21  30
ENDBRANCH  20  21
ENDBRANCH   1  20
TORSDOF 6
