REMARK  Name = ZINC00673040
REMARK  8 active torsions:
REMARK  status: ('A' for Active; 'I' for Inactive)
REMARK    1  A    between atoms: C_1  and  C_2
REMARK    2  A    between atoms: C_2  and  C_3
REMARK    3  A    between atoms: C_2  and  O_4
REMARK    4  A    between atoms: O_4  and  C_5
REMARK    5  A    between atoms: C_8  and  C_11
REMARK    6  A    between atoms: C_13  and  C_21
REMARK    7  A    between atoms: N_23  and  N_24
REMARK    8  A    between atoms: C_25  and  C_26
REMARK                            x       y       z     vdW  Elec       q    Type
REMARK                         _______ _______ _______ _____ _____    ______ ____
ROOT
ATOM      1  C   UNL     1      -8.436   6.133   1.131  0.00  0.00    +0.072 A 
ATOM      2  C   UNL     1      -7.226   5.456   0.913  0.00  0.00    +0.042 A 
ATOM      3  C   UNL     1      -7.189   4.074   1.027  0.00  0.00    +0.050 A 
ATOM      4  C   UNL     1      -8.440   3.394   1.369  0.00  0.00    +0.013 A 
ATOM      5  C   UNL     1      -8.500   2.004   1.512  0.00  0.00    +0.011 A 
ATOM      6  C   UNL     1      -9.685   1.411   1.837  0.00  0.00    +0.001 A 
ATOM      7  C   UNL     1     -10.834   2.174   2.034  0.00  0.00    +0.002 A 
ATOM      8  C   UNL     1     -10.808   3.529   1.908  0.00  0.00    +0.028 A 
ATOM      9  C   UNL     1      -9.604   4.176   1.573  0.00  0.00    +0.072 A 
ATOM     10  N   UNL     1      -9.549   5.502   1.443  0.00  0.00    -0.247 NA
ENDROOT
BRANCH   1  14
ATOM     11  C   UNL     1      -8.511  10.370   0.771  0.00  0.00    +0.121 A 
ATOM     12  C   UNL     1      -9.672   9.682   1.100  0.00  0.00    +0.046 A 
ATOM     13  C   UNL     1      -9.651   8.308   1.217  0.00  0.00    +0.013 A 
ATOM     14  C   UNL     1      -8.462   7.610   1.006  0.00  0.00    +0.001 A 
ATOM     15  C   UNL     1      -7.297   8.304   0.682  0.00  0.00    +0.013 A 
ATOM     16  C   UNL     1      -7.326   9.677   0.560  0.00  0.00    +0.046 A 
BRANCH  11  17
ATOM     17  O   UNL     1      -8.535  11.723   0.656  0.00  0.00    -0.489 OA
BRANCH  17  19
ATOM     18  C   UNL     1     -10.131  12.588   2.252  0.00  0.00    +0.051 C 
ATOM     19  C   UNL     1      -9.808  12.362   0.774  0.00  0.00    +0.167 C 
ATOM     20  C   UNL     1      -9.772  13.708   0.048  0.00  0.00    +0.051 C 
ENDBRANCH  17  19
ENDBRANCH  11  17
ENDBRANCH   1  14
BRANCH   3  21
ATOM     21  C   UNL     1      -5.939   3.318   0.806  0.00  0.00    +0.264 C 
ATOM     22  O   UNL     1      -5.907   2.121   1.018  0.00  0.00    -0.268 OA
ATOM     23  N   UNL     1      -4.833   3.955   0.371  0.00  0.00    -0.203 N 
ATOM     24  H   UNL     1      -4.859   4.910   0.203  0.00  0.00    +0.178 HD
BRANCH  23  25
ATOM     25  N   UNL     1      -3.648   3.238   0.163  0.00  0.00    -0.187 NA
ATOM     26  C   UNL     1      -2.584   3.852  -0.257  0.00  0.00    +0.138 C 
BRANCH  26  27
ATOM     27  C   UNL     1      -1.336   3.098  -0.476  0.00  0.00    -0.003 A 
ATOM     28  C   UNL     1      -1.279   1.717  -0.245  0.00  0.00    +0.029 A 
ATOM     29  C   UNL     1      -0.090   1.052  -0.460  0.00  0.00    +0.111 A 
ATOM     30  N   UNL     1       0.980   1.697  -0.886  0.00  0.00    -0.263 NA
ATOM     31  C   UNL     1       0.969   2.995  -1.121  0.00  0.00    +0.111 A 
ATOM     32  C   UNL     1      -0.176   3.740  -0.928  0.00  0.00    +0.029 A 
ENDBRANCH  26  27
ENDBRANCH  23  25
ENDBRANCH   3  21
TORSDOF 6
