REMARK  Name = ZINC14245852
REMARK  10 active torsions:
REMARK  status: ('A' for Active; 'I' for Inactive)
REMARK    1  A    between atoms: C_1  and  C_2
REMARK    2  A    between atoms: C_2  and  C_3
REMARK    3  A    between atoms: C_2  and  C_4
REMARK    4  A    between atoms: C_2  and  N_5
REMARK    5  A    between atoms: N_5  and  S_6
REMARK    6  A    between atoms: S_6  and  C_9
REMARK    7  A    between atoms: C_12  and  C_15
REMARK    8  A    between atoms: N_17  and  C_18
REMARK    9  A    between atoms: C_18  and  C_19
REMARK   10  A    between atoms: N_21  and  C_22
REMARK                            x       y       z     vdW  Elec       q    Type
REMARK                         _______ _______ _______ _____ _____    ______ ____
ROOT
ATOM      1  C   UNL     1       1.376   8.050  -6.639  0.00  0.00    +0.244 C 
ATOM      2  O   UNL     1       1.045   7.565  -7.703  0.00  0.00    -0.270 OA
ATOM      3  N   UNL     1       1.115   7.397  -5.489  0.00  0.00    -0.303 N 
ATOM      4  H   UNL     1       1.379   7.785  -4.641  0.00  0.00    +0.150 HD
ENDROOT
BRANCH   1   8
ATOM      5  C   UNL     1       3.357  11.807  -6.545  0.00  0.00    +0.105 A 
ATOM      6  C   UNL     1       2.981  11.257  -7.757  0.00  0.00    +0.029 A 
ATOM      7  C   UNL     1       2.338  10.037  -7.795  0.00  0.00    +0.015 A 
ATOM      8  C   UNL     1       2.066   9.358  -6.606  0.00  0.00    +0.037 A 
ATOM      9  C   UNL     1       2.443   9.921  -5.386  0.00  0.00    +0.015 A 
ATOM     10  C   UNL     1       3.090  11.139  -5.363  0.00  0.00    +0.029 A 
BRANCH   5  11
ATOM     11  S   UNL     1       4.177  13.366  -6.505  0.00  0.00    +0.059 S 
ATOM     12  O   UNL     1       5.154  13.285  -5.477  0.00  0.00    -0.153 OA
ATOM     13  O   UNL     1       4.510  13.683  -7.850  0.00  0.00    -0.153 OA
BRANCH  11  14
ATOM     14  N   UNL     1       3.066  14.492  -6.015  0.00  0.00    -0.185 NA
ATOM     15  H   UNL     1       3.171  14.936  -5.159  0.00  0.00    +0.149 HD
BRANCH  14  17
ATOM     16  C   UNL     1       1.121  13.544  -7.156  0.00  0.00    +0.029 C 
ATOM     17  C   UNL     1       1.924  14.816  -6.873  0.00  0.00    +0.032 C 
ATOM     18  C   UNL     1       1.029  15.837  -6.167  0.00  0.00    +0.029 C 
ATOM     19  C   UNL     1       2.428  15.405  -8.192  0.00  0.00    +0.029 C 
ENDBRANCH  14  17
ENDBRANCH  11  14
ENDBRANCH   5  11
ENDBRANCH   1   8
BRANCH   3  20
ATOM     20  C   UNL     1       0.432   6.102  -5.522  0.00  0.00    +0.200 C 
BRANCH  20  21
ATOM     21  C   UNL     1       0.262   5.588  -4.116  0.00  0.00    +0.230 C 
ATOM     22  O   UNL     1       0.672   6.239  -3.178  0.00  0.00    -0.274 OA
ATOM     23  N   UNL     1      -0.345   4.404  -3.899  0.00  0.00    -0.311 N 
ATOM     24  H   UNL     1      -0.673   3.883  -4.649  0.00  0.00    +0.149 HD
BRANCH  23  25
ATOM     25  C   UNL     1      -0.510   3.904  -2.532  0.00  0.00    +0.073 C 
ATOM     26  C   UNL     1      -1.779   4.501  -1.921  0.00  0.00    +0.022 C 
ATOM     27  C   UNL     1      -2.990   4.093  -2.762  0.00  0.00    +0.005 C 
ATOM     28  C   UNL     1      -3.104   2.567  -2.787  0.00  0.00    -0.008 C 
ATOM     29  C   UNL     1      -4.315   2.160  -3.628  0.00  0.00    +0.004 C 
ATOM     30  C   UNL     1      -4.429   0.634  -3.653  0.00  0.00    +0.000 C 
ATOM     31  C   UNL     1      -3.159   0.038  -4.264  0.00  0.00    +0.000 C 
ATOM     32  C   UNL     1      -1.948   0.446  -3.423  0.00  0.00    +0.004 C 
ATOM     33  C   UNL     1      -1.835   1.971  -3.398  0.00  0.00    -0.006 C 
ATOM     34  C   UNL     1      -0.624   2.379  -2.557  0.00  0.00    +0.026 C 
ENDBRANCH  23  25
ENDBRANCH  20  21
ENDBRANCH   3  20
TORSDOF 7
