REMARK  Name = ZINC06149600
REMARK  13 active torsions:
REMARK  status: ('A' for Active; 'I' for Inactive)
REMARK    1  A    between atoms: C_1  and  C_2
REMARK    2  A    between atoms: C_2  and  C_3
REMARK    3  A    between atoms: C_3  and  C_4
REMARK    4  A    between atoms: C_3  and  C_5
REMARK    5  A    between atoms: C_3  and  N_6
REMARK    6  A    between atoms: C_7  and  C_11
REMARK    7  A    between atoms: C_11  and  C_13
REMARK    8  A    between atoms: C_11  and  N_69
REMARK    9  A    between atoms: C_19  and  C_25
REMARK   10  A    between atoms: C_26  and  C_27
REMARK   11  A    between atoms: C_26  and  N_69
REMARK   12  A    between atoms: C_33  and  C_34
REMARK   13  A    between atoms: C_33  and  N_69
REMARK                            x       y       z     vdW  Elec       q    Type
REMARK                         _______ _______ _______ _____ _____    ______ ____
ROOT
ATOM      1  C   UNL     1      -0.051  -3.313   4.955  0.00  0.00    +0.040 C 
ENDROOT
BRANCH   1   2
ATOM      2  C   UNL     1       0.247  -2.837   3.556  0.00  0.00    +0.011 A 
ATOM      3  C   UNL     1       1.458  -2.298   3.270  0.00  0.00    +0.017 A 
ATOM      4  C   UNL     1       1.716  -1.846   1.901  0.00  0.00    -0.001 A 
ATOM      5  C   UNL     1       2.946  -1.282   1.545  0.00  0.00    +0.010 A 
ATOM      6  C   UNL     1       3.155  -0.870   0.260  0.00  0.00    +0.001 A 
ATOM      7  C   UNL     1       2.160  -1.012  -0.698  0.00  0.00    +0.005 A 
ATOM      8  C   UNL     1       0.939  -1.558  -0.368  0.00  0.00    -0.026 A 
ATOM      9  C   UNL     1       0.703  -1.985   0.934  0.00  0.00    +0.052 A 
ATOM     10  N   UNL     1      -0.508  -2.541   1.290  0.00  0.00    -0.322 N 
ATOM     11  H   UNL     1      -1.226  -2.639   0.602  0.00  0.00    +0.169 HD
ATOM     12  C   UNL     1      -0.735  -2.954   2.550  0.00  0.00    +0.251 A 
ATOM     13  O   UNL     1      -1.817  -3.441   2.829  0.00  0.00    -0.268 OA
ATOM     14  C   UNL     1      -0.135  -1.699  -1.417  0.00  0.00    +0.046 C 
ENDBRANCH   1   2
BRANCH   1  16
ATOM     15  N   UNL     1       2.001  -4.164   6.208  0.00  0.00    -0.225 N 
ATOM     16  C   UNL     1       1.184  -3.172   5.807  0.00  0.00    +0.143 A 
ATOM     17  N   UNL     1       1.675  -2.060   6.297  0.00  0.00    -0.115 NA
ATOM     18  N   UNL     1       2.733  -2.354   6.970  0.00  0.00    -0.023 NA
ATOM     19  N   UNL     1       2.935  -3.624   6.916  0.00  0.00    -0.043 NA
BRANCH  15  20
ATOM     20  C   UNL     1       1.857  -5.589   5.898  0.00  0.00    +0.061 C 
ATOM     21  C   UNL     1       0.578  -6.125   6.544  0.00  0.00    +0.036 C 
ATOM     22  C   UNL     1       1.779  -5.776   4.382  0.00  0.00    +0.036 C 
BRANCH  20  24
ATOM     23  C   UNL     1       2.913  -7.842   6.122  0.00  0.00    +0.006 C 
ATOM     24  C   UNL     1       3.064  -6.354   6.445  0.00  0.00    +0.026 C 
ENDBRANCH  20  24
ENDBRANCH  15  20
ENDBRANCH   1  16
BRANCH   1  25
ATOM     25  N   UNL     1      -1.158  -2.507   5.511  0.00  0.00    +0.397 N 
ATOM     26  H   UNL     1      -1.997  -2.652   4.936  0.00  0.00    -0.079 HD
BRANCH  25  27
ATOM     27  C   UNL     1      -1.446  -2.933   6.897  0.00  0.00    -0.041 C 
BRANCH  27  28
ATOM     28  C   UNL     1      -2.777  -2.361   7.312  0.00  0.00    -0.064 A 
ATOM     29  C   UNL     1      -2.832  -1.150   7.976  0.00  0.00    +0.002 A 
ATOM     30  C   UNL     1      -4.054  -0.623   8.353  0.00  0.00    +0.000 A 
ATOM     31  C   UNL     1      -5.219  -1.312   8.075  0.00  0.00    +0.000 A 
ATOM     32  C   UNL     1      -5.164  -2.526   7.416  0.00  0.00    +0.000 A 
ATOM     33  C   UNL     1      -3.943  -3.050   7.034  0.00  0.00    +0.002 A 
ENDBRANCH  27  28
ENDBRANCH  25  27
BRANCH  25  34
ATOM     34  C   UNL     1      -0.802  -1.073   5.486  0.00  0.00    -0.001 C 
BRANCH  34  35
ATOM     35  C   UNL     1      -1.221  -0.497   4.158  0.00  0.00    +0.089 A 
ATOM     36  C   UNL     1      -2.456  -0.072   3.840  0.00  0.00    +0.042 A 
ATOM     37  C   UNL     1      -2.400   0.387   2.503  0.00  0.00    +0.041 A 
ATOM     38  C   UNL     1      -1.133   0.213   2.085  0.00  0.00    +0.195 A 
ATOM     39  O   UNL     1      -0.422  -0.317   3.093  0.00  0.00    -0.470 OA
ENDBRANCH  34  35
ENDBRANCH  25  34
ENDBRANCH   1  25
TORSDOF 9
