REMARK  Name = ZINC21447190
REMARK  6 active torsions:
REMARK  status: ('A' for Active; 'I' for Inactive)
REMARK    1  A    between atoms: C_3  and  N_12
REMARK    2  A    between atoms: C_4  and  C_8
REMARK    3  A    between atoms: C_13  and  C_15
REMARK    4  A    between atoms: C_15  and  O_16
REMARK    5  A    between atoms: O_16  and  C_17
REMARK    6  A    between atoms: C_17  and  C_19
REMARK                            x       y       z     vdW  Elec       q    Type
REMARK                         _______ _______ _______ _____ _____    ______ ____
ROOT
ATOM      1  N   UNL     1       4.706  -3.215  -0.059  0.00  0.00    -0.282 N 
ATOM      2  C   UNL     1       3.625  -2.410  -0.042  0.00  0.00    +0.255 C 
ATOM      3  O   UNL     1       2.512  -2.890  -0.040  0.00  0.00    -0.272 OA
ATOM      4  H   UNL     1       5.713  -2.782  -0.152  0.00  0.00    +0.155 HD
ENDROOT
BRANCH   1   7
ATOM      5  C   UNL     1       3.266  -6.500   0.751  0.00  0.00    +0.022 A 
ATOM      6  C   UNL     1       3.420  -5.131   0.654  0.00  0.00    +0.025 A 
ATOM      7  C   UNL     1       4.548  -4.602   0.040  0.00  0.00    +0.045 A 
ATOM      8  C   UNL     1       5.515  -5.452  -0.480  0.00  0.00    +0.077 A 
ATOM      9  C   UNL     1       5.359  -6.820  -0.376  0.00  0.00    +0.034 A 
ATOM     10  C   UNL     1       4.234  -7.345   0.237  0.00  0.00    +0.042 A 
ATOM     11 CL   UNL     1       4.037  -9.065   0.361  0.00  0.00    -0.084 Cl
BRANCH   8  12
ATOM     12  C   UNL     1       6.737  -4.882  -1.152  0.00  0.00    +0.419 C 
ATOM     13  F   UNL     1       7.559  -5.926  -1.590  0.00  0.00    -0.166 F 
ATOM     14  F   UNL     1       6.347  -4.104  -2.248  0.00  0.00    -0.166 F 
ATOM     15  F   UNL     1       7.441  -4.085  -0.242  0.00  0.00    -0.166 F 
ENDBRANCH   8  12
ENDBRANCH   1   7
BRANCH   2  16
ATOM     16  C   UNL     1       3.800  -0.913  -0.024  0.00  0.00    +0.328 C 
BRANCH  16  17
ATOM     17  O   UNL     1       2.497  -0.274  -0.006  0.00  0.00    -0.452 OA
BRANCH  17  18
ATOM     18  C   UNL     1       2.477   1.073   0.011  0.00  0.00    +0.340 C 
ATOM     19  O   UNL     1       3.520   1.697   0.012  0.00  0.00    -0.245 OA
BRANCH  18  20
ATOM     20  C   UNL     1       1.189   1.792   0.029  0.00  0.00    +0.064 A 
ATOM     21  C   UNL     1       1.166   3.189   0.047  0.00  0.00    +0.064 A 
ATOM     22  C   UNL     1      -0.042   3.858   0.064  0.00  0.00    +0.168 A 
ATOM     23  C   UNL     1      -1.238   3.139   0.063  0.00  0.00    +0.184 A 
ATOM     24  C   UNL     1      -1.214   1.750   0.040  0.00  0.00    +0.087 A 
ATOM     25  C   UNL     1      -0.011   1.077   0.029  0.00  0.00    +0.039 A 
ATOM     26 CL   UNL     1      -2.705   0.860   0.032  0.00  0.00    -0.080 Cl
ATOM     27  O   UNL     1      -2.276   4.023   0.081  0.00  0.00    -0.451 OA
ATOM     28  C   UNL     1      -1.715   5.286  -0.321  0.00  0.00    +0.466 C 
ATOM     29  O   UNL     1      -0.336   5.192   0.082  0.00  0.00    -0.453 OA
ENDBRANCH  18  20
ENDBRANCH  17  18
ENDBRANCH  16  17
ENDBRANCH   2  16
TORSDOF 6
