REMARK  Name = ZINC08685664
REMARK  4 active torsions:
REMARK  status: ('A' for Active; 'I' for Inactive)
REMARK    1  A    between atoms: C_6  and  C_7
REMARK    2  A    between atoms: C_13  and  C_15
REMARK    3  A    between atoms: N_18  and  S_21
REMARK    4  A    between atoms: S_21  and  C_24
REMARK                            x       y       z     vdW  Elec       q    Type
REMARK                         _______ _______ _______ _____ _____    ______ ____
ROOT
ATOM      1  C   UNL     1      -1.266  -0.763   0.011  0.00  0.00    +0.134 A 
ATOM      2  N   UNL     1      -2.521  -0.328   0.019  0.00  0.00    -0.140 NA
ATOM      3  N   UNL     1      -3.501  -1.122   0.025  0.00  0.00    -0.125 NA
ATOM      4  C   UNL     1      -3.337  -2.439   0.023  0.00  0.00    +0.188 A 
ATOM      5  S   UNL     1      -1.549  -2.531   0.004  0.00  0.00    -0.030 S 
ATOM      6  N   UNL     1      -4.284  -3.456   0.030  0.00  0.00    -0.263 N 
ATOM      7  C   UNL     1      -5.597  -3.154   0.039  0.00  0.00    +0.222 C 
ATOM      8  O   UNL     1      -5.953  -1.995   0.042  0.00  0.00    -0.275 OA
ATOM      9  H   UNL     1      -3.999  -4.383   0.027  0.00  0.00    +0.157 HD
ENDROOT
BRANCH   1  15
ATOM     10  C   UNL     1      -0.017   1.391   0.010  0.00  0.00    +0.013 A 
ATOM     11  C   UNL     1       1.169   2.095   0.002  0.00  0.00    +0.039 A 
ATOM     12  C   UNL     1       2.379   1.418  -0.013  0.00  0.00    +0.123 A 
ATOM     13  C   UNL     1       2.403   0.033  -0.022  0.00  0.00    +0.039 A 
ATOM     14  C   UNL     1       1.223  -0.680  -0.014  0.00  0.00    +0.013 A 
ATOM     15  C   UNL     1       0.002  -0.004   0.002  0.00  0.00    +0.009 A 
ATOM     16  F   UNL     1       3.538   2.112  -0.021  0.00  0.00    -0.205 F 
ENDBRANCH   1  15
BRANCH   7  17
ATOM     17  C   UNL     1      -6.624  -4.258   0.046  0.00  0.00    +0.078 C 
ATOM     18  C   UNL     1      -6.451  -5.123  -1.204  0.00  0.00    +0.030 C 
ATOM     19  C   UNL     1      -7.473  -6.263  -1.177  0.00  0.00    +0.110 C 
ATOM     20  N   UNL     1      -8.817  -5.690  -1.021  0.00  0.00    -0.177 NA
ATOM     21  C   UNL     1      -9.068  -4.772   0.098  0.00  0.00    +0.110 C 
ATOM     22  C   UNL     1      -8.027  -3.648   0.056  0.00  0.00    +0.030 C 
BRANCH  20  23
ATOM     23  S   UNL     1     -10.026  -6.072  -2.086  0.00  0.00    +0.061 S 
ATOM     24  O   UNL     1     -10.963  -5.005  -2.037  0.00  0.00    -0.153 OA
ATOM     25  O   UNL     1      -9.392  -6.473  -3.293  0.00  0.00    -0.153 OA
BRANCH  23  26
ATOM     26  C   UNL     1     -10.849  -7.495  -1.452  0.00  0.00    +0.106 A 
ATOM     27  C   UNL     1     -10.413  -8.759  -1.803  0.00  0.00    +0.030 A 
ATOM     28  C   UNL     1     -11.059  -9.875  -1.306  0.00  0.00    +0.022 A 
ATOM     29  C   UNL     1     -12.142  -9.727  -0.457  0.00  0.00    +0.041 A 
ATOM     30  C   UNL     1     -12.577  -8.462  -0.107  0.00  0.00    +0.022 A 
ATOM     31  C   UNL     1     -11.927  -7.346  -0.600  0.00  0.00    +0.030 A 
ATOM     32 CL   UNL     1     -12.953 -11.129   0.167  0.00  0.00    -0.084 Cl
ENDBRANCH  23  26
ENDBRANCH  20  23
ENDBRANCH   7  17
TORSDOF 4
