REMARK  Name = ZINC03907384
REMARK  6 active torsions:
REMARK  status: ('A' for Active; 'I' for Inactive)
REMARK    1  A    between atoms: C_1  and  C_2
REMARK    2  A    between atoms: C_7  and  N_12
REMARK    3  A    between atoms: C_9  and  C_11
REMARK    4  A    between atoms: C_13  and  C_15
REMARK    5  A    between atoms: C_15  and  C_16
REMARK    6  A    between atoms: C_16  and  N_17
REMARK                            x       y       z     vdW  Elec       q    Type
REMARK                         _______ _______ _______ _____ _____    ______ ____
ROOT
ATOM      1  N   UNL     1      -0.745   1.585  -3.677  0.00  0.00    -0.312 N 
ATOM      2  C   UNL     1      -0.644   0.915  -4.843  0.00  0.00    +0.215 C 
ATOM      3  O   UNL     1       0.033  -0.088  -4.909  0.00  0.00    -0.276 OA
ATOM      4  H   UNL     1      -1.287   2.387  -3.624  0.00  0.00    +0.149 HD
ENDROOT
BRANCH   1  10
ATOM      5  C   UNL     1      -0.729   1.579   1.267  0.00  0.00    +0.008 C 
ATOM      6  C   UNL     1      -0.013   1.086   0.008  0.00  0.00    -0.009 C 
ATOM      7  C   UNL     1       1.423   1.615  -0.003  0.00  0.00    +0.003 C 
ATOM      8  C   UNL     1       2.139   1.122  -1.262  0.00  0.00    +0.002 C 
ATOM      9  C   UNL     1       1.399   1.629  -2.501  0.00  0.00    +0.022 C 
ATOM     10  C   UNL     1      -0.037   1.099  -2.490  0.00  0.00    +0.076 C 
ATOM     11  C   UNL     1      -0.753   1.593  -1.232  0.00  0.00    +0.009 C 
ATOM     12  C   UNL     1      -0.773   3.123  -1.223  0.00  0.00    +0.009 C 
ENDBRANCH   1  10
BRANCH   2  13
ATOM     13  C   UNL     1      -1.373   1.415  -6.064  0.00  0.00    +0.117 C 
BRANCH  13  14
ATOM     14  C   UNL     1      -1.092   0.481  -7.243  0.00  0.00    +0.138 C 
BRANCH  14  15
ATOM     15  N   UNL     1      -1.801   0.966  -8.430  0.00  0.00    -0.274 N 
ATOM     16  C   UNL     1      -3.092   0.613  -8.821  0.00  0.00    +0.090 A 
ATOM     17  C   UNL     1      -4.058  -0.219  -8.276  0.00  0.00    +0.030 A 
ATOM     18  C   UNL     1      -5.277  -0.362  -8.909  0.00  0.00    +0.002 A 
ATOM     19  C   UNL     1      -5.539   0.327 -10.081  0.00  0.00    +0.004 A 
ATOM     20  C   UNL     1      -4.583   1.162 -10.626  0.00  0.00    +0.048 A 
ATOM     21  C   UNL     1      -3.357   1.312  -9.999  0.00  0.00    +0.157 A 
ATOM     22  O   UNL     1      -2.252   2.042 -10.290  0.00  0.00    -0.407 OA
ATOM     23  C   UNL     1      -1.322   1.831  -9.346  0.00  0.00    +0.421 A 
ATOM     24  O   UNL     1      -0.218   2.341  -9.320  0.00  0.00    -0.223 OA
ENDBRANCH  14  15
ENDBRANCH  13  14
ENDBRANCH   2  13
TORSDOF 4
