REMARK  Name = ZINC12250356
REMARK  13 active torsions:
REMARK  status: ('A' for Active; 'I' for Inactive)
REMARK    1  A    between atoms: C_1  and  C_2
REMARK    2  A    between atoms: C_7  and  N_8
REMARK    3  A    between atoms: C_9  and  C_11
REMARK    4  A    between atoms: C_12  and  C_39
REMARK    5  A    between atoms: C_14  and  S_25
REMARK    6  A    between atoms: C_15  and  C_23
REMARK    7  A    between atoms: C_16  and  C_18
REMARK    8  A    between atoms: S_25  and  C_26
REMARK    9  A    between atoms: C_26  and  C_27
REMARK   10  A    between atoms: N_29  and  C_30
REMARK   11  A    between atoms: C_31  and  C_38
REMARK   12  A    between atoms: C_33  and  C_37
REMARK   13  A    between atoms: C_35  and  C_36
REMARK                            x       y       z     vdW  Elec       q    Type
REMARK                         _______ _______ _______ _____ _____    ______ ____
ROOT
ATOM      1  C   UNL     1       0.819  -0.822   0.860  0.00  0.00    +0.047 C 
ATOM      2  C   UNL     1       2.038  -0.789   0.297  0.00  0.00    +0.015 C 
ATOM      3  N   UNL     1       2.998   0.077   0.745  0.00  0.00    -0.312 N 
ATOM      4  C   UNL     1       2.881   0.654   1.990  0.00  0.00    +0.080 C 
ATOM      5  C   UNL     1       1.682   0.674   2.631  0.00  0.00    +0.072 C 
ATOM      6  C   UNL     1       0.453   0.080   2.003  0.00  0.00    +0.134 C 
ATOM      7  C   UNL     1       2.350  -1.714  -0.851  0.00  0.00    +0.061 C 
ATOM      8  H   UNL     1       3.866   0.312   0.111  0.00  0.00    +0.152 HD
ENDROOT
BRANCH   6   9
ATOM      9  C   UNL     1      -0.297  -0.716   3.041  0.00  0.00    +0.118 A 
ATOM     10  C   UNL     1      -1.581  -0.531   3.397  0.00  0.00    +0.045 A 
ATOM     11  C   UNL     1      -1.871  -1.489   4.396  0.00  0.00    +0.041 A 
ATOM     12  C   UNL     1      -0.746  -2.202   4.590  0.00  0.00    +0.195 A 
ATOM     13  O   UNL     1       0.202  -1.733   3.762  0.00  0.00    -0.467 OA
ENDBRANCH   6   9
BRANCH   1  15
ATOM     14  N   UNL     1      -0.056  -3.042   0.681  0.00  0.00    -0.281 N 
ATOM     15  C   UNL     1      -0.143  -1.735   0.366  0.00  0.00    +0.247 C 
ATOM     16  O   UNL     1      -1.053  -1.338  -0.340  0.00  0.00    -0.270 OA
ATOM     17  H   UNL     1       0.704  -3.385   1.399  0.00  0.00    +0.155 HD
BRANCH  14  24
ATOM     18  C   UNL     1      -0.391  -5.569   1.946  0.00  0.00    +0.045 C 
ATOM     19  C   UNL     1      -1.125  -5.207   0.681  0.00  0.00    -0.029 A 
ATOM     20  C   UNL     1      -1.991  -6.114   0.101  0.00  0.00    +0.005 A 
ATOM     21  C   UNL     1      -2.664  -5.783  -1.061  0.00  0.00    +0.000 A 
ATOM     22  C   UNL     1      -2.474  -4.544  -1.645  0.00  0.00    +0.002 A 
ATOM     23  C   UNL     1      -1.614  -3.631  -1.067  0.00  0.00    +0.023 A 
ATOM     24  C   UNL     1      -0.932  -3.962   0.096  0.00  0.00    +0.037 A 
ENDBRANCH  14  24
ENDBRANCH   1  15
BRANCH   5  25
ATOM     25  C   UNL     1       1.589   1.273   3.928  0.00  0.00    +0.098 C 
ATOM     26  N   UNL     1       1.515   1.748   4.957  0.00  0.00    -0.191 NA
ENDBRANCH   5  25
BRANCH   4  27
ATOM     27  S   UNL     1       4.295   1.372   2.757  0.00  0.00    -0.100 S 
BRANCH  27  28
ATOM     28  C   UNL     1       5.540   1.054   1.483  0.00  0.00    +0.171 C 
BRANCH  28  29
ATOM     29  C   UNL     1       6.871   1.598   1.934  0.00  0.00    +0.227 C 
ATOM     30  O   UNL     1       6.969   2.147   3.011  0.00  0.00    -0.275 OA
ATOM     31  N   UNL     1       7.954   1.475   1.140  0.00  0.00    -0.284 N 
ATOM     32  H   UNL     1       7.857   1.017   0.145  0.00  0.00    +0.155 HD
BRANCH  31  33
ATOM     33  C   UNL     1       9.201   1.930   1.583  0.00  0.00    +0.039 A 
ATOM     34  C   UNL     1       9.363   3.254   1.967  0.00  0.00    -0.029 A 
ATOM     35  C   UNL     1      10.594   3.698   2.409  0.00  0.00    +0.008 A 
ATOM     36  C   UNL     1      11.667   2.828   2.457  0.00  0.00    -0.050 A 
ATOM     37  C   UNL     1      11.511   1.510   2.070  0.00  0.00    +0.008 A 
ATOM     38  C   UNL     1      10.281   1.058   1.633  0.00  0.00    -0.029 A 
ATOM     39  C   UNL     1      10.112  -0.378   1.210  0.00  0.00    +0.045 C 
ATOM     40  C   UNL     1      13.011   3.318   2.933  0.00  0.00    +0.044 C 
ATOM     41  C   UNL     1       8.194   4.205   1.908  0.00  0.00    +0.045 C 
ENDBRANCH  31  33
ENDBRANCH  28  29
ENDBRANCH  27  28
ENDBRANCH   4  27
TORSDOF 8
