REMARK  Name = ZINC52627718
REMARK  8 active torsions:
REMARK  status: ('A' for Active; 'I' for Inactive)
REMARK    1  A    between atoms: C_7  and  C_10
REMARK    2  A    between atoms: C_10  and  C_11
REMARK    3  A    between atoms: C_11  and  C_13
REMARK    4  A    between atoms: C_11  and  N_32
REMARK    5  A    between atoms: C_13  and  N_14
REMARK    6  A    between atoms: N_14  and  C_15
REMARK    7  A    between atoms: C_17  and  O_21
REMARK    8  A    between atoms: O_21  and  C_22
REMARK                            x       y       z     vdW  Elec       q    Type
REMARK                         _______ _______ _______ _____ _____    ______ ____
ROOT
ATOM      1  N   UNL     1      -0.832  -5.173  -2.886  0.00  0.00    -0.344 N 
ATOM      2  H   UNL     1      -0.553  -4.624  -3.635  0.00  0.00    +0.146 HD
ENDROOT
BRANCH   1   3
ATOM      3  C   UNL     1      -1.550  -6.350  -3.113  0.00  0.00    +0.049 A 
ATOM      4  C   UNL     1      -1.864  -6.747  -4.410  0.00  0.00    +0.072 A 
ATOM      5  C   UNL     1      -2.579  -7.926  -4.583  0.00  0.00    +0.148 A 
ATOM      6  C   UNL     1      -2.952  -8.661  -3.466  0.00  0.00    +0.157 A 
ATOM      7  N   UNL     1      -2.637  -8.254  -2.253  0.00  0.00    -0.258 NA
ATOM      8  C   UNL     1      -1.955  -7.144  -2.047  0.00  0.00    +0.133 A 
BRANCH   5   9
ATOM      9  O   UNL     1      -2.909  -8.354  -5.830  0.00  0.00    -0.454 OA
BRANCH   9  10
ATOM     10  C   UNL     1      -1.906  -8.758  -6.652  0.00  0.00    +0.136 A 
ATOM     11  C   UNL     1      -0.615  -8.851  -6.181  0.00  0.00    +0.047 A 
ATOM     12  C   UNL     1       0.420  -9.264  -7.016  0.00  0.00    +0.004 A 
ATOM     13  C   UNL     1       0.189  -9.587  -8.319  0.00  0.00    +0.010 A 
ATOM     14  C   UNL     1      -1.113  -9.505  -8.837  0.00  0.00    +0.004 A 
ATOM     15  C   UNL     1      -2.175  -9.091  -7.992  0.00  0.00    +0.027 A 
ATOM     16  C   UNL     1      -3.470  -9.024  -8.535  0.00  0.00    +0.032 A 
ATOM     17  C   UNL     1      -3.649  -9.364  -9.842  0.00  0.00    +0.111 A 
ATOM     18  N   UNL     1      -2.640  -9.754 -10.609  0.00  0.00    -0.263 NA
ATOM     19  C   UNL     1      -1.404  -9.826 -10.173  0.00  0.00    +0.119 A 
ENDBRANCH   9  10
ENDBRANCH   5   9
ENDBRANCH   1   3
BRANCH   1  20
ATOM     20  C   UNL     1      -0.502  -4.769  -1.518  0.00  0.00    +0.085 C 
BRANCH  20  21
ATOM     21  C   UNL     1       0.281  -3.454  -1.549  0.00  0.00    -0.054 C 
BRANCH  21  22
ATOM     22  N   UNL     1      -0.488  -2.445  -2.289  0.00  0.00    +0.381 N 
ATOM     23  H   UNL     1       0.029  -1.578  -2.310  0.00  0.00    -0.090 HD
ATOM     24  H   UNL     1      -0.644  -2.766  -3.233  0.00  0.00    -0.090 HD
ATOM     25  H   UNL     1      -1.375  -2.296  -1.833  0.00  0.00    -0.090 HD
ENDBRANCH  21  22
BRANCH  21  26
ATOM     26  C   UNL     1       0.518  -2.967  -0.118  0.00  0.00    +0.018 C 
BRANCH  26  33
ATOM     27  C   UNL     1      -0.436   1.521  -0.088  0.00  0.00    +0.001 A 
ATOM     28  C   UNL     1       0.702   2.338  -0.122  0.00  0.00    +0.002 A 
ATOM     29  C   UNL     1       1.956   1.840  -0.160  0.00  0.00    +0.026 A 
ATOM     30  C   UNL     1       2.171   0.434  -0.167  0.00  0.00    +0.043 A 
ATOM     31  N   UNL     1       3.270  -0.281  -0.200  0.00  0.00    -0.380 N 
ATOM     32  C   UNL     1       2.904  -1.702  -0.190  0.00  0.00    +0.144 C 
ATOM     33  C   UNL     1       1.392  -1.740  -0.144  0.00  0.00    -0.043 C 
ATOM     34  C   UNL     1       0.985  -0.451  -0.131  0.00  0.00    -0.001 A 
ATOM     35  C   UNL     1      -0.344   0.172  -0.091  0.00  0.00    +0.010 A 
ATOM     36  H   UNL     1       4.173   0.070  -0.228  0.00  0.00    +0.160 HD
ENDBRANCH  26  33
ENDBRANCH  21  26
ENDBRANCH  20  21
ENDBRANCH   1  20
TORSDOF 8
