REMARK  Name = ZINC34878999
REMARK  5 active torsions:
REMARK  status: ('A' for Active; 'I' for Inactive)
REMARK    1  A    between atoms: C_1  and  C_2
REMARK    2  A    between atoms: C_9  and  C_11
REMARK    3  A    between atoms: N_13  and  C_14
REMARK    4  A    between atoms: C_18  and  S_20
REMARK    5  A    between atoms: S_20  and  N_23
REMARK                            x       y       z     vdW  Elec       q    Type
REMARK                         _______ _______ _______ _____ _____    ______ ____
ROOT
ATOM      1  C   UNL     1       1.889  -7.532   3.469  0.00  0.00    +0.036 A 
ATOM      2  C   UNL     1       1.966  -7.200   4.816  0.00  0.00    +0.023 A 
ATOM      3  C   UNL     1       2.154  -8.191   5.759  0.00  0.00    +0.004 A 
ATOM      4  C   UNL     1       2.265  -9.512   5.364  0.00  0.00    +0.029 A 
ATOM      5  C   UNL     1       2.189  -9.845   4.024  0.00  0.00    +0.114 A 
ATOM      6  C   UNL     1       1.996  -8.860   3.076  0.00  0.00    +0.052 A 
ENDROOT
BRANCH   1   9
ATOM      7  C   UNL     1       0.952  -6.779   1.417  0.00  0.00    +0.255 C 
ATOM      8  O   UNL     1       0.513  -7.897   1.220  0.00  0.00    -0.269 OA
ATOM      9  N   UNL     1       1.699  -6.531   2.511  0.00  0.00    -0.281 N 
ATOM     10  H   UNL     1       2.104  -5.659   2.634  0.00  0.00    +0.155 HD
BRANCH   7  18
ATOM     11  C   UNL     1      -1.400  -2.992  -4.699  0.00  0.00    +0.008 C 
ATOM     12  C   UNL     1      -0.505  -3.205  -3.477  0.00  0.00    -0.009 C 
ATOM     13  C   UNL     1      -0.607  -1.988  -2.553  0.00  0.00    +0.009 C 
ATOM     14  C   UNL     1       0.487  -2.088  -1.481  0.00  0.00    +0.043 C 
ATOM     15  C   UNL     1       0.457  -3.471  -0.900  0.00  0.00    -0.006 A 
ATOM     16  C   UNL     1      -0.175  -4.562  -1.422  0.00  0.00    -0.036 A 
ATOM     17  C   UNL     1      -0.068  -5.745  -0.707  0.00  0.00    +0.024 A 
ATOM     18  C   UNL     1       0.668  -5.702   0.464  0.00  0.00    +0.075 A 
ATOM     19  S   UNL     1       1.181  -3.995   0.510  0.00  0.00    -0.088 S 
ATOM     20  C   UNL     1      -0.955  -4.460  -2.730  0.00  0.00    +0.039 C 
ENDBRANCH   7  18
ENDBRANCH   1   9
BRANCH   5  21
ATOM     21  S   UNL     1       2.333 -11.529   3.527  0.00  0.00    +0.100 S 
ATOM     22  O   UNL     1       2.775 -11.517   2.176  0.00  0.00    -0.146 OA
ATOM     23  O   UNL     1       3.049 -12.197   4.557  0.00  0.00    -0.146 OA
BRANCH  21  24
ATOM     24  N   UNL     1       0.806 -12.170   3.520  0.00  0.00    -0.118 NA
ATOM     25  C   UNL     1       0.625 -13.406   3.188  0.00  0.00    +0.117 C 
ATOM     26  N   UNL     1       1.616 -14.282   2.830  0.00  0.00    -0.331 N 
ATOM     27  C   UNL     1       1.128 -15.660   2.997  0.00  0.00    +0.103 C 
ATOM     28  C   UNL     1      -0.392 -15.566   2.739  0.00  0.00    +0.026 C 
ATOM     29  C   UNL     1      -0.713 -14.111   3.141  0.00  0.00    +0.074 C 
ATOM     30  H   UNL     1       2.499 -14.033   2.516  0.00  0.00    +0.147 HD
ENDBRANCH  21  24
ENDBRANCH   5  21
TORSDOF 4
