REMARK  Name = ZINC02837051
REMARK  11 active torsions:
REMARK  status: ('A' for Active; 'I' for Inactive)
REMARK    1  A    between atoms: C_1  and  C_2
REMARK    2  A    between atoms: C_5  and  C_37
REMARK    3  A    between atoms: C_6  and  N_8
REMARK    4  A    between atoms: N_8  and  C_9
REMARK    5  A    between atoms: N_8  and  S_28
REMARK    6  A    between atoms: C_9  and  C_10
REMARK    7  A    between atoms: N_12  and  C_13
REMARK    8  A    between atoms: C_18  and  C_19
REMARK    9  A    between atoms: N_21  and  C_22
REMARK   10  A    between atoms: C_22  and  C_23
REMARK   11  A    between atoms: S_28  and  C_31
REMARK                            x       y       z     vdW  Elec       q    Type
REMARK                         _______ _______ _______ _____ _____    ______ ____
ROOT
ATOM      1  C   UNL     1      -1.802  -4.412   3.010  0.00  0.00    +0.236 C 
ATOM      2  O   UNL     1      -1.192  -5.091   2.211  0.00  0.00    -0.274 OA
ATOM      3  N   UNL     1      -2.926  -4.889   3.579  0.00  0.00    -0.283 N 
ATOM      4  H   UNL     1      -3.450  -4.323   4.167  0.00  0.00    +0.155 HD
ENDROOT
BRANCH   3   5
ATOM      5  C   UNL     1      -3.337  -6.196   3.322  0.00  0.00    +0.046 A 
ATOM      6  C   UNL     1      -2.395  -7.198   3.133  0.00  0.00    +0.024 A 
ATOM      7  C   UNL     1      -2.804  -8.492   2.878  0.00  0.00    +0.002 A 
ATOM      8  C   UNL     1      -4.153  -8.800   2.810  0.00  0.00    +0.001 A 
ATOM      9  C   UNL     1      -5.102  -7.818   2.995  0.00  0.00    +0.015 A 
ATOM     10  C   UNL     1      -4.703  -6.505   3.259  0.00  0.00    +0.058 A 
BRANCH  10  11
ATOM     11  C   UNL     1      -5.714  -5.450   3.465  0.00  0.00    +0.246 C 
ATOM     12  O   UNL     1      -5.366  -4.292   3.588  0.00  0.00    -0.270 OA
ATOM     13  N   UNL     1      -7.022  -5.771   3.516  0.00  0.00    -0.304 N 
ATOM     14  H   UNL     1      -7.299  -6.695   3.417  0.00  0.00    +0.149 HD
BRANCH  13  15
ATOM     15  C   UNL     1      -8.025  -4.723   3.720  0.00  0.00    +0.179 C 
BRANCH  15  16
ATOM     16  C   UNL     1      -9.400  -5.340   3.738  0.00  0.00    +0.122 A 
ATOM     17  C   UNL     1     -10.044  -5.796   4.827  0.00  0.00    +0.046 A 
ATOM     18  C   UNL     1     -11.294  -6.288   4.389  0.00  0.00    +0.041 A 
ATOM     19  C   UNL     1     -11.340  -6.104   3.057  0.00  0.00    +0.195 A 
ATOM     20  O   UNL     1     -10.192  -5.524   2.669  0.00  0.00    -0.466 OA
ENDBRANCH  15  16
ENDBRANCH  13  15
ENDBRANCH  10  11
ENDBRANCH   3   5
BRANCH   1  21
ATOM     21  C   UNL     1      -1.302  -3.036   3.367  0.00  0.00    +0.227 C 
BRANCH  21  22
ATOM     22  N   UNL     1      -0.149  -2.703   2.527  0.00  0.00    -0.194 N 
BRANCH  22  28
ATOM     23  C   UNL     1      -0.882  -3.318  -2.293  0.00  0.00    +0.044 C 
ATOM     24  C   UNL     1      -0.703  -2.422  -1.095  0.00  0.00    -0.049 A 
ATOM     25  C   UNL     1      -0.734  -1.048  -1.249  0.00  0.00    +0.004 A 
ATOM     26  C   UNL     1      -0.569  -0.223  -0.152  0.00  0.00    +0.005 A 
ATOM     27  C   UNL     1      -0.375  -0.768   1.102  0.00  0.00    -0.028 A 
ATOM     28  C   UNL     1      -0.345  -2.148   1.260  0.00  0.00    +0.055 A 
ATOM     29  C   UNL     1      -0.515  -2.974   0.157  0.00  0.00    +0.028 A 
ATOM     30  C   UNL     1      -0.196   0.133   2.297  0.00  0.00    +0.046 C 
ENDBRANCH  22  28
BRANCH  22  31
ATOM     31  S   UNL     1       1.387  -2.983   3.079  0.00  0.00    +0.075 S 
ATOM     32  O   UNL     1       1.272  -3.920   4.141  0.00  0.00    -0.150 OA
ATOM     33  O   UNL     1       2.193  -3.224   1.934  0.00  0.00    -0.150 OA
BRANCH  31  34
ATOM     34  C   UNL     1       1.966  -1.480   3.795  0.00  0.00    +0.109 A 
ATOM     35  C   UNL     1       2.621  -0.549   3.011  0.00  0.00    +0.029 A 
ATOM     36  C   UNL     1       3.075   0.630   3.572  0.00  0.00    +0.002 A 
ATOM     37  C   UNL     1       2.874   0.878   4.917  0.00  0.00    +0.000 A 
ATOM     38  C   UNL     1       2.218  -0.053   5.700  0.00  0.00    +0.002 A 
ATOM     39  C   UNL     1       1.760  -1.230   5.138  0.00  0.00    +0.029 A 
ENDBRANCH  31  34
ENDBRANCH  22  31
ENDBRANCH  21  22
ENDBRANCH   1  21
TORSDOF 9
