REMARK  Name = ZINC24725703
REMARK  9 active torsions:
REMARK  status: ('A' for Active; 'I' for Inactive)
REMARK    1  A    between atoms: C_1  and  C_2
REMARK    2  A    between atoms: C_2  and  C_3
REMARK    3  A    between atoms: C_2  and  C_4
REMARK    4  A    between atoms: C_4  and  C_5
REMARK    5  A    between atoms: C_5  and  C_7
REMARK    6  A    between atoms: C_5  and  N_11
REMARK    7  A    between atoms: C_7  and  O_9
REMARK    8  A    between atoms: O_9  and  C_10
REMARK    9  A    between atoms: C_12  and  C_14
REMARK                            x       y       z     vdW  Elec       q    Type
REMARK                         _______ _______ _______ _____ _____    ______ ____
ROOT
ATOM      1  N   UNL     1       0.580  -0.478  -1.258  0.00  0.00    -0.298 N 
ATOM      2  C   UNL     1       1.163  -1.692  -1.318  0.00  0.00    +0.245 C 
ATOM      3  O   UNL     1       1.209  -2.393  -0.326  0.00  0.00    -0.270 OA
ATOM      4  H   UNL     1       0.539   0.157  -2.155  0.00  0.00    +0.150 HD
ENDROOT
BRANCH   2   5
ATOM      5  C   UNL     1       1.746  -2.169  -2.587  0.00  0.00    +0.042 A 
ATOM      6  C   UNL     1       2.355  -3.425  -2.650  0.00  0.00    +0.062 A 
ATOM      7  C   UNL     1       2.894  -3.871  -3.841  0.00  0.00    +0.168 A 
ATOM      8  C   UNL     1       2.840  -3.062  -4.977  0.00  0.00    +0.184 A 
ATOM      9  C   UNL     1       2.239  -1.811  -4.912  0.00  0.00    +0.087 A 
ATOM     10  C   UNL     1       1.694  -1.364  -3.727  0.00  0.00    +0.037 A 
ATOM     11 CL   UNL     1       2.174  -0.809  -6.328  0.00  0.00    -0.080 Cl
ATOM     12  O   UNL     1       3.440  -3.722  -6.009  0.00  0.00    -0.451 OA
ATOM     13  C   UNL     1       3.497  -5.102  -5.603  0.00  0.00    +0.466 C 
ATOM     14  O   UNL     1       3.528  -5.035  -4.165  0.00  0.00    -0.453 OA
ENDBRANCH   2   5
BRANCH   1  15
ATOM     15  C   UNL     1       0.002  -0.004   0.002  0.00  0.00    +0.182 C 
BRANCH  15  16
ATOM     16  C   UNL     1      -1.405  -0.526   0.137  0.00  0.00    +0.327 C 
ATOM     17  O   UNL     1      -1.877  -1.223  -0.731  0.00  0.00    -0.249 OA
BRANCH  16  18
ATOM     18  O   UNL     1      -2.135  -0.218   1.220  0.00  0.00    -0.467 OA
ATOM     19  C   UNL     1      -3.482  -0.756   1.283  0.00  0.00    +0.280 C 
ENDBRANCH  16  18
ENDBRANCH  15  16
BRANCH  15  20
ATOM     20  C   UNL     1      -0.019   1.526   0.010  0.00  0.00    +0.036 C 
BRANCH  20  22
ATOM     21  C   UNL     1       1.397   3.581  -0.118  0.00  0.00    +0.007 C 
ATOM     22  C   UNL     1       1.417   2.055  -0.000  0.00  0.00    -0.015 C 
ATOM     23  C   UNL     1       2.119   1.653   1.298  0.00  0.00    +0.007 C 
ENDBRANCH  20  22
ENDBRANCH  15  20
ENDBRANCH   1  15
TORSDOF 6
