REMARK  Name = ZINC08683912
REMARK  7 active torsions:
REMARK  status: ('A' for Active; 'I' for Inactive)
REMARK    1  A    between atoms: C_1  and  C_2
REMARK    2  A    between atoms: C_2  and  C_3
REMARK    3  A    between atoms: C_2  and  N_4
REMARK    4  A    between atoms: C_10  and  N_15
REMARK    5  A    between atoms: C_11  and  C_12
REMARK    6  A    between atoms: C_16  and  C_18
REMARK    7  A    between atoms: C_20  and  C_28
REMARK                            x       y       z     vdW  Elec       q    Type
REMARK                         _______ _______ _______ _____ _____    ______ ____
ROOT
ATOM      1  N   UNL     1      -7.435  -1.694  -0.275  0.00  0.00    -0.275 N 
ATOM      2  C   UNL     1      -8.175  -1.035  -1.189  0.00  0.00    +0.249 C 
ATOM      3  O   UNL     1      -7.645  -0.238  -1.939  0.00  0.00    -0.270 OA
ATOM      4  H   UNL     1      -7.858  -2.329   0.324  0.00  0.00    +0.156 HD
ENDROOT
BRANCH   1  11
ATOM      5  N   UNL     1      -1.298  -0.352   0.364  0.00  0.00    +0.384 N 
ATOM      6  C   UNL     1      -1.317  -1.782   0.699  0.00  0.00    -0.073 C 
ATOM      7  C   UNL     1      -2.624  -2.140   1.414  0.00  0.00    +0.018 C 
ATOM      8  C   UNL     1      -3.778  -1.628   0.563  0.00  0.00    -0.027 A 
ATOM      9  C   UNL     1      -3.554  -0.705  -0.400  0.00  0.00    -0.021 A 
ATOM     10  S   UNL     1      -5.143  -0.415  -1.118  0.00  0.00    -0.079 S 
ATOM     11  C   UNL     1      -6.072  -1.463  -0.190  0.00  0.00    +0.085 A 
ATOM     12  C   UNL     1      -5.161  -2.045   0.680  0.00  0.00    +0.068 A 
ATOM     13  C   UNL     1      -2.235  -0.090  -0.744  0.00  0.00    -0.035 C 
ATOM     14  H   UNL     1      -1.576   0.185   1.172  0.00  0.00    -0.081 HD
BRANCH  12  15
ATOM     15  C   UNL     1      -5.579  -3.038   1.674  0.00  0.00    +0.244 C 
ATOM     16  O   UNL     1      -5.926  -2.679   2.784  0.00  0.00    -0.270 OA
ATOM     17  N   UNL     1      -5.580  -4.348   1.359  0.00  0.00    -0.325 N 
ATOM     18  H   UNL     1      -5.303  -4.634   0.474  0.00  0.00    +0.145 HD
ATOM     19  H   UNL     1      -5.857  -5.005   2.017  0.00  0.00    +0.145 HD
ENDBRANCH  12  15
BRANCH   5  21
ATOM     20  C   UNL     1       0.058   1.501  -0.486  0.00  0.00    -0.014 C 
ATOM     21  C   UNL     1       0.059   0.038  -0.040  0.00  0.00    -0.074 C 
ATOM     22  C   UNL     1       1.013  -0.133   1.145  0.00  0.00    -0.014 C 
ENDBRANCH   5  21
ENDBRANCH   1  11
BRANCH   2  23
ATOM     23  C   UNL     1      -9.630  -1.281  -1.279  0.00  0.00    +0.048 A 
ATOM     24  C   UNL     1     -10.280  -2.097  -0.366  0.00  0.00    +0.042 A 
ATOM     25  C   UNL     1     -11.666  -2.302  -0.489  0.00  0.00    +0.079 A 
ATOM     26  N   UNL     1     -12.377  -1.744  -1.450  0.00  0.00    -0.246 NA
ATOM     27  C   UNL     1     -11.831  -0.946  -2.369  0.00  0.00    +0.072 A 
ATOM     28  C   UNL     1     -10.441  -0.668  -2.332  0.00  0.00    +0.013 A 
ATOM     29  C   UNL     1      -9.874   0.174  -3.294  0.00  0.00    +0.011 A 
ATOM     30  C   UNL     1     -10.666   0.724  -4.259  0.00  0.00    +0.001 A 
ATOM     31  C   UNL     1     -12.033   0.459  -4.297  0.00  0.00    +0.002 A 
ATOM     32  C   UNL     1     -12.615  -0.364  -3.382  0.00  0.00    +0.028 A 
BRANCH  25  33
ATOM     33  C   UNL     1     -12.347  -3.172   0.488  0.00  0.00    +0.038 A 
ATOM     34  C   UNL     1     -13.672  -3.518   0.561  0.00  0.00    +0.017 A 
ATOM     35  C   UNL     1     -14.082  -4.355   1.573  0.00  0.00    +0.008 A 
ATOM     36  C   UNL     1     -13.166  -4.812   2.467  0.00  0.00    +0.046 A 
ATOM     37  S   UNL     1     -11.659  -4.056   1.879  0.00  0.00    -0.095 S 
ENDBRANCH  25  33
ENDBRANCH   2  23
TORSDOF 5
