REMARK  Name = ZINC33502036
REMARK  9 active torsions:
REMARK  status: ('A' for Active; 'I' for Inactive)
REMARK    1  A    between atoms: C_1  and  C_2
REMARK    2  A    between atoms: C_2  and  C_3
REMARK    3  A    between atoms: N_7  and  C_21
REMARK    4  A    between atoms: C_10  and  C_15
REMARK    5  A    between atoms: C_15  and  C_17
REMARK    6  A    between atoms: C_15  and  N_20
REMARK    7  A    between atoms: C_17  and  C_18
REMARK    8  A    between atoms: C_17  and  C_19
REMARK    9  A    between atoms: C_21  and  C_22
REMARK                            x       y       z     vdW  Elec       q    Type
REMARK                         _______ _______ _______ _____ _____    ______ ____
ROOT
ATOM      1  C   UNL     1       2.452   1.317   0.114  0.00  0.00    +0.259 C 
ATOM      2  C   UNL     1       1.152   2.072   0.002  0.00  0.00    +0.261 C 
ATOM      3  O   UNL     1       1.156   3.281  -0.094  0.00  0.00    -0.271 OA
ATOM      4  N   UNL     1      -0.017   1.397   0.010  0.00  0.00    -0.256 N 
ATOM      5  C   UNL     1       0.002  -0.004   0.002  0.00  0.00    +0.079 A 
ATOM      6  C   UNL     1      -1.158  -0.727   0.225  0.00  0.00    +0.029 A 
ATOM      7  C   UNL     1      -1.120  -2.109   0.222  0.00  0.00    -0.060 A 
ATOM      8  C   UNL     1       0.072  -2.771  -0.009  0.00  0.00    +0.005 A 
ATOM      9  C   UNL     1       1.231  -2.055  -0.248  0.00  0.00    +0.048 A 
ATOM     10  C   UNL     1       1.199  -0.671  -0.253  0.00  0.00    +0.143 A 
ATOM     11  O   UNL     1       2.324   0.044  -0.523  0.00  0.00    -0.478 OA
ENDROOT
BRANCH   1  13
ATOM     12  C   UNL     1       4.178   0.464   1.706  0.00  0.00    +0.008 C 
ATOM     13  C   UNL     1       2.798   1.115   1.590  0.00  0.00    +0.051 C 
ENDBRANCH   1  13
BRANCH   7  14
ATOM     14  C   UNL     1      -2.380  -2.897   0.470  0.00  0.00    -0.042 C 
BRANCH  14  15
ATOM     15  N   UNL     1      -2.416  -4.060  -0.426  0.00  0.00    +0.383 N 
ATOM     16  H   UNL     1      -3.336  -4.635  -0.244  0.00  0.00    -0.089 HD
ATOM     17  H   UNL     1      -1.541  -4.698  -0.233  0.00  0.00    -0.089 HD
ATOM     18  H   UNL     1      -2.397  -3.718  -1.471  0.00  0.00    -0.089 HD
ENDBRANCH  14  15
BRANCH  14  19
ATOM     19  C   UNL     1      -2.406  -3.372   1.924  0.00  0.00    -0.028 C 
ATOM     20  C   UNL     1      -2.369  -2.161   2.858  0.00  0.00    +0.006 C 
ATOM     21  C   UNL     1      -3.686  -4.172   2.177  0.00  0.00    +0.006 C 
ENDBRANCH  14  19
ENDBRANCH   7  14
BRANCH   4  22
ATOM     22  C   UNL     1      -1.291   2.121   0.020  0.00  0.00    +0.209 C 
BRANCH  22  23
ATOM     23  C   UNL     1      -1.721   2.361   1.444  0.00  0.00    +0.228 C 
ATOM     24  O   UNL     1      -1.031   1.967   2.360  0.00  0.00    -0.274 OA
ATOM     25  N   UNL     1      -2.872   3.015   1.699  0.00  0.00    -0.328 N 
ATOM     26  H   UNL     1      -3.185   3.190   2.739  0.00  0.00    +0.145 HD
ATOM     27  H   UNL     1      -3.497   3.372   0.868  0.00  0.00    +0.145 HD
ENDBRANCH  22  23
ENDBRANCH   4  22
TORSDOF 6
