REMARK  Name = ZINC62725609
REMARK  5 active torsions:
REMARK  status: ('A' for Active; 'I' for Inactive)
REMARK    1  A    between atoms: C_1  and  C_2
REMARK    2  A    between atoms: C_3  and  N_17
REMARK    3  A    between atoms: C_7  and  S_8
REMARK    4  A    between atoms: S_8  and  C_9
REMARK    5  A    between atoms: C_13  and  N_15
REMARK                            x       y       z     vdW  Elec       q    Type
REMARK                         _______ _______ _______ _____ _____    ______ ____
ROOT
ATOM      1  C   UNL     1       1.706   0.648   2.944  0.00  0.00    +0.196 A 
ATOM      2  N   UNL     1       2.574   0.409   1.973  0.00  0.00    -0.207 NA
ATOM      3  C   UNL     1       3.851   0.762   2.098  0.00  0.00    +0.122 A 
ATOM      4  C   UNL     1       4.269   1.388   3.269  0.00  0.00    +0.086 A 
ATOM      5  C   UNL     1       3.328   1.622   4.267  0.00  0.00    +0.122 A 
ATOM      6  N   UNL     1       2.067   1.247   4.070  0.00  0.00    -0.207 NA
ATOM      7  N   UNL     1       4.754   0.508   1.077  0.00  0.00    -0.343 N 
ATOM      8  H   UNL     1       4.455   0.070   0.264  0.00  0.00    +0.144 HD
ATOM      9  H   UNL     1       5.683   0.767   1.175  0.00  0.00    +0.144 HD
ENDROOT
BRANCH   5  10
ATOM     10  N   UNL     1       3.699   2.243   5.450  0.00  0.00    -0.343 N 
ATOM     11  H   UNL     1       4.620   2.518   5.586  0.00  0.00    +0.144 HD
ATOM     12  H   UNL     1       3.038   2.404   6.142  0.00  0.00    +0.144 HD
ENDBRANCH   5  10
BRANCH   1  13
ATOM     13  S   UNL     1       0.025   0.164   2.732  0.00  0.00    -0.050 S 
BRANCH  13  20
ATOM     14  C   UNL     1      -0.007   1.940   0.273  0.00  0.00    +0.047 C 
ATOM     15  C   UNL     1      -0.050   0.456   0.013  0.00  0.00    -0.016 A 
ATOM     16  C   UNL     1      -0.096  -0.021  -1.289  0.00  0.00    +0.029 A 
ATOM     17  C   UNL     1      -0.135  -1.390  -1.525  0.00  0.00    +0.023 A 
ATOM     18  C   UNL     1      -0.129  -2.276  -0.464  0.00  0.00    +0.003 A 
ATOM     19  C   UNL     1      -0.085  -1.805   0.833  0.00  0.00    +0.015 A 
ATOM     20  C   UNL     1      -0.039  -0.437   1.076  0.00  0.00    +0.020 A 
BRANCH  16  21
ATOM     21  N   UNL     1      -0.102   0.873  -2.362  0.00  0.00    -0.358 N 
ATOM     22  H   UNL     1      -0.075   1.829  -2.196  0.00  0.00    +0.142 HD
ATOM     23  H   UNL     1      -0.134   0.539  -3.272  0.00  0.00    +0.142 HD
ENDBRANCH  16  21
ENDBRANCH  13  20
ENDBRANCH   1  13
TORSDOF 4
