REMARK  Name = ZINC39637017
REMARK  15 active torsions:
REMARK  status: ('A' for Active; 'I' for Inactive)
REMARK    1  A    between atoms: C_1  and  C_2
REMARK    2  A    between atoms: C_2  and  C_3
REMARK    3  A    between atoms: C_3  and  C_4
REMARK    4  A    between atoms: C_4  and  C_5
REMARK    5  A    between atoms: C_5  and  C_6
REMARK    6  A    between atoms: C_6  and  C_7
REMARK    7  A    between atoms: C_11  and  C_20
REMARK    8  A    between atoms: N_22  and  C_23
REMARK    9  A    between atoms: C_23  and  C_24
REMARK   10  A    between atoms: C_26  and  O_34
REMARK   11  A    between atoms: C_27  and  O_32
REMARK   12  A    between atoms: C_28  and  O_30
REMARK   13  A    between atoms: O_30  and  C_31
REMARK   14  A    between atoms: O_32  and  C_33
REMARK   15  A    between atoms: O_34  and  C_35
REMARK                            x       y       z     vdW  Elec       q    Type
REMARK                         _______ _______ _______ _____ _____    ______ ____
ROOT
ATOM      1  C   UNL     1      -4.401  -4.666  -0.016  0.00  0.00    +0.216 C 
ATOM      2  O   UNL     1      -5.351  -3.915   0.052  0.00  0.00    -0.276 OA
ATOM      3  N   UNL     1      -4.593  -6.000   0.014  0.00  0.00    -0.300 N 
ATOM      4  C   UNL     1      -3.566  -7.066  -0.050  0.00  0.00    +0.121 C 
ATOM      5  C   UNL     1      -4.055  -8.139   0.949  0.00  0.00    +0.100 C 
ATOM      6  C   UNL     1      -5.573  -7.915   1.054  0.00  0.00    -0.004 C 
ATOM      7  C   UNL     1      -5.878  -6.731   0.124  0.00  0.00    +0.115 C 
ATOM      8  C   UNL     1      -6.324  -9.159   0.589  0.00  0.00    -0.010 C 
ATOM      9  C   UNL     1      -7.829  -8.933   0.757  0.00  0.00    -0.082 C 
ATOM     10  N   UNL     1      -8.130  -8.653   2.167  0.00  0.00    +0.379 N 
ATOM     11  C   UNL     1      -7.478  -7.405   2.579  0.00  0.00    -0.082 C 
ATOM     12  C   UNL     1      -5.958  -7.566   2.488  0.00  0.00    -0.010 C 
ATOM     13  H   UNL     1      -9.128  -8.565   2.285  0.00  0.00    -0.086 HD
ATOM     14  H   UNL     1      -7.792  -9.413   2.738  0.00  0.00    -0.086 HD
ENDROOT
BRANCH   5  15
ATOM     15  C   UNL     1      -3.761  -9.520   0.421  0.00  0.00    +0.218 C 
ATOM     16  O   UNL     1      -3.749  -9.722  -0.774  0.00  0.00    -0.275 OA
ATOM     17  N   UNL     1      -3.512 -10.530   1.279  0.00  0.00    -0.311 N 
ATOM     18  H   UNL     1      -3.522 -10.368   2.235  0.00  0.00    +0.149 HD
BRANCH  17  19
ATOM     19  C   UNL     1      -3.227 -11.872   0.766  0.00  0.00    +0.139 C 
BRANCH  19  20
ATOM     20  C   UNL     1      -2.985 -12.810   1.921  0.00  0.00    -0.023 A 
ATOM     21  C   UNL     1      -1.707 -12.973   2.420  0.00  0.00    +0.054 A 
ATOM     22  C   UNL     1      -1.481 -13.836   3.482  0.00  0.00    +0.165 A 
ATOM     23  C   UNL     1      -2.542 -14.536   4.045  0.00  0.00    +0.204 A 
ATOM     24  C   UNL     1      -3.825 -14.368   3.540  0.00  0.00    +0.165 A 
ATOM     25  C   UNL     1      -4.044 -13.500   2.481  0.00  0.00    +0.054 A 
BRANCH  24  26
ATOM     26  O   UNL     1      -4.867 -15.051   4.087  0.00  0.00    -0.491 OA
ATOM     27  C   UNL     1      -6.159 -14.829   3.517  0.00  0.00    +0.277 C 
ENDBRANCH  24  26
BRANCH  23  28
ATOM     28  O   UNL     1      -2.324 -15.383   5.087  0.00  0.00    -0.488 OA
ATOM     29  C   UNL     1      -2.416 -14.832   6.402  0.00  0.00    +0.277 C 
ENDBRANCH  23  28
BRANCH  22  30
ATOM     30  O   UNL     1      -0.223 -13.997   3.973  0.00  0.00    -0.491 OA
ATOM     31  C   UNL     1       0.819 -13.246   3.345  0.00  0.00    +0.277 C 
ENDBRANCH  22  30
ENDBRANCH  19  20
ENDBRANCH  17  19
ENDBRANCH   5  15
BRANCH   1  32
ATOM     32  C   UNL     1      -3.006  -4.107  -0.133  0.00  0.00    +0.096 C 
BRANCH  32  33
ATOM     33  C   UNL     1      -3.068  -2.579  -0.145  0.00  0.00    +0.009 C 
BRANCH  33  34
ATOM     34  C   UNL     1      -1.652  -2.012  -0.264  0.00  0.00    +0.000 C 
BRANCH  34  35
ATOM     35  C   UNL     1      -1.714  -0.483  -0.276  0.00  0.00    -0.000 C 
BRANCH  35  37
ATOM     36  C   UNL     1      -0.360   1.612  -0.407  0.00  0.00    +0.004 C 
ATOM     37  C   UNL     1      -0.298   0.084  -0.395  0.00  0.00    -0.003 C 
ENDBRANCH  35  37
ENDBRANCH  34  35
ENDBRANCH  33  34
ENDBRANCH  32  33
ENDBRANCH   1  32
TORSDOF 11
