REMARK  Name = ZINC09430665
REMARK  7 active torsions:
REMARK  status: ('A' for Active; 'I' for Inactive)
REMARK    1  A    between atoms: C_1  and  C_2
REMARK    2  A    between atoms: C_5  and  C_33
REMARK    3  A    between atoms: C_6  and  N_8
REMARK    4  A    between atoms: C_9  and  C_11
REMARK    5  A    between atoms: C_11  and  N_12
REMARK    6  A    between atoms: C_15  and  S_23
REMARK    7  A    between atoms: S_23  and  N_26
REMARK                            x       y       z     vdW  Elec       q    Type
REMARK                         _______ _______ _______ _____ _____    ______ ____
ROOT
ATOM      1  N   UNL     1       3.341   7.432  -0.301  0.00  0.00    -0.256 N 
ATOM      2  C   UNL     1       3.144   8.045  -1.547  0.00  0.00    +0.081 A 
ATOM      3  C   UNL     1       2.890   7.282  -2.677  0.00  0.00    +0.055 A 
ATOM      4  C   UNL     1       2.694   7.905  -3.896  0.00  0.00    +0.107 A 
ATOM      5  C   UNL     1       2.744   9.284  -3.989  0.00  0.00    +0.032 A 
ATOM      6  C   UNL     1       2.991  10.050  -2.864  0.00  0.00    +0.049 A 
ATOM      7  C   UNL     1       3.188   9.433  -1.640  0.00  0.00    +0.143 A 
ATOM      8  O   UNL     1       3.431  10.171  -0.524  0.00  0.00    -0.481 OA
ATOM      9  C   UNL     1       2.930   9.652   0.711  0.00  0.00    +0.325 C 
ATOM     10  C   UNL     1       3.266   8.186   0.817  0.00  0.00    +0.258 C 
ATOM     11  O   UNL     1       3.467   7.684   1.903  0.00  0.00    -0.271 OA
ENDROOT
BRANCH   4  12
ATOM     12  S   UNL     1       2.379   6.939  -5.336  0.00  0.00    +0.061 S 
ATOM     13  O   UNL     1       1.842   5.703  -4.886  0.00  0.00    -0.153 OA
ATOM     14  O   UNL     1       1.690   7.782  -6.248  0.00  0.00    -0.153 OA
BRANCH  12  15
ATOM     15  N   UNL     1       3.845   6.594  -6.024  0.00  0.00    -0.177 NA
ATOM     16  C   UNL     1       4.379   7.507  -7.011  0.00  0.00    +0.109 C 
ATOM     17  C   UNL     1       3.888   7.106  -8.418  0.00  0.00    +0.017 C 
ATOM     18  C   UNL     1       4.545   5.864  -8.853  0.00  0.00    +0.001 C 
ATOM     19  C   UNL     1       4.235   4.650  -7.983  0.00  0.00    +0.001 C 
ATOM     20  C   UNL     1       5.178   4.625  -6.805  0.00  0.00    +0.017 C 
ATOM     21  C   UNL     1       4.551   5.366  -5.610  0.00  0.00    +0.109 C 
ENDBRANCH  12  15
ENDBRANCH   4  12
BRANCH   1  22
ATOM     22  C   UNL     1       3.629   5.998  -0.215  0.00  0.00    +0.209 C 
BRANCH  22  24
ATOM     23  N   UNL     1       2.356   3.889   0.001  0.00  0.00    -0.284 N 
ATOM     24  C   UNL     1       2.336   5.233  -0.093  0.00  0.00    +0.235 C 
ATOM     25  O   UNL     1       1.279   5.827  -0.081  0.00  0.00    -0.274 OA
ATOM     26  H   UNL     1       3.202   3.420   0.071  0.00  0.00    +0.155 HD
BRANCH  23  32
ATOM     27  C   UNL     1      -2.390   3.583  -1.245  0.00  0.00    +0.044 C 
ATOM     28  C   UNL     1      -1.161   2.998  -0.600  0.00  0.00    -0.049 A 
ATOM     29  C   UNL     1      -1.217   1.746  -0.015  0.00  0.00    +0.004 A 
ATOM     30  C   UNL     1      -0.093   1.208   0.583  0.00  0.00    +0.005 A 
ATOM     31  C   UNL     1       1.094   1.915   0.589  0.00  0.00    -0.029 A 
ATOM     32  C   UNL     1       1.155   3.170  -0.003  0.00  0.00    +0.037 A 
ATOM     33  C   UNL     1       0.022   3.710  -0.598  0.00  0.00    +0.027 A 
ATOM     34  C   UNL     1       2.321   1.325   1.235  0.00  0.00    +0.045 C 
ENDBRANCH  23  32
ENDBRANCH  22  24
ENDBRANCH   1  22
TORSDOF 5
