REMARK  Name = ZINC40003601
REMARK  10 active torsions:
REMARK  status: ('A' for Active; 'I' for Inactive)
REMARK    1  A    between atoms: C_1  and  C_2
REMARK    2  A    between atoms: C_9  and  C_34
REMARK    3  A    between atoms: C_10  and  C_11
REMARK    4  A    between atoms: C_11  and  C_13
REMARK    5  A    between atoms: N_17  and  C_28
REMARK    6  A    between atoms: C_18  and  C_20
REMARK    7  A    between atoms: C_28  and  C_29
REMARK    8  A    between atoms: C_29  and  C_30
REMARK    9  A    between atoms: C_30  and  O_31
REMARK   10  A    between atoms: O_31  and  C_32
REMARK                            x       y       z     vdW  Elec       q    Type
REMARK                         _______ _______ _______ _____ _____    ______ ____
ROOT
ATOM      1  C   UNL     1       0.163  -3.520   4.309  0.00  0.00    +0.078 C 
ATOM      2  C   UNL     1       0.105  -4.642   5.061  0.00  0.00    +0.249 C 
ATOM      3  C   UNL     1       0.081  -4.271   6.488  0.00  0.00    +0.288 C 
ATOM      4  O   UNL     1       0.031  -5.058   7.413  0.00  0.00    -0.266 OA
ATOM      5  N   UNL     1       0.124  -2.932   6.616  0.00  0.00    -0.283 N 
ATOM      6  C   UNL     1       0.184  -2.353   5.269  0.00  0.00    +0.145 C 
ATOM      7  O   UNL     1       0.073  -5.908   4.579  0.00  0.00    -0.282 OA
ENDROOT
BRANCH   6   8
ATOM      8  C   UNL     1      -1.012  -1.467   5.035  0.00  0.00    -0.021 A 
ATOM      9  C   UNL     1      -2.266  -1.874   5.452  0.00  0.00    +0.007 A 
ATOM     10  C   UNL     1      -3.364  -1.063   5.238  0.00  0.00    +0.022 A 
ATOM     11  C   UNL     1      -3.209   0.158   4.605  0.00  0.00    +0.059 A 
ATOM     12  C   UNL     1      -1.954   0.566   4.187  0.00  0.00    +0.060 A 
ATOM     13  C   UNL     1      -0.855  -0.246   4.408  0.00  0.00    +0.027 A 
ATOM     14 CL   UNL     1      -1.758   2.097   3.393  0.00  0.00    -0.082 Cl
ATOM     15 CL   UNL     1      -4.588   1.177   4.335  0.00  0.00    -0.082 Cl
ENDBRANCH   6   8
BRANCH   1  16
ATOM     16  C   UNL     1       0.203  -3.449   2.843  0.00  0.00    +0.213 C 
ATOM     17  O   UNL     1      -0.836  -3.404   2.206  0.00  0.00    -0.285 OA
BRANCH  16  27
ATOM     18  C   UNL     1       4.994  -3.296  -0.954  0.00  0.00    +0.047 C 
ATOM     19  C   UNL     1       3.507  -3.278  -0.710  0.00  0.00    -0.008 A 
ATOM     20  C   UNL     1       2.638  -3.182  -1.758  0.00  0.00    +0.008 A 
ATOM     21  C   UNL     1       1.259  -3.166  -1.514  0.00  0.00    +0.018 A 
ATOM     22  C   UNL     1       0.792  -3.245  -0.246  0.00  0.00    +0.093 A 
ATOM     23  N   UNL     1       1.651  -3.341   0.803  0.00  0.00    -0.296 N 
ATOM     24  C   UNL     1       3.002  -3.365   0.599  0.00  0.00    +0.141 A 
ATOM     25  N   UNL     1       3.610  -3.470   1.780  0.00  0.00    -0.232 NA
ATOM     26  C   UNL     1       2.709  -3.521   2.746  0.00  0.00    +0.068 A 
ATOM     27  C   UNL     1       1.449  -3.432   2.168  0.00  0.00    +0.116 A 
ATOM     28  C   UNL     1       2.999  -3.641   4.220  0.00  0.00    +0.068 C 
ENDBRANCH  16  27
ENDBRANCH   1  16
BRANCH   5  29
ATOM     29  C   UNL     1       0.118  -2.185   7.876  0.00  0.00    +0.111 C 
BRANCH  29  30
ATOM     30  C   UNL     1       1.557  -1.974   8.351  0.00  0.00    +0.047 C 
BRANCH  30  31
ATOM     31  C   UNL     1       1.550  -1.194   9.668  0.00  0.00    +0.161 C 
BRANCH  31  32
ATOM     32  O   UNL     1       2.894  -0.998  10.111  0.00  0.00    -0.383 OA
ATOM     33  C   UNL     1       3.001  -0.275  11.340  0.00  0.00    +0.193 C 
ENDBRANCH  31  32
ENDBRANCH  30  31
ENDBRANCH  29  30
ENDBRANCH   5  29
TORSDOF 7
