REMARK  Name = ZINC16973892
REMARK  12 active torsions:
REMARK  status: ('A' for Active; 'I' for Inactive)
REMARK    1  A    between atoms: C_1  and  O_2
REMARK    2  A    between atoms: O_2  and  C_3
REMARK    3  A    between atoms: C_8  and  N_9
REMARK    4  A    between atoms: N_9  and  C_10
REMARK    5  A    between atoms: C_10  and  N_12
REMARK    6  A    between atoms: C_20  and  C_22
REMARK    7  A    between atoms: C_24  and  O_32
REMARK    8  A    between atoms: C_25  and  O_30
REMARK    9  A    between atoms: C_26  and  O_28
REMARK   10  A    between atoms: O_28  and  C_29
REMARK   11  A    between atoms: O_30  and  C_31
REMARK   12  A    between atoms: O_32  and  C_33
REMARK                            x       y       z     vdW  Elec       q    Type
REMARK                         _______ _______ _______ _____ _____    ______ ____
ROOT
ATOM      1  N   UNL     1      -3.390  -1.000  -0.134  0.00  0.00    -0.298 N 
ATOM      2  C   UNL     1      -4.581  -0.137  -0.142  0.00  0.00    +0.129 C 
ATOM      3  C   UNL     1      -5.313  -0.297  -1.478  0.00  0.00    +0.140 C 
ATOM      4  N   UNL     1      -5.427  -1.725  -1.798  0.00  0.00    -0.347 N 
ATOM      5  C   UNL     1      -6.289  -2.298  -2.681  0.00  0.00    +0.086 A 
ATOM      6  C   UNL     1      -6.065  -3.629  -2.688  0.00  0.00    +0.019 A 
ATOM      7  C   UNL     1      -5.025  -3.888  -1.771  0.00  0.00    +0.025 A 
ATOM      8  C   UNL     1      -4.659  -2.710  -1.241  0.00  0.00    +0.044 A 
ATOM      9  C   UNL     1      -3.591  -2.459  -0.206  0.00  0.00    +0.152 C 
ENDROOT
BRANCH   9  10
ATOM     10  C   UNL     1      -4.045  -2.983   1.132  0.00  0.00    -0.014 A 
ATOM     11  C   UNL     1      -3.257  -3.886   1.821  0.00  0.00    +0.055 A 
ATOM     12  C   UNL     1      -3.668  -4.366   3.055  0.00  0.00    +0.165 A 
ATOM     13  C   UNL     1      -4.880  -3.948   3.593  0.00  0.00    +0.204 A 
ATOM     14  C   UNL     1      -5.672  -3.045   2.894  0.00  0.00    +0.165 A 
ATOM     15  C   UNL     1      -5.250  -2.564   1.663  0.00  0.00    +0.055 A 
BRANCH  14  16
ATOM     16  O   UNL     1      -6.858  -2.633   3.416  0.00  0.00    -0.491 OA
ATOM     17  C   UNL     1      -7.620  -1.704   2.642  0.00  0.00    +0.277 C 
ENDBRANCH  14  16
BRANCH  13  18
ATOM     18  O   UNL     1      -5.290  -4.422   4.801  0.00  0.00    -0.488 OA
ATOM     19  C   UNL     1      -6.076  -5.615   4.797  0.00  0.00    +0.277 C 
ENDBRANCH  13  18
BRANCH  12  20
ATOM     20  O   UNL     1      -2.890  -5.249   3.736  0.00  0.00    -0.491 OA
ATOM     21  C   UNL     1      -1.658  -5.635   3.123  0.00  0.00    +0.277 C 
ENDBRANCH  12  20
ENDBRANCH   9  10
BRANCH   1  22
ATOM     22  C   UNL     1      -2.152  -0.473  -0.067  0.00  0.00    +0.138 C 
ATOM     23  S   UNL     1      -0.780  -1.490  -0.194  0.00  0.00    -0.018 S 
BRANCH  22  24
ATOM     24  N   UNL     1      -1.992   0.855   0.101  0.00  0.00    -0.294 N 
ATOM     25  H   UNL     1      -2.767   1.422   0.242  0.00  0.00    +0.154 HD
BRANCH  24  31
ATOM     26  C   UNL     1      -0.470   2.575  -0.665  0.00  0.00    +0.141 A 
ATOM     27  C   UNL     1       0.802   3.121  -0.696  0.00  0.00    +0.047 A 
ATOM     28  C   UNL     1       1.830   2.521   0.007  0.00  0.00    +0.004 A 
ATOM     29  C   UNL     1       1.593   1.375   0.743  0.00  0.00    +0.002 A 
ATOM     30  C   UNL     1       0.326   0.823   0.778  0.00  0.00    +0.027 A 
ATOM     31  C   UNL     1      -0.709   1.416   0.071  0.00  0.00    +0.075 A 
BRANCH  26  33
ATOM     32  C   UNL     1      -1.163   4.346  -2.093  0.00  0.00    +0.277 C 
ATOM     33  O   UNL     1      -1.482   3.164  -1.355  0.00  0.00    -0.493 OA
ENDBRANCH  26  33
ENDBRANCH  24  31
ENDBRANCH  22  24
ENDBRANCH   1  22
TORSDOF 8
