REMARK  Name = ZINC14535535
REMARK  11 active torsions:
REMARK  status: ('A' for Active; 'I' for Inactive)
REMARK    1  A    between atoms: C_1  and  C_2
REMARK    2  A    between atoms: C_2  and  O_3
REMARK    3  A    between atoms: O_3  and  C_4
REMARK    4  A    between atoms: C_6  and  C_11
REMARK    5  A    between atoms: C_9  and  O_10
REMARK    6  A    between atoms: C_11  and  N_70
REMARK    7  A    between atoms: C_17  and  C_28
REMARK    8  A    between atoms: N_20  and  C_21
REMARK    9  A    between atoms: C_21  and  C_22
REMARK   10  A    between atoms: C_28  and  C_29
REMARK   11  A    between atoms: C_34  and  C_35
REMARK                            x       y       z     vdW  Elec       q    Type
REMARK                         _______ _______ _______ _____ _____    ______ ____
ROOT
ATOM      1  C   UNL     1       3.829   4.372  -0.839  0.00  0.00    -0.072 C 
ATOM      2  C   UNL     1       4.596   4.470  -2.157  0.00  0.00    +0.035 C 
ATOM      3  C   UNL     1       3.741   5.136  -3.206  0.00  0.00    +0.022 A 
ATOM      4  C   UNL     1       2.404   5.250  -3.067  0.00  0.00    -0.044 A 
ATOM      5  C   UNL     1       1.647   5.866  -4.082  0.00  0.00    +0.012 A 
ATOM      6  C   UNL     1       2.270   6.344  -5.194  0.00  0.00    +0.022 A 
ATOM      7  C   UNL     1       3.665   6.214  -5.305  0.00  0.00    +0.255 A 
ATOM      8  O   UNL     1       4.242   6.638  -6.293  0.00  0.00    -0.267 OA
ATOM      9  N   UNL     1       4.361   5.622  -4.320  0.00  0.00    -0.306 N 
ATOM     10  C   UNL     1       1.675   4.739  -1.852  0.00  0.00    -0.041 C 
ATOM     11  N   UNL     1       2.513   3.768  -1.130  0.00  0.00    +0.385 N 
ATOM     12  H   UNL     1       2.647   2.938  -1.719  0.00  0.00    -0.081 HD
ENDROOT
BRANCH  11  13
ATOM     13  C   UNL     1       1.849   3.363   0.130  0.00  0.00    -0.042 C 
BRANCH  13  16
ATOM     14  C   UNL     1      -1.747   2.507  -0.653  0.00  0.00    +0.162 A 
ATOM     15  C   UNL     1      -0.603   3.229  -0.349  0.00  0.00    +0.051 A 
ATOM     16  C   UNL     1       0.606   2.577  -0.201  0.00  0.00    -0.060 A 
ATOM     17  C   UNL     1       0.679   1.205  -0.354  0.00  0.00    +0.005 A 
ATOM     18  C   UNL     1      -0.458   0.479  -0.658  0.00  0.00    +0.049 A 
ATOM     19  C   UNL     1      -1.673   1.127  -0.813  0.00  0.00    +0.158 A 
BRANCH  19  20
ATOM     20  O   UNL     1      -2.791   0.415  -1.117  0.00  0.00    -0.503 OA
ATOM     21  H   UNL     1      -3.281   0.104  -0.344  0.00  0.00    +0.292 HD
ENDBRANCH  19  20
BRANCH  14  22
ATOM     22  O   UNL     1      -2.938   3.147  -0.800  0.00  0.00    -0.489 OA
BRANCH  22  24
ATOM     23  C   UNL     1      -4.355   5.105  -0.829  0.00  0.00    +0.048 C 
ATOM     24  C   UNL     1      -2.937   4.566  -0.627  0.00  0.00    +0.226 C 
ENDBRANCH  22  24
ENDBRANCH  14  22
ENDBRANCH  13  16
ENDBRANCH  11  13
BRANCH   9  25
ATOM     25  C   UNL     1       5.815   5.495  -4.445  0.00  0.00    +0.180 C 
BRANCH  25  26
ATOM     26  C   UNL     1       6.152   4.166  -5.071  0.00  0.00    +0.061 A 
ATOM     27  C   UNL     1       6.350   4.085  -6.436  0.00  0.00    +0.025 A 
ATOM     28  C   UNL     1       6.665   2.859  -7.001  0.00  0.00    +0.003 A 
ATOM     29  C   UNL     1       6.758   1.753  -6.170  0.00  0.00    +0.020 A 
ATOM     30  C   UNL     1       6.541   1.910  -4.814  0.00  0.00    +0.111 A 
ATOM     31  N   UNL     1       6.248   3.093  -4.310  0.00  0.00    -0.258 NA
ENDBRANCH  25  26
ENDBRANCH   9  25
BRANCH   6  32
ATOM     32  C   UNL     1       1.474   7.003  -6.291  0.00  0.00    +0.076 C 
BRANCH  32  33
ATOM     33  C   UNL     1       1.488   8.497  -6.094  0.00  0.00    -0.040 A 
ATOM     34  C   UNL     1       2.446   9.269  -6.726  0.00  0.00    +0.004 A 
ATOM     35  C   UNL     1       2.455  10.640  -6.549  0.00  0.00    +0.000 A 
ATOM     36  C   UNL     1       1.514  11.238  -5.731  0.00  0.00    +0.000 A 
ATOM     37  C   UNL     1       0.561  10.465  -5.095  0.00  0.00    +0.003 A 
ATOM     38  C   UNL     1       0.548   9.095  -5.277  0.00  0.00    -0.047 A 
ATOM     39  C   UNL     1      -0.492   8.253  -4.583  0.00  0.00    +0.044 C 
ENDBRANCH  32  33
ENDBRANCH   6  32
TORSDOF 9
