REMARK  Name = ZINC39550749
REMARK  6 active torsions:
REMARK  status: ('A' for Active; 'I' for Inactive)
REMARK    1  A    between atoms: C_4  and  C_7
REMARK    2  A    between atoms: C_7  and  C_8
REMARK    3  A    between atoms: C_8  and  C_15
REMARK    4  A    between atoms: N_18  and  C_21
REMARK    5  A    between atoms: C_21  and  C_22
REMARK    6  A    between atoms: C_27  and  C_28
REMARK                            x       y       z     vdW  Elec       q    Type
REMARK                         _______ _______ _______ _____ _____    ______ ____
ROOT
ATOM      1  C   UNL     1       5.540  -1.647   1.410  0.00  0.00    +0.018 C 
ATOM      2  C   UNL     1       5.479  -2.929   0.575  0.00  0.00    -0.013 C 
ATOM      3  C   UNL     1       6.828  -3.648   0.655  0.00  0.00    -0.078 C 
ATOM      4  N   UNL     1       7.123  -3.986   2.053  0.00  0.00    +0.380 N 
ATOM      5  C   UNL     1       7.254  -2.758   2.846  0.00  0.00    -0.078 C 
ATOM      6  C   UNL     1       5.922  -2.005   2.849  0.00  0.00    -0.013 C 
ATOM      7  H   UNL     1       6.374  -4.549   2.427  0.00  0.00    -0.082 HD
ENDROOT
BRANCH   1   8
ATOM      8  C   UNL     1       4.171  -0.963   1.399  0.00  0.00    +0.119 C 
ATOM      9  C   UNL     1       3.149  -1.797   2.146  0.00  0.00    +0.244 C 
ATOM     10  O   UNL     1       2.784  -2.921   1.877  0.00  0.00    -0.273 OA
ATOM     11  N   UNL     1       2.731  -1.029   3.171  0.00  0.00    -0.238 N 
ATOM     12  C   UNL     1       3.341   0.162   3.176  0.00  0.00    +0.307 C 
ATOM     13  O   UNL     1       3.129   1.026   4.004  0.00  0.00    -0.252 OA
ATOM     14  N   UNL     1       4.215   0.296   2.162  0.00  0.00    -0.284 N 
ATOM     15  H   UNL     1       2.070  -1.305   3.824  0.00  0.00    +0.159 HD
ATOM     16  H   UNL     1       4.766   1.071   1.970  0.00  0.00    +0.151 HD
BRANCH   8  17
ATOM     17  C   UNL     1       3.711  -0.707  -0.038  0.00  0.00    +0.070 C 
BRANCH  17  21
ATOM     18  C   UNL     1      -0.017   1.378   0.010  0.00  0.00    +0.000 A 
ATOM     19  C   UNL     1       1.171   2.086   0.002  0.00  0.00    +0.000 A 
ATOM     20  C   UNL     1       2.377   1.411  -0.013  0.00  0.00    +0.004 A 
ATOM     21  C   UNL     1       2.396   0.029  -0.020  0.00  0.00    -0.045 A 
ATOM     22  C   UNL     1       1.208  -0.679  -0.012  0.00  0.00    +0.004 A 
ATOM     23  C   UNL     1       0.002  -0.004   0.002  0.00  0.00    +0.000 A 
ENDBRANCH  17  21
ENDBRANCH   8  17
ENDBRANCH   1   8
BRANCH   4  24
ATOM     24  C   UNL     1       8.380  -4.745   2.116  0.00  0.00    -0.063 C 
BRANCH  24  25
ATOM     25  C   UNL     1       8.626  -5.205   3.554  0.00  0.00    +0.066 C 
ATOM     26  C   UNL     1       7.610  -6.254   3.960  0.00  0.00    +0.115 C 
ATOM     27  N   UNL     1       8.287  -7.324   4.227  0.00  0.00    -0.161 NA
ATOM     28  N   UNL     1       9.655  -7.145   4.055  0.00  0.00    -0.153 NA
ATOM     29  C   UNL     1       9.951  -5.933   3.663  0.00  0.00    +0.077 C 
BRANCH  29  30
ATOM     30  C   UNL     1      11.289  -5.387   3.385  0.00  0.00    -0.001 A 
ATOM     31  C   UNL     1      11.434  -4.058   2.975  0.00  0.00    +0.010 A 
ATOM     32  C   UNL     1      12.691  -3.554   2.715  0.00  0.00    +0.001 A 
ATOM     33  C   UNL     1      13.807  -4.360   2.859  0.00  0.00    +0.000 A 
ATOM     34  C   UNL     1      13.671  -5.676   3.264  0.00  0.00    +0.001 A 
ATOM     35  C   UNL     1      12.422  -6.193   3.534  0.00  0.00    +0.010 A 
ENDBRANCH  29  30
ENDBRANCH  24  25
ENDBRANCH   4  24
TORSDOF 6
