REMARK  Name = ZINC67332493
REMARK  8 active torsions:
REMARK  status: ('A' for Active; 'I' for Inactive)
REMARK    1  A    between atoms: C_3  and  C_6
REMARK    2  A    between atoms: C_6  and  N_7
REMARK    3  A    between atoms: N_10  and  C_11
REMARK    4  A    between atoms: C_11  and  C_12
REMARK    5  A    between atoms: N_14  and  C_15
REMARK    6  A    between atoms: C_15  and  C_16
REMARK    7  A    between atoms: N_21  and  C_22
REMARK    8  A    between atoms: C_22  and  C_23
REMARK                            x       y       z     vdW  Elec       q    Type
REMARK                         _______ _______ _______ _____ _____    ______ ____
ROOT
ATOM      1  C   UNL     1       7.632   0.365   4.140  0.00  0.00    +0.230 C 
ATOM      2  O   UNL     1       6.629   0.386   4.822  0.00  0.00    -0.274 OA
ATOM      3  N   UNL     1       8.846   0.385   4.725  0.00  0.00    -0.316 N 
ATOM      4  H   UNL     1       9.648   0.367   4.179  0.00  0.00    +0.149 HD
ENDROOT
BRANCH   1   5
ATOM      5  C   UNL     1       7.520   0.316   2.638  0.00  0.00    +0.201 C 
BRANCH   5   9
ATOM      6  N   UNL     1       4.461   0.247   0.598  0.00  0.00    -0.292 N 
ATOM      7  C   UNL     1       5.762   0.260   0.951  0.00  0.00    +0.300 C 
ATOM      8  O   UNL     1       6.625   0.233   0.095  0.00  0.00    -0.253 OA
ATOM      9  N   UNL     1       6.106   0.302   2.254  0.00  0.00    -0.291 N 
ATOM     10  H   UNL     1       3.773   0.269   1.281  0.00  0.00    +0.151 HD
ATOM     11  H   UNL     1       5.418   0.324   2.937  0.00  0.00    +0.151 HD
BRANCH   6  12
ATOM     12  C   UNL     1       4.087   0.201  -0.818  0.00  0.00    +0.180 C 
BRANCH  12  15
ATOM     13  C   UNL     1       0.468   0.820  -1.135  0.00  0.00    +0.041 A 
ATOM     14  C   UNL     1       1.800   1.284  -1.040  0.00  0.00    +0.046 A 
ATOM     15  C   UNL     1       2.585   0.196  -0.940  0.00  0.00    +0.122 A 
ATOM     16  O   UNL     1       1.804  -0.896  -0.970  0.00  0.00    -0.466 OA
ATOM     17  C   UNL     1       0.519  -0.523  -1.087  0.00  0.00    +0.195 A 
ENDBRANCH  12  15
ENDBRANCH   6  12
ENDBRANCH   5   9
ENDBRANCH   1   5
BRANCH   3  18
ATOM     18  C   UNL     1       8.955   0.432   6.185  0.00  0.00    +0.089 C 
BRANCH  18  19
ATOM     19  C   UNL     1      10.431   0.446   6.586  0.00  0.00    -0.051 C 
ATOM     20  C   UNL     1      10.560   0.326   8.119  0.00  0.00    -0.016 C 
ATOM     21  C   UNL     1      10.823  -1.189   8.330  0.00  0.00    -0.020 C 
ATOM     22  C   UNL     1      11.690  -1.531   7.092  0.00  0.00    -0.078 C 
ATOM     23  N   UNL     1      11.123  -0.713   5.994  0.00  0.00    +0.383 N 
ATOM     24  H   UNL     1      10.467  -1.266   5.462  0.00  0.00    -0.081 HD
BRANCH  23  25
ATOM     25  C   UNL     1      12.202  -0.248   5.112  0.00  0.00    -0.075 C 
BRANCH  25  26
ATOM     26  C   UNL     1      12.826  -1.446   4.393  0.00  0.00    -0.028 C 
ATOM     27  C   UNL     1      14.038  -0.980   3.584  0.00  0.00    +0.002 C 
ATOM     28  C   UNL     1      14.662  -2.178   2.865  0.00  0.00    +0.000 C 
ATOM     29  C   UNL     1      13.629  -2.802   1.924  0.00  0.00    +0.000 C 
ATOM     30  C   UNL     1      12.417  -3.267   2.733  0.00  0.00    +0.000 C 
ATOM     31  C   UNL     1      11.793  -2.070   3.452  0.00  0.00    +0.002 C 
ENDBRANCH  25  26
ENDBRANCH  23  25
ENDBRANCH  18  19
ENDBRANCH   3  18
TORSDOF 8
