REMARK  Name = ZINC44876208
REMARK  8 active torsions:
REMARK  status: ('A' for Active; 'I' for Inactive)
REMARK    1  A    between atoms: C_1  and  C_2
REMARK    2  A    between atoms: N_5  and  C_8
REMARK    3  A    between atoms: C_8  and  C_9
REMARK    4  A    between atoms: C_12  and  C_15
REMARK    5  A    between atoms: C_15  and  N_16
REMARK    6  A    between atoms: C_17  and  C_19
REMARK    7  A    between atoms: N_22  and  S_30
REMARK    8  A    between atoms: S_30  and  C_33
REMARK                            x       y       z     vdW  Elec       q    Type
REMARK                         _______ _______ _______ _____ _____    ______ ____
ROOT
ATOM      1  N   UNL     1       5.458  -4.367   5.155  0.00  0.00    -0.308 N 
ATOM      2  C   UNL     1       6.231  -4.502   6.251  0.00  0.00    +0.256 C 
ATOM      3  O   UNL     1       6.599  -5.603   6.601  0.00  0.00    -0.272 OA
ATOM      4  H   UNL     1       5.164  -3.486   4.875  0.00  0.00    +0.149 HD
ENDROOT
BRANCH   2   5
ATOM      5  C   UNL     1       6.639  -3.285   7.040  0.00  0.00    +0.277 C 
ATOM      6  C   UNL     1       7.548  -2.395   6.180  0.00  0.00    +0.186 C 
ATOM      7  N   UNL     1       7.960  -1.248   7.007  0.00  0.00    -0.195 N 
ATOM      8  C   UNL     1       8.315  -1.500   8.342  0.00  0.00    +0.093 A 
ATOM      9  C   UNL     1       8.976  -0.530   9.080  0.00  0.00    +0.028 A 
ATOM     10  C   UNL     1       9.320  -0.782  10.395  0.00  0.00    +0.002 A 
ATOM     11  C   UNL     1       9.007  -1.998  10.973  0.00  0.00    +0.004 A 
ATOM     12  C   UNL     1       8.349  -2.969  10.241  0.00  0.00    +0.047 A 
ATOM     13  C   UNL     1       8.000  -2.726   8.921  0.00  0.00    +0.144 A 
ATOM     14  O   UNL     1       7.358  -3.689   8.208  0.00  0.00    -0.476 OA
BRANCH   7  15
ATOM     15  S   UNL     1       8.003   0.286   6.384  0.00  0.00    +0.075 S 
ATOM     16  O   UNL     1       7.184   0.276   5.223  0.00  0.00    -0.150 OA
ATOM     17  O   UNL     1       7.774   1.172   7.471  0.00  0.00    -0.150 OA
BRANCH  15  18
ATOM     18  C   UNL     1       9.652   0.579   5.835  0.00  0.00    +0.109 A 
ATOM     19  C   UNL     1      10.583   1.120   6.701  0.00  0.00    +0.029 A 
ATOM     20  C   UNL     1      11.876   1.350   6.270  0.00  0.00    +0.002 A 
ATOM     21  C   UNL     1      12.238   1.038   4.973  0.00  0.00    +0.000 A 
ATOM     22  C   UNL     1      11.307   0.497   4.107  0.00  0.00    +0.002 A 
ATOM     23  C   UNL     1      10.015   0.263   4.539  0.00  0.00    +0.029 A 
ENDBRANCH  15  18
ENDBRANCH   7  15
ENDBRANCH   2   5
BRANCH   1  24
ATOM     24  C   UNL     1       5.061  -5.550   4.388  0.00  0.00    +0.139 C 
BRANCH  24  28
ATOM     25  C   UNL     1       2.636  -4.357   1.080  0.00  0.00    -0.064 A 
ATOM     26  C   UNL     1       4.009  -4.438   0.937  0.00  0.00    +0.002 A 
ATOM     27  C   UNL     1       4.794  -4.824   2.007  0.00  0.00    +0.005 A 
ATOM     28  C   UNL     1       4.206  -5.128   3.221  0.00  0.00    -0.030 A 
ATOM     29  C   UNL     1       2.833  -5.046   3.364  0.00  0.00    +0.005 A 
ATOM     30  C   UNL     1       2.049  -4.656   2.295  0.00  0.00    +0.002 A 
BRANCH  25  31
ATOM     31  C   UNL     1       1.781  -3.936  -0.088  0.00  0.00    -0.043 C 
BRANCH  31  36
ATOM     32  C   UNL     1       0.037   1.493  -0.066  0.00  0.00    +0.007 C 
ATOM     33  C   UNL     1       0.064  -0.036  -0.073  0.00  0.00    -0.018 C 
ATOM     34  C   UNL     1       0.803  -0.529  -1.321  0.00  0.00    -0.016 C 
ATOM     35  C   UNL     1       0.895  -2.056  -1.282  0.00  0.00    -0.078 C 
ATOM     36  N   UNL     1       1.627  -2.475  -0.081  0.00  0.00    +0.382 N 
ATOM     37  C   UNL     1       0.887  -2.069   1.120  0.00  0.00    -0.078 C 
ATOM     38  C   UNL     1       0.795  -0.542   1.174  0.00  0.00    -0.016 C 
ATOM     39  H   UNL     1       2.539  -2.043  -0.075  0.00  0.00    -0.081 HD
ENDBRANCH  31  36
ENDBRANCH  25  31
ENDBRANCH  24  28
ENDBRANCH   1  24
TORSDOF 7
