REMARK  Name = ZINC39668931
REMARK  6 active torsions:
REMARK  status: ('A' for Active; 'I' for Inactive)
REMARK    1  A    between atoms: C_10  and  C_12
REMARK    2  A    between atoms: C_12  and  N_13
REMARK    3  A    between atoms: C_14  and  C_16
REMARK    4  A    between atoms: C_27  and  C_29
REMARK    5  A    between atoms: C_29  and  C_30
REMARK    6  A    between atoms: C_30  and  C_31
REMARK                            x       y       z     vdW  Elec       q    Type
REMARK                         _______ _______ _______ _____ _____    ______ ____
ROOT
ATOM      1  C   UNL     1       8.275  -0.944  -1.852  0.00  0.00    +0.100 C 
ATOM      2  C   UNL     1       8.095  -2.434  -2.218  0.00  0.00    +0.121 C 
ATOM      3  N   UNL     1       8.333  -2.493  -3.679  0.00  0.00    -0.300 N 
ATOM      4  C   UNL     1       9.458  -1.554  -3.907  0.00  0.00    +0.115 C 
ATOM      5  C   UNL     1       9.173  -0.371  -2.961  0.00  0.00    -0.004 C 
ATOM      6  C   UNL     1       8.443   0.739  -3.712  0.00  0.00    -0.010 C 
ATOM      7  C   UNL     1       9.376   1.331  -4.771  0.00  0.00    -0.082 C 
ATOM      8  N   UNL     1      10.581   1.863  -4.122  0.00  0.00    +0.379 N 
ATOM      9  C   UNL     1      11.326   0.773  -3.481  0.00  0.00    -0.082 C 
ATOM     10  C   UNL     1      10.476   0.156  -2.367  0.00  0.00    -0.010 C 
ATOM     11  C   UNL     1       7.676  -3.232  -4.595  0.00  0.00    +0.216 C 
ATOM     12  O   UNL     1       7.992  -3.170  -5.764  0.00  0.00    -0.276 OA
ATOM     13  H   UNL     1      11.166   2.306  -4.814  0.00  0.00    -0.086 HD
ATOM     14  H   UNL     1      10.315   2.542  -3.425  0.00  0.00    -0.086 HD
ENDROOT
BRANCH   1  16
ATOM     15  N   UNL     1       6.750   0.829  -1.045  0.00  0.00    -0.312 N 
ATOM     16  C   UNL     1       6.941  -0.242  -1.841  0.00  0.00    +0.218 C 
ATOM     17  O   UNL     1       6.040  -0.640  -2.549  0.00  0.00    -0.275 OA
ATOM     18  H   UNL     1       7.471   1.147  -0.479  0.00  0.00    +0.149 HD
BRANCH  15  19
ATOM     19  C   UNL     1       5.454   1.512  -1.035  0.00  0.00    +0.140 C 
BRANCH  19  29
ATOM     20  C   UNL     1       1.721   4.677  -0.105  0.00  0.00    +0.000 A 
ATOM     21  C   UNL     1       2.316   4.271  -1.285  0.00  0.00    +0.000 A 
ATOM     22  C   UNL     1       3.537   3.628  -1.255  0.00  0.00    +0.006 A 
ATOM     23  C   UNL     1       4.169   3.385  -0.045  0.00  0.00    -0.014 A 
ATOM     24  C   UNL     1       3.573   3.785   1.132  0.00  0.00    -0.040 A 
ATOM     25  C   UNL     1       2.349   4.435   1.100  0.00  0.00    +0.004 A 
ATOM     26  C   UNL     1       4.223   3.527   2.468  0.00  0.00    +0.063 C 
ATOM     27  C   UNL     1       5.704   3.199   2.268  0.00  0.00    +0.165 C 
ATOM     28  O   UNL     1       5.814   2.196   1.251  0.00  0.00    -0.370 OA
ATOM     29  C   UNL     1       5.503   2.685  -0.053  0.00  0.00    +0.165 C 
ENDBRANCH  19  29
ENDBRANCH  15  19
ENDBRANCH   1  16
BRANCH  11  30
ATOM     30  C   UNL     1       6.549  -4.135  -4.166  0.00  0.00    +0.096 C 
BRANCH  30  31
ATOM     31  C   UNL     1       5.978  -4.855  -5.389  0.00  0.00    +0.013 C 
BRANCH  31  32
ATOM     32  C   UNL     1       4.833  -5.772  -4.954  0.00  0.00    -0.011 C 
ATOM     33  C   UNL     1       3.604  -4.935  -4.519  0.00  0.00    +0.003 C 
ATOM     34  C   UNL     1       2.430  -5.928  -4.710  0.00  0.00    +0.000 C 
ATOM     35  C   UNL     1       2.795  -6.702  -5.994  0.00  0.00    +0.000 C 
ATOM     36  C   UNL     1       4.322  -6.603  -6.149  0.00  0.00    +0.003 C 
ENDBRANCH  31  32
ENDBRANCH  30  31
ENDBRANCH  11  30
TORSDOF 6
