REMARK  Name = ZINC12935260
REMARK  6 active torsions:
REMARK  status: ('A' for Active; 'I' for Inactive)
REMARK    1  A    between atoms: C_3  and  N_29
REMARK    2  A    between atoms: C_4  and  C_10
REMARK    3  A    between atoms: C_6  and  N_7
REMARK    4  A    between atoms: C_10  and  O_12
REMARK    5  A    between atoms: O_12  and  C_13
REMARK    6  A    between atoms: C_13  and  C_14
REMARK                            x       y       z     vdW  Elec       q    Type
REMARK                         _______ _______ _______ _____ _____    ______ ____
ROOT
ATOM      1  C   UNL     1       5.126  -3.741  -0.292  0.00  0.00    +0.170 A 
ATOM      2  N   UNL     1       5.029  -4.516   0.774  0.00  0.00    -0.214 NA
ATOM      3  C   UNL     1       4.989  -5.835   0.685  0.00  0.00    +0.128 A 
ATOM      4  C   UNL     1       5.051  -6.444  -0.599  0.00  0.00    +0.051 A 
ATOM      5  C   UNL     1       5.022  -7.872  -0.936  0.00  0.00    -0.025 A 
ATOM      6  C   UNL     1       5.101  -8.187  -2.244  0.00  0.00    -0.004 A 
ATOM      7  S   UNL     1       5.205  -6.632  -3.093  0.00  0.00    -0.073 S 
ATOM      8  C   UNL     1       5.152  -5.555  -1.686  0.00  0.00    +0.114 A 
ATOM      9  N   UNL     1       5.181  -4.248  -1.508  0.00  0.00    -0.221 NA
ATOM     10  C   UNL     1       5.112  -9.551  -2.861  0.00  0.00    +0.043 C 
ATOM     11  C   UNL     1       3.960 -10.380  -2.279  0.00  0.00    +0.005 C 
ATOM     12  C   UNL     1       4.468 -11.102  -1.034  0.00  0.00    +0.001 C 
ATOM     13  C   UNL     1       5.513 -10.244  -0.324  0.00  0.00    +0.005 C 
ATOM     14  C   UNL     1       4.897  -8.934   0.152  0.00  0.00    +0.037 C 
ATOM     15  N   UNL     1       4.888  -6.612   1.825  0.00  0.00    -0.343 N 
ATOM     16  H   UNL     1       4.499  -7.499   1.775  0.00  0.00    +0.144 HD
ATOM     17  H   UNL     1       5.208  -6.270   2.675  0.00  0.00    +0.144 HD
ENDROOT
BRANCH   1  18
ATOM     18  C   UNL     1       5.166  -2.245  -0.114  0.00  0.00    +0.308 C 
BRANCH  18  19
ATOM     19  O   UNL     1       3.835  -1.726  -0.139  0.00  0.00    -0.453 OA
BRANCH  19  20
ATOM     20  C   UNL     1       3.695  -0.394   0.008  0.00  0.00    +0.341 C 
ATOM     21  O   UNL     1       4.676   0.308   0.153  0.00  0.00    -0.245 OA
BRANCH  20  25
ATOM     22  C   UNL     1      -0.178   1.351  -0.038  0.00  0.00    +0.034 A 
ATOM     23  C   UNL     1       0.935   2.167   0.004  0.00  0.00    +0.026 A 
ATOM     24  C   UNL     1       2.207   1.608   0.019  0.00  0.00    +0.039 A 
ATOM     25  C   UNL     1       2.352   0.212  -0.007  0.00  0.00    +0.082 A 
ATOM     26  C   UNL     1       1.215  -0.600  -0.049  0.00  0.00    +0.049 A 
ATOM     27  C   UNL     1      -0.037  -0.027  -0.064  0.00  0.00    +0.127 A 
BRANCH  27  28
ATOM     28  N   UNL     1      -1.240  -0.889  -0.109  0.00  0.00    +0.056 N 
ATOM     29  O   UNL     1      -2.341  -0.390  -0.122  0.00  0.00    -0.126 OA
ATOM     30  O   UNL     1      -1.122  -2.092  -0.132  0.00  0.00    -0.126 OA
ENDBRANCH  27  28
BRANCH  24  31
ATOM     31  N   UNL     1       3.328   2.426   0.060  0.00  0.00    -0.357 N 
ATOM     32  H   UNL     1       3.228   3.389  -0.004  0.00  0.00    +0.142 HD
ATOM     33  H   UNL     1       4.210   2.035   0.153  0.00  0.00    +0.142 HD
ENDBRANCH  24  31
ENDBRANCH  20  25
ENDBRANCH  19  20
ENDBRANCH  18  19
ENDBRANCH   1  18
TORSDOF 6
