REMARK  Name = ZINC35069725
REMARK  8 active torsions:
REMARK  status: ('A' for Active; 'I' for Inactive)
REMARK    1  A    between atoms: C_1  and  C_2
REMARK    2  A    between atoms: C_5  and  N_9
REMARK    3  A    between atoms: C_7  and  C_8
REMARK    4  A    between atoms: C_19  and  C_20
REMARK    5  A    between atoms: C_20  and  C_22
REMARK    6  A    between atoms: C_20  and  N_23
REMARK    7  A    between atoms: N_23  and  C_24
REMARK    8  A    between atoms: N_27  and  C_28
REMARK                            x       y       z     vdW  Elec       q    Type
REMARK                         _______ _______ _______ _____ _____    ______ ____
ROOT
ATOM      1  N   UNL     1      -0.431  -4.667  -0.193  0.00  0.00    -0.263 N 
ATOM      2  C   UNL     1      -0.325  -5.422   0.926  0.00  0.00    +0.266 A 
ATOM      3  O   UNL     1      -0.818  -5.063   1.980  0.00  0.00    -0.267 OA
ATOM      4  C   UNL     1       0.408  -6.692   0.819  0.00  0.00    +0.065 A 
ATOM      5  C   UNL     1       0.573  -7.541   1.911  0.00  0.00    +0.015 A 
ATOM      6  C   UNL     1       1.269  -8.720   1.756  0.00  0.00    +0.001 A 
ATOM      7  C   UNL     1       1.806  -9.065   0.522  0.00  0.00    +0.002 A 
ATOM      8  C   UNL     1       1.654  -8.240  -0.569  0.00  0.00    +0.028 A 
ATOM      9  C   UNL     1       0.952  -7.040  -0.437  0.00  0.00    +0.078 A 
ATOM     10  N   UNL     1       0.778  -6.198  -1.486  0.00  0.00    -0.231 NA
ATOM     11  C   UNL     1       0.121  -5.085  -1.364  0.00  0.00    +0.138 A 
ENDROOT
BRANCH   1  16
ATOM     12  C   UNL     1      -3.220   0.271  -0.002  0.00  0.00    +0.044 C 
ATOM     13  C   UNL     1      -2.479  -1.041  -0.052  0.00  0.00    -0.047 A 
ATOM     14  C   UNL     1      -1.127  -1.081   0.234  0.00  0.00    +0.005 A 
ATOM     15  C   UNL     1      -0.445  -2.281   0.188  0.00  0.00    +0.026 A 
ATOM     16  C   UNL     1      -1.119  -3.449  -0.145  0.00  0.00    +0.051 A 
ATOM     17  C   UNL     1      -2.477  -3.405  -0.431  0.00  0.00    +0.030 A 
ATOM     18  C   UNL     1      -3.154  -2.202  -0.379  0.00  0.00    -0.046 A 
ATOM     19  C   UNL     1      -4.630  -2.155  -0.683  0.00  0.00    +0.044 C 
ENDBRANCH   1  16
BRANCH  11  20
ATOM     20  C   UNL     1      -0.034  -4.208  -2.580  0.00  0.00    +0.141 C 
ATOM     21  C   UNL     1       1.220  -3.348  -2.751  0.00  0.00    +0.036 C 
BRANCH  20  22
ATOM     22  N   UNL     1      -0.216  -5.047  -3.767  0.00  0.00    -0.279 N 
ATOM     23  C   UNL     1       0.822  -6.007  -4.152  0.00  0.00    +0.134 C 
ATOM     24  C   UNL     1      -1.338  -4.936  -4.505  0.00  0.00    +0.303 C 
ATOM     25  O   UNL     1      -2.199  -4.140  -4.185  0.00  0.00    -0.253 OA
ATOM     26  N   UNL     1      -1.506  -5.708  -5.597  0.00  0.00    -0.296 N 
ATOM     27  H   UNL     1      -0.819  -6.343  -5.852  0.00  0.00    +0.151 HD
BRANCH  26  28
ATOM     28  C   UNL     1      -2.726  -5.587  -6.399  0.00  0.00    +0.074 C 
ATOM     29  C   UNL     1      -2.562  -4.449  -7.409  0.00  0.00    +0.022 C 
ATOM     30  C   UNL     1      -3.836  -4.323  -8.246  0.00  0.00    +0.002 C 
ATOM     31  C   UNL     1      -4.087  -5.635  -8.993  0.00  0.00    +0.000 C 
ATOM     32  C   UNL     1      -4.251  -6.773  -7.983  0.00  0.00    +0.002 C 
ATOM     33  C   UNL     1      -2.977  -6.899  -7.145  0.00  0.00    +0.022 C 
ENDBRANCH  26  28
ENDBRANCH  20  22
ENDBRANCH  11  20
TORSDOF 4
