REMARK  Name = ZINC67509124
REMARK  5 active torsions:
REMARK  status: ('A' for Active; 'I' for Inactive)
REMARK    1  A    between atoms: C_3  and  C_6
REMARK    2  A    between atoms: C_8  and  C_19
REMARK    3  A    between atoms: N_10  and  C_11
REMARK    4  A    between atoms: N_21  and  C_22
REMARK    5  A    between atoms: C_22  and  C_23
REMARK                            x       y       z     vdW  Elec       q    Type
REMARK                         _______ _______ _______ _____ _____    ______ ____
ROOT
ATOM      1  C   UNL     1       3.736   1.822  -0.029  0.00  0.00    +0.082 A 
ATOM      2  C   UNL     1       4.127   3.130  -0.019  0.00  0.00    +0.063 A 
ATOM      3  C   UNL     1       5.534   3.158  -0.029  0.00  0.00    +0.148 A 
ATOM      4  N   UNL     1       5.974   1.913  -0.045  0.00  0.00    -0.161 NA
ATOM      5  N   UNL     1       4.868   1.053  -0.039  0.00  0.00    -0.231 N 
ENDROOT
BRANCH   5   6
ATOM      6  C   UNL     1       4.913  -0.346  -0.046  0.00  0.00    +0.069 A 
ATOM      7  C   UNL     1       4.082  -1.065  -0.895  0.00  0.00    +0.048 A 
ATOM      8  C   UNL     1       4.129  -2.447  -0.899  0.00  0.00    +0.044 A 
ATOM      9  C   UNL     1       5.003  -3.114  -0.060  0.00  0.00    +0.040 A 
ATOM     10  C   UNL     1       5.833  -2.400   0.787  0.00  0.00    +0.044 A 
ATOM     11  C   UNL     1       5.794  -1.018   0.792  0.00  0.00    +0.048 A 
ATOM     12 CL   UNL     1       6.929  -3.240   1.839  0.00  0.00    -0.083 Cl
ATOM     13 CL   UNL     1       3.089  -3.346  -1.960  0.00  0.00    -0.083 Cl
ENDBRANCH   5   6
BRANCH   1  16
ATOM     14  C   UNL     1      -0.002   1.310  -0.288  0.00  0.00    +0.008 A 
ATOM     15  C   UNL     1       1.196   1.984  -0.374  0.00  0.00    +0.017 A 
ATOM     16  C   UNL     1       2.348   1.328  -0.024  0.00  0.00    +0.038 A 
ATOM     17  S   UNL     1       1.728  -0.281   0.439  0.00  0.00    -0.095 S 
ATOM     18  C   UNL     1      -0.006   0.021   0.139  0.00  0.00    +0.046 A 
ENDBRANCH   1  16
BRANCH   3  19
ATOM     19  C   UNL     1       6.376   4.372  -0.023  0.00  0.00    +0.265 C 
ATOM     20  O   UNL     1       5.857   5.471  -0.008  0.00  0.00    -0.268 OA
ATOM     21  N   UNL     1       7.719   4.261  -0.034  0.00  0.00    -0.301 N 
ATOM     22  H   UNL     1       8.133   3.384  -0.046  0.00  0.00    +0.150 HD
BRANCH  21  23
ATOM     23  C   UNL     1       8.553   5.465  -0.028  0.00  0.00    +0.200 C 
BRANCH  23  24
ATOM     24  C   UNL     1      10.007   5.068  -0.042  0.00  0.00    +0.228 C 
ATOM     25  O   UNL     1      10.316   3.896  -0.056  0.00  0.00    -0.274 OA
ATOM     26  N   UNL     1      10.964   6.017  -0.040  0.00  0.00    -0.328 N 
ATOM     27  H   UNL     1      10.717   6.955  -0.029  0.00  0.00    +0.145 HD
ATOM     28  H   UNL     1      11.900   5.762  -0.049  0.00  0.00    +0.145 HD
ENDBRANCH  23  24
ENDBRANCH  21  23
ENDBRANCH   3  19
TORSDOF 5
