REMARK  Name = ZINC40376300
REMARK  7 active torsions:
REMARK  status: ('A' for Active; 'I' for Inactive)
REMARK    1  A    between atoms: C_1  and  N_2
REMARK    2  A    between atoms: N_2  and  C_3
REMARK    3  A    between atoms: N_2  and  S_9
REMARK    4  A    between atoms: C_3  and  C_4
REMARK    5  A    between atoms: C_4  and  C_5
REMARK    6  A    between atoms: N_6  and  O_7
REMARK    7  A    between atoms: S_9  and  C_12
REMARK                            x       y       z     vdW  Elec       q    Type
REMARK                         _______ _______ _______ _____ _____    ______ ____
ROOT
ATOM      1  C   UNL     1      -0.018   1.461   0.010  0.00  0.00    +0.131 C 
ATOM      2  N   UNL     1       0.002  -0.004   0.002  0.00  0.00    -0.179 NA
ENDROOT
BRANCH   2   3
ATOM      3  S   UNL     1      -0.000  -0.824  -1.437  0.00  0.00    +0.063 S 
ATOM      4  O   UNL     1      -0.531  -2.115  -1.167  0.00  0.00    -0.153 OA
ATOM      5  O   UNL     1      -0.572   0.049  -2.401  0.00  0.00    -0.153 OA
BRANCH   3   6
ATOM      6  C   UNL     1       1.682  -1.059  -1.905  0.00  0.00    +0.132 A 
ATOM      7  C   UNL     1       2.219  -2.332  -1.979  0.00  0.00    +0.057 A 
ATOM      8  C   UNL     1       3.517  -2.477  -2.343  0.00  0.00    +0.081 A 
ATOM      9  S   UNL     1       4.022  -0.783  -2.596  0.00  0.00    -0.063 S 
ATOM     10  C   UNL     1       2.468   0.004  -2.205  0.00  0.00    +0.106 A 
ATOM     11 CL   UNL     1       2.068   1.693  -2.206  0.00  0.00    -0.074 Cl
ATOM     12 CL   UNL     1       4.447  -3.932  -2.517  0.00  0.00    -0.076 Cl
ENDBRANCH   3   6
ENDBRANCH   2   3
BRANCH   2  13
ATOM     13  C   UNL     1       0.024  -0.743   1.267  0.00  0.00    +0.116 C 
BRANCH  13  14
ATOM     14  C   UNL     1      -1.406  -0.912   1.784  0.00  0.00    +0.091 C 
BRANCH  14  15
ATOM     15  C   UNL     1      -1.383  -1.672   3.085  0.00  0.00    +0.133 C 
ATOM     16  N   UNL     1      -0.259  -2.067   3.583  0.00  0.00    -0.077 NA
ATOM     17  N   UNL     1      -2.562  -1.946   3.743  0.00  0.00    -0.344 N 
ATOM     18  H   UNL     1      -3.406  -1.649   3.369  0.00  0.00    +0.144 HD
ATOM     19  H   UNL     1      -2.547  -2.436   4.580  0.00  0.00    +0.144 HD
BRANCH  16  20
ATOM     20  O   UNL     1      -0.237  -2.781   4.805  0.00  0.00    -0.408 OA
ATOM     21  H   UNL     1       0.649  -3.034   5.097  0.00  0.00    +0.328 HD
ENDBRANCH  16  20
ENDBRANCH  14  15
ENDBRANCH  13  14
ENDBRANCH   2  13
TORSDOF 6
