REMARK  Name = ZINC64053115
REMARK  5 active torsions:
REMARK  status: ('A' for Active; 'I' for Inactive)
REMARK    1  A    between atoms: C_9  and  O_15
REMARK    2  A    between atoms: O_15  and  C_16
REMARK    3  A    between atoms: C_16  and  C_17
REMARK    4  A    between atoms: N_19  and  C_20
REMARK    5  A    between atoms: C_23  and  C_26
REMARK                            x       y       z     vdW  Elec       q    Type
REMARK                         _______ _______ _______ _____ _____    ______ ____
ROOT
ATOM      1  C   UNL     1       4.824  -5.032   2.094  0.00  0.00    +0.324 C 
ENDROOT
BRANCH   1   2
ATOM      2  C   UNL     1       5.265  -6.220   2.910  0.00  0.00    +0.255 C 
ATOM      3  O   UNL     1       4.469  -7.089   3.195  0.00  0.00    -0.272 OA
ATOM      4  N   UNL     1       6.545  -6.316   3.323  0.00  0.00    -0.283 N 
ATOM      5  H   UNL     1       7.197  -5.655   3.039  0.00  0.00    +0.155 HD
BRANCH   4   6
ATOM      6  C   UNL     1       6.931  -7.364   4.157  0.00  0.00    +0.034 A 
ATOM      7  C   UNL     1       6.355  -8.621   4.005  0.00  0.00    +0.024 A 
ATOM      8  C   UNL     1       6.734  -9.658   4.827  0.00  0.00    +0.015 A 
ATOM      9  C   UNL     1       7.700  -9.447   5.815  0.00  0.00    +0.037 A 
ATOM     10  C   UNL     1       8.277  -8.183   5.965  0.00  0.00    +0.015 A 
ATOM     11  C   UNL     1       7.897  -7.152   5.136  0.00  0.00    +0.024 A 
BRANCH   9  12
ATOM     12  C   UNL     1       8.109 -10.556   6.698  0.00  0.00    +0.242 C 
ATOM     13  O   UNL     1       7.606 -11.655   6.567  0.00  0.00    -0.270 OA
ATOM     14  N   UNL     1       9.041 -10.351   7.650  0.00  0.00    -0.325 N 
ATOM     15  H   UNL     1       9.442  -9.474   7.755  0.00  0.00    +0.145 HD
ATOM     16  H   UNL     1       9.309 -11.080   8.231  0.00  0.00    +0.145 HD
ENDBRANCH   9  12
ENDBRANCH   4   6
ENDBRANCH   1   2
BRANCH   1  17
ATOM     17  O   UNL     1       3.435  -5.159   1.781  0.00  0.00    -0.483 OA
BRANCH  17  25
ATOM     18  C   UNL     1       0.003   1.351  -0.032  0.00  0.00    +0.001 A 
ATOM     19  C   UNL     1       1.185   2.095  -0.047  0.00  0.00    +0.002 A 
ATOM     20  C   UNL     1       2.402   1.500  -0.065  0.00  0.00    +0.026 A 
ATOM     21  C   UNL     1       2.499   0.086  -0.070  0.00  0.00    +0.044 A 
ATOM     22  N   UNL     1       3.550  -0.722  -0.045  0.00  0.00    -0.374 N 
ATOM     23  C   UNL     1       3.079  -2.078  -0.223  0.00  0.00    +0.137 C 
ATOM     24  C   UNL     1       3.653  -3.132   0.660  0.00  0.00    +0.047 C 
ATOM     25  C   UNL     1       2.875  -4.163   1.045  0.00  0.00    +0.120 C 
ATOM     26  C   UNL     1       1.502  -4.256   0.716  0.00  0.00    +0.046 C 
ATOM     27  C   UNL     1       0.818  -3.163   0.248  0.00  0.00    +0.010 C 
ATOM     28  C   UNL     1       1.582  -2.042  -0.027  0.00  0.00    -0.012 C 
ATOM     29  C   UNL     1       1.246  -0.697  -0.041  0.00  0.00    +0.003 A 
ATOM     30  C   UNL     1       0.016  -0.006  -0.030  0.00  0.00    +0.010 A 
ATOM     31  H   UNL     1       4.474  -0.450   0.073  0.00  0.00    +0.161 HD
ENDBRANCH  17  25
ENDBRANCH   1  17
TORSDOF 5
