REMARK  Name = ZINC06193570
REMARK  10 active torsions:
REMARK  status: ('A' for Active; 'I' for Inactive)
REMARK    1  A    between atoms: C_1  and  C_2
REMARK    2  A    between atoms: C_2  and  N_69
REMARK    3  A    between atoms: C_3  and  C_4
REMARK    4  A    between atoms: C_3  and  N_69
REMARK    5  A    between atoms: C_10  and  C_12
REMARK    6  A    between atoms: C_10  and  C_26
REMARK    7  A    between atoms: C_10  and  N_69
REMARK    8  A    between atoms: C_15  and  C_25
REMARK    9  A    between atoms: C_17  and  C_24
REMARK   10  A    between atoms: N_30  and  C_31
REMARK                            x       y       z     vdW  Elec       q    Type
REMARK                         _______ _______ _______ _____ _____    ______ ____
ROOT
ATOM      1  C   UNL     1       3.489   1.519  -0.093  0.00  0.00    +0.039 C 
ENDROOT
BRANCH   1   2
ATOM      2  C   UNL     1       4.232   2.061   1.101  0.00  0.00    +0.011 A 
ATOM      3  C   UNL     1       5.033   1.242   1.827  0.00  0.00    +0.018 A 
ATOM      4  C   UNL     1       5.745   1.801   2.977  0.00  0.00    +0.002 A 
ATOM      5  C   UNL     1       6.590   1.007   3.760  0.00  0.00    -0.041 A 
ATOM      6  C   UNL     1       7.237   1.558   4.830  0.00  0.00    +0.007 A 
ATOM      7  C   UNL     1       7.063   2.898   5.148  0.00  0.00    -0.048 A 
ATOM      8  C   UNL     1       6.235   3.699   4.390  0.00  0.00    +0.029 A 
ATOM      9  C   UNL     1       5.566   3.160   3.296  0.00  0.00    +0.050 A 
ATOM     10  N   UNL     1       4.733   3.938   2.521  0.00  0.00    -0.322 N 
ATOM     11  H   UNL     1       4.607   4.904   2.748  0.00  0.00    +0.169 HD
ATOM     12  C   UNL     1       4.087   3.417   1.462  0.00  0.00    +0.251 A 
ATOM     13  O   UNL     1       3.359   4.135   0.799  0.00  0.00    -0.268 OA
ATOM     14  C   UNL     1       7.786   3.484   6.333  0.00  0.00    +0.044 C 
ATOM     15  C   UNL     1       6.786  -0.449   3.425  0.00  0.00    +0.044 C 
ENDBRANCH   1   2
BRANCH   1  16
ATOM     16  C   UNL     1       2.006   1.586   0.166  0.00  0.00    +0.143 A 
ATOM     17  N   UNL     1       1.300   2.666   0.399  0.00  0.00    -0.115 NA
ATOM     18  N   UNL     1       0.073   2.310   0.570  0.00  0.00    -0.023 NA
ATOM     19  N   UNL     1      -0.022   1.032   0.452  0.00  0.00    -0.044 NA
ATOM     20  N   UNL     1       1.149   0.549   0.203  0.00  0.00    -0.227 N 
BRANCH  20  21
ATOM     21  C   UNL     1       1.482  -0.863  -0.002  0.00  0.00    +0.111 C 
ATOM     22  C   UNL     1       0.697  -1.404  -1.199  0.00  0.00    +0.027 C 
ATOM     23  C   UNL     1       1.045  -2.878  -1.412  0.00  0.00    +0.002 C 
ATOM     24  C   UNL     1       0.677  -3.676  -0.159  0.00  0.00    +0.000 C 
ATOM     25  C   UNL     1       1.462  -3.135   1.038  0.00  0.00    +0.002 C 
ATOM     26  C   UNL     1       1.114  -1.661   1.251  0.00  0.00    +0.027 C 
ENDBRANCH  20  21
ENDBRANCH   1  16
BRANCH   1  27
ATOM     27  N   UNL     1       3.811   2.349  -1.273  0.00  0.00    +0.392 N 
ATOM     28  H   UNL     1       3.629   3.334  -1.047  0.00  0.00    -0.080 HD
BRANCH  27  30
ATOM     29  C   UNL     1       1.593   2.623  -2.262  0.00  0.00    -0.017 C 
ATOM     30  C   UNL     1       2.960   1.954  -2.416  0.00  0.00    -0.080 C 
ENDBRANCH  27  30
BRANCH  27  31
ATOM     31  C   UNL     1       5.237   2.192  -1.627  0.00  0.00    -0.042 C 
BRANCH  31  32
ATOM     32  C   UNL     1       6.058   3.075  -0.721  0.00  0.00    -0.064 A 
ATOM     33  C   UNL     1       6.002   4.449  -0.860  0.00  0.00    +0.002 A 
ATOM     34  C   UNL     1       6.751   5.258  -0.026  0.00  0.00    +0.000 A 
ATOM     35  C   UNL     1       7.563   4.693   0.939  0.00  0.00    +0.000 A 
ATOM     36  C   UNL     1       7.623   3.318   1.074  0.00  0.00    +0.000 A 
ATOM     37  C   UNL     1       6.870   2.509   0.244  0.00  0.00    +0.002 A 
ENDBRANCH  31  32
ENDBRANCH  27  31
ENDBRANCH   1  27
TORSDOF 7
