REMARK  Name = ZINC39467231
REMARK  6 active torsions:
REMARK  status: ('A' for Active; 'I' for Inactive)
REMARK    1  A    between atoms: C_1  and  S_2
REMARK    2  A    between atoms: S_2  and  C_3
REMARK    3  A    between atoms: P_12  and  C_28
REMARK    4  A    between atoms: C_20  and  C_21
REMARK    5  A    between atoms: C_26  and  O_27
REMARK    6  A    between atoms: C_33  and  O_34
REMARK                            x       y       z     vdW  Elec       q    Type
REMARK                         _______ _______ _______ _____ _____    ______ ____
ROOT
ATOM      1  C   UNL     1       0.877  -0.427   1.472  0.00  0.00    +0.012 C 
ATOM      2  C   UNL     1       1.334   0.532   2.286  0.00  0.00    -0.008 C 
ATOM      3  C   UNL     1       2.089   0.150   3.530  0.00  0.00    +0.017 C 
ATOM      4  C   UNL     1       2.977   1.299   3.992  0.00  0.00    -0.003 C 
ATOM      5  C   UNL     1       4.073   1.587   2.958  0.00  0.00    -0.020 C 
ATOM      6  C   UNL     1       4.930   2.731   3.518  0.00  0.00    +0.157 C 
ATOM      7  O   UNL     1       5.950   3.079   2.565  0.00  0.00    -0.316 OA
ATOM      8  P   UNL     1       6.858   1.873   1.957  0.00  0.00    +0.291 P 
ATOM      9  O   UNL     1       7.924   1.500   2.914  0.00  0.00    -0.269 OA
ATOM     10  N   UNL     1       5.815   0.612   1.743  0.00  0.00    -0.288 NA
ATOM     11  N   UNL     1       4.875   0.384   2.726  0.00  0.00    +0.398 N 
ATOM     12  C   UNL     1       4.027  -0.709   2.227  0.00  0.00    -0.046 C 
ATOM     13  C   UNL     1       2.969  -1.070   3.245  0.00  0.00    +0.005 C 
ATOM     14  C   UNL     1       2.111  -2.166   2.660  0.00  0.00    -0.015 C 
ATOM     15  C   UNL     1       1.108  -1.848   1.824  0.00  0.00    -0.005 C 
ATOM     16  H   UNL     1       5.863   0.050   0.953  0.00  0.00    +0.111 HD
ATOM     17  H   UNL     1       5.334   0.111   3.582  0.00  0.00    -0.055 HD
ENDROOT
BRANCH  15  18
ATOM     18  C   UNL     1       0.244  -2.909   1.253  0.00  0.00    +0.024 A 
ATOM     19  C   UNL     1      -0.732  -3.516   2.042  0.00  0.00    +0.012 A 
ATOM     20  C   UNL     1      -1.534  -4.503   1.506  0.00  0.00    +0.001 A 
ATOM     21  C   UNL     1      -1.373  -4.893   0.188  0.00  0.00    +0.004 A 
ATOM     22  C   UNL     1      -0.408  -4.298  -0.603  0.00  0.00    +0.046 A 
ATOM     23  C   UNL     1       0.400  -3.300  -0.080  0.00  0.00    +0.125 A 
BRANCH  23  24
ATOM     24  O   UNL     1       1.344  -2.710  -0.858  0.00  0.00    -0.506 OA
ATOM     25  H   UNL     1       2.204  -3.151  -0.835  0.00  0.00    +0.292 HD
ENDBRANCH  23  24
ENDBRANCH  15  18
BRANCH   8  26
ATOM     26  C   UNL     1       7.583   2.370   0.371  0.00  0.00    +0.091 A 
ATOM     27  C   UNL     1       6.900   2.134  -0.807  0.00  0.00    +0.018 A 
ATOM     28  C   UNL     1       7.453   2.512  -2.016  0.00  0.00    +0.001 A 
ATOM     29  C   UNL     1       8.690   3.129  -2.051  0.00  0.00    +0.004 A 
ATOM     30  C   UNL     1       9.377   3.368  -0.876  0.00  0.00    +0.046 A 
ATOM     31  C   UNL     1       8.822   2.994   0.339  0.00  0.00    +0.131 A 
BRANCH  31  32
ATOM     32  O   UNL     1       9.493   3.233   1.496  0.00  0.00    -0.506 OA
ATOM     33  H   UNL     1      10.082   2.515   1.765  0.00  0.00    +0.292 HD
ENDBRANCH  31  32
ENDBRANCH   8  26
BRANCH   1  35
ATOM     34  C   UNL     1      -0.022   1.810   0.012  0.00  0.00    +0.090 C 
ATOM     35  S   UNL     1       0.002  -0.004   0.002  0.00  0.00    -0.128 S 
ENDBRANCH   1  35
TORSDOF 5
