REMARK  Name = ZINC36308956
REMARK  18 active torsions:
REMARK  status: ('A' for Active; 'I' for Inactive)
REMARK    1  A    between atoms: C_1  and  C_2
REMARK    2  A    between atoms: C_2  and  C_3
REMARK    3  A    between atoms: C_2  and  C_4
REMARK    4  A    between atoms: C_4  and  O_5
REMARK    5  A    between atoms: O_5  and  C_6
REMARK    6  A    between atoms: C_6  and  C_7
REMARK    7  A    between atoms: C_7  and  C_9
REMARK    8  A    between atoms: C_7  and  O_37
REMARK    9  A    between atoms: C_9  and  N_10
REMARK   10  A    between atoms: N_10  and  C_11
REMARK   11  A    between atoms: N_10  and  C_14
REMARK   12  A    between atoms: C_11  and  C_12
REMARK   13  A    between atoms: C_14  and  C_15
REMARK   14  A    between atoms: C_25  and  C_27
REMARK   15  A    between atoms: C_27  and  O_28
REMARK   16  A    between atoms: O_28  and  C_29
REMARK   17  A    between atoms: C_33  and  O_35
REMARK   18  A    between atoms: O_35  and  C_36
REMARK                            x       y       z     vdW  Elec       q    Type
REMARK                         _______ _______ _______ _____ _____    ______ ____
ROOT
ATOM      1  C   UNL     1       8.630   0.627  -4.293  0.00  0.00    +0.200 C 
ATOM      2  O   UNL     1       8.953   1.166  -3.255  0.00  0.00    -0.278 OA
ATOM      3  N   UNL     1       9.496   0.580  -5.325  0.00  0.00    -0.292 N 
ATOM      4  C   UNL     1       9.113  -0.066  -6.589  0.00  0.00    +0.113 C 
ATOM      5  C   UNL     1       9.076   1.008  -7.688  0.00  0.00    +0.061 C 
ATOM      6  C   UNL     1      10.273   1.890  -7.535  0.00  0.00    -0.004 A 
ATOM      7  C   UNL     1      11.089   2.012  -6.454  0.00  0.00    -0.014 A 
ATOM      8  C   UNL     1      12.141   2.920  -6.563  0.00  0.00    +0.013 A 
ATOM      9  C   UNL     1      12.313   3.622  -7.706  0.00  0.00    +0.046 A 
ATOM     10  S   UNL     1      10.963   3.023  -8.712  0.00  0.00    -0.101 S 
ATOM     11  C   UNL     1      10.832   1.179  -5.205  0.00  0.00    +0.144 C 
ENDROOT
BRANCH   1  12
ATOM     12  C   UNL     1       7.262   0.009  -4.427  0.00  0.00    +0.019 C 
BRANCH  12  13
ATOM     13  N   UNL     1       6.517   0.192  -3.175  0.00  0.00    +0.389 N 
ATOM     14  H   UNL     1       7.058  -0.174  -2.405  0.00  0.00    -0.081 HD
BRANCH  13  15
ATOM     15  C   UNL     1       5.237  -0.523  -3.258  0.00  0.00    -0.044 C 
BRANCH  15  16
ATOM     16  C   UNL     1       5.495  -2.030  -3.285  0.00  0.00    +0.124 C 
BRANCH  16  17
ATOM     17  O   UNL     1       6.123  -2.384  -4.519  0.00  0.00    -0.391 OA
ATOM     18  H   UNL     1       5.599  -2.170  -5.303  0.00  0.00    +0.210 HD
ENDBRANCH  16  17
BRANCH  16  19
ATOM     19  C   UNL     1       4.167  -2.778  -3.156  0.00  0.00    +0.189 C 
BRANCH  19  20
ATOM     20  O   UNL     1       4.417  -4.182  -3.065  0.00  0.00    -0.377 OA
BRANCH  20  21
ATOM     21  C   UNL     1       3.236  -4.976  -2.941  0.00  0.00    +0.163 C 
BRANCH  21  23
ATOM     22  C   UNL     1       4.410  -6.698  -1.562  0.00  0.00    +0.009 C 
ATOM     23  C   UNL     1       3.622  -6.454  -2.851  0.00  0.00    +0.009 C 
ATOM     24  C   UNL     1       2.355  -7.313  -2.844  0.00  0.00    +0.009 C 
ENDBRANCH  21  23
ENDBRANCH  20  21
ENDBRANCH  19  20
ENDBRANCH  16  19
ENDBRANCH  15  16
ENDBRANCH  13  15
BRANCH  13  25
ATOM     25  C   UNL     1       6.266   1.623  -2.959  0.00  0.00    -0.051 C 
BRANCH  25  26
ATOM     26  C   UNL     1       5.625   1.823  -1.609  0.00  0.00    -0.053 C 
ATOM     27  C   UNL     1       6.162   2.649  -0.746  0.00  0.00    +0.002 C 
ENDBRANCH  25  26
ENDBRANCH  13  25
ENDBRANCH  12  13
ENDBRANCH   1  12
BRANCH  11  28
ATOM     28  C   UNL     1      11.886   0.075  -5.097  0.00  0.00    +0.256 C 
BRANCH  28  29
ATOM     29  O   UNL     1      11.919  -0.673  -6.314  0.00  0.00    -0.490 OA
BRANCH  29  30
ATOM     30  C   UNL     1      12.808  -1.698  -6.385  0.00  0.00    +0.124 A 
ATOM     31  C   UNL     1      13.629  -1.982  -5.302  0.00  0.00    +0.046 A 
ATOM     32  C   UNL     1      14.533  -3.023  -5.373  0.00  0.00    +0.007 A 
ATOM     33  C   UNL     1      14.624  -3.785  -6.523  0.00  0.00    +0.046 A 
ATOM     34  C   UNL     1      13.806  -3.506  -7.608  0.00  0.00    +0.124 A 
ATOM     35  C   UNL     1      12.893  -2.465  -7.537  0.00  0.00    +0.091 A 
BRANCH  34  36
ATOM     36  O   UNL     1      13.895  -4.255  -8.738  0.00  0.00    -0.495 OA
ATOM     37  C   UNL     1      14.854  -5.316  -8.739  0.00  0.00    +0.277 C 
ENDBRANCH  34  36
ENDBRANCH  29  30
ENDBRANCH  28  29
ENDBRANCH  11  28
TORSDOF 15
