REMARK  Name = ZINC39637407
REMARK  7 active torsions:
REMARK  status: ('A' for Active; 'I' for Inactive)
REMARK    1  A    between atoms: C_1  and  C_2
REMARK    2  A    between atoms: C_7  and  N_12
REMARK    3  A    between atoms: C_9  and  C_11
REMARK    4  A    between atoms: C_13  and  C_15
REMARK    5  A    between atoms: C_26  and  C_28
REMARK    6  A    between atoms: C_33  and  S_34
REMARK    7  A    between atoms: S_34  and  C_35
REMARK                            x       y       z     vdW  Elec       q    Type
REMARK                         _______ _______ _______ _____ _____    ______ ____
ROOT
ATOM      1  C   UNL     1       2.192  -0.228   6.241  0.00  0.00    +0.100 C 
ATOM      2  C   UNL     1       1.380  -1.510   6.534  0.00  0.00    +0.121 C 
ATOM      3  N   UNL     1       1.167  -1.491   8.000  0.00  0.00    -0.296 N 
ATOM      4  C   UNL     1       0.902  -0.067   8.316  0.00  0.00    +0.115 C 
ATOM      5  C   UNL     1       1.875   0.717   7.412  0.00  0.00    -0.004 C 
ATOM      6  C   UNL     1       3.151   1.055   8.178  0.00  0.00    -0.010 C 
ATOM      7  C   UNL     1       2.819   2.040   9.302  0.00  0.00    -0.082 C 
ATOM      8  N   UNL     1       2.229   3.257   8.731  0.00  0.00    +0.379 N 
ATOM      9  C   UNL     1       0.956   2.937   8.075  0.00  0.00    -0.082 C 
ATOM     10  C   UNL     1       1.208   1.990   6.899  0.00  0.00    -0.010 C 
ATOM     11  C   UNL     1       1.206  -2.533   8.854  0.00  0.00    +0.249 C 
ATOM     12  O   UNL     1       0.915  -2.371  10.024  0.00  0.00    -0.270 OA
ATOM     13  H   UNL     1       2.068   3.929   9.467  0.00  0.00    -0.086 HD
ATOM     14  H   UNL     1       2.865   3.651   8.053  0.00  0.00    -0.086 HD
ENDROOT
BRANCH  11  15
ATOM     15  C   UNL     1       1.601  -3.868   8.371  0.00  0.00    +0.069 A 
ATOM     16  C   UNL     1       1.244  -4.295   7.087  0.00  0.00    +0.017 A 
ATOM     17  C   UNL     1       1.639  -5.557   6.680  0.00  0.00    +0.020 A 
ATOM     18  C   UNL     1       2.370  -6.354   7.544  0.00  0.00    +0.112 A 
ATOM     19  N   UNL     1       2.697  -5.934   8.750  0.00  0.00    -0.248 NA
ATOM     20  C   UNL     1       2.349  -4.733   9.188  0.00  0.00    +0.114 A 
BRANCH  20  21
ATOM     21  S   UNL     1       2.819  -4.221  10.807  0.00  0.00    -0.069 S 
BRANCH  21  22
ATOM     22  C   UNL     1       3.656  -5.622  11.471  0.00  0.00    +0.014 A 
ATOM     23  C   UNL     1       5.040  -5.712  11.384  0.00  0.00    +0.015 A 
ATOM     24  C   UNL     1       5.693  -6.811  11.906  0.00  0.00    +0.001 A 
ATOM     25  C   UNL     1       4.971  -7.822  12.515  0.00  0.00    +0.000 A 
ATOM     26  C   UNL     1       3.594  -7.735  12.603  0.00  0.00    +0.001 A 
ATOM     27  C   UNL     1       2.935  -6.636  12.089  0.00  0.00    +0.015 A 
ENDBRANCH  21  22
ENDBRANCH  20  21
ENDBRANCH  11  15
BRANCH   1  29
ATOM     28  N   UNL     1       2.630   1.076   4.185  0.00  0.00    -0.312 N 
ATOM     29  C   UNL     1       1.750   0.386   4.937  0.00  0.00    +0.218 C 
ATOM     30  O   UNL     1       0.603   0.258   4.565  0.00  0.00    -0.275 OA
ATOM     31  H   UNL     1       3.547   1.178   4.483  0.00  0.00    +0.149 HD
BRANCH  28  37
ATOM     32  C   UNL     1       1.210   3.964   1.384  0.00  0.00    +0.008 C 
ATOM     33  C   UNL     1       2.657   3.482   1.256  0.00  0.00    -0.009 C 
ATOM     34  C   UNL     1       2.749   2.437   0.143  0.00  0.00    +0.003 C 
ATOM     35  C   UNL     1       1.844   1.250   0.481  0.00  0.00    +0.002 C 
ATOM     36  C   UNL     1       2.293   0.627   1.804  0.00  0.00    +0.022 C 
ATOM     37  C   UNL     1       2.200   1.673   2.918  0.00  0.00    +0.076 C 
ATOM     38  C   UNL     1       3.105   2.859   2.580  0.00  0.00    +0.009 C 
ATOM     39  C   UNL     1       3.013   3.905   3.693  0.00  0.00    +0.009 C 
ENDBRANCH  28  37
ENDBRANCH   1  29
TORSDOF 5
