REMARK  Name = ZINC40453375
REMARK  3 active torsions:
REMARK  status: ('A' for Active; 'I' for Inactive)
REMARK    1  A    between atoms: C_1  and  C_2
REMARK    2  A    between atoms: C_11  and  N_13
REMARK    3  A    between atoms: N_13  and  C_14
REMARK                            x       y       z     vdW  Elec       q    Type
REMARK                         _______ _______ _______ _____ _____    ______ ____
ROOT
ATOM      1  C   UNL     1      -0.018   1.503   0.010  0.00  0.00    +0.045 C 
ATOM      2  C   UNL     1       0.002  -0.004   0.002  0.00  0.00    -0.029 A 
ATOM      3  C   UNL     1       0.006  -0.686  -1.198  0.00  0.00    +0.005 A 
ATOM      4  C   UNL     1       0.024  -2.068  -1.216  0.00  0.00    +0.001 A 
ATOM      5  C   UNL     1       0.039  -2.773  -0.024  0.00  0.00    +0.008 A 
ATOM      6  C   UNL     1       0.036  -2.095   1.174  0.00  0.00    +0.003 A 
ATOM      7  C   UNL     1       0.023  -0.706   1.206  0.00  0.00    +0.042 A 
ATOM      8  N   UNL     1       0.029  -0.253   2.525  0.00  0.00    -0.283 N 
ATOM      9  C   UNL     1       0.052  -1.264   3.410  0.00  0.00    +0.242 C 
ATOM     10  O   UNL     1       0.062  -1.164   4.619  0.00  0.00    -0.273 OA
ATOM     11  C   UNL     1       0.049  -2.553   2.614  0.00  0.00    +0.190 C 
ATOM     12  H   UNL     1       0.019   0.684   2.776  0.00  0.00    +0.155 HD
ENDROOT
BRANCH  11  13
ATOM     13  N   UNL     1       1.264  -3.319   2.898  0.00  0.00    -0.328 N 
ATOM     14  H   UNL     1       2.063  -3.176   2.367  0.00  0.00    +0.147 HD
BRANCH  13  15
ATOM     15  C   UNL     1       1.273  -4.256   3.936  0.00  0.00    +0.048 A 
ATOM     16  C   UNL     1       0.129  -4.465   4.694  0.00  0.00    +0.046 A 
ATOM     17  C   UNL     1       0.141  -5.392   5.720  0.00  0.00    +0.061 A 
ATOM     18  C   UNL     1       1.293  -6.112   5.991  0.00  0.00    +0.061 A 
ATOM     19  C   UNL     1       2.434  -5.905   5.238  0.00  0.00    +0.043 A 
ATOM     20  C   UNL     1       2.426  -4.984   4.207  0.00  0.00    +0.063 A 
ATOM     21 CL   UNL     1       3.857  -4.730   3.257  0.00  0.00    -0.082 Cl
ATOM     22 CL   UNL     1       1.304  -7.275   7.280  0.00  0.00    -0.082 Cl
ATOM     23 CL   UNL     1      -1.290  -5.655   6.668  0.00  0.00    -0.082 Cl
ENDBRANCH  13  15
ENDBRANCH  11  13
TORSDOF 2
