REMARK  Name = ZINC14471722
REMARK  4 active torsions:
REMARK  status: ('A' for Active; 'I' for Inactive)
REMARK    1  A    between atoms: C_3  and  C_10
REMARK    2  A    between atoms: C_5  and  N_7
REMARK    3  A    between atoms: C_21  and  S_26
REMARK    4  A    between atoms: S_26  and  N_29
REMARK                            x       y       z     vdW  Elec       q    Type
REMARK                         _______ _______ _______ _____ _____    ______ ____
ROOT
ATOM      1  C   UNL     1      -4.995   1.133   0.031  0.00  0.00    +0.105 C 
ATOM      2  C   UNL     1      -5.526   1.002   1.448  0.00  0.00    +0.029 C 
ATOM      3  C   UNL     1      -4.576   0.430   2.505  0.00  0.00    +0.033 C 
ATOM      4  C   UNL     1      -5.078   1.115   3.777  0.00  0.00    -0.030 C 
ATOM      5  C   UNL     1      -5.672   2.263   3.470  0.00  0.00    -0.023 C 
ATOM      6  C   UNL     1      -5.591   2.460   2.000  0.00  0.00    +0.049 C 
ATOM      7  C   UNL     1      -6.638   3.186   1.250  0.00  0.00    -0.018 A 
ATOM      8  C   UNL     1      -7.426   4.157   1.830  0.00  0.00    +0.034 A 
ATOM      9  C   UNL     1      -8.368   4.834   1.077  0.00  0.00    +0.106 A 
ATOM     10  C   UNL     1      -8.522   4.537  -0.266  0.00  0.00    +0.030 A 
ATOM     11  C   UNL     1      -7.744   3.562  -0.854  0.00  0.00    +0.025 A 
ATOM     12  C   UNL     1      -6.799   2.871  -0.104  0.00  0.00    +0.031 A 
ATOM     13  N   UNL     1      -6.032   1.874  -0.719  0.00  0.00    -0.336 N 
ATOM     14  H   UNL     1      -6.183   1.666  -1.655  0.00  0.00    +0.147 HD
ENDROOT
BRANCH   1  17
ATOM     15  C   UNL     1      -2.527   3.986  -0.120  0.00  0.00    +0.003 A 
ATOM     16  C   UNL     1      -3.714   3.278  -0.119  0.00  0.00    +0.005 A 
ATOM     17  C   UNL     1      -3.700   1.904   0.030  0.00  0.00    -0.025 A 
ATOM     18  C   UNL     1      -2.498   1.237   0.178  0.00  0.00    +0.038 A 
ATOM     19  C   UNL     1      -1.311   1.944   0.177  0.00  0.00    +0.127 A 
ATOM     20  C   UNL     1      -1.325   3.319   0.032  0.00  0.00    +0.033 A 
BRANCH  19  21
ATOM     21  N   UNL     1      -0.024   1.230   0.336  0.00  0.00    +0.056 N 
ATOM     22  O   UNL     1      -0.012   0.020   0.468  0.00  0.00    -0.126 OA
ATOM     23  O   UNL     1       1.023   1.853   0.329  0.00  0.00    -0.126 OA
ENDBRANCH  19  21
ENDBRANCH   1  17
BRANCH   9  24
ATOM     24  S   UNL     1      -9.370   6.074   1.826  0.00  0.00    +0.061 S 
ATOM     25  O   UNL     1      -8.655   6.543   2.961  0.00  0.00    -0.153 OA
ATOM     26  O   UNL     1      -9.795   6.939   0.781  0.00  0.00    -0.153 OA
BRANCH  24  27
ATOM     27  N   UNL     1     -10.730   5.324   2.401  0.00  0.00    -0.177 NA
ATOM     28  C   UNL     1     -11.925   5.191   1.556  0.00  0.00    +0.109 C 
ATOM     29  C   UNL     1     -12.333   3.710   1.516  0.00  0.00    +0.017 C 
ATOM     30  C   UNL     1     -12.515   3.198   2.947  0.00  0.00    +0.003 C 
ATOM     31  C   UNL     1     -11.189   3.312   3.704  0.00  0.00    +0.017 C 
ATOM     32  C   UNL     1     -10.767   4.783   3.766  0.00  0.00    +0.109 C 
ENDBRANCH  24  27
ENDBRANCH   9  24
TORSDOF 4
