REMARK  Name = ZINC00921228
REMARK  9 active torsions:
REMARK  status: ('A' for Active; 'I' for Inactive)
REMARK    1  A    between atoms: C_1  and  C_2
REMARK    2  A    between atoms: C_7  and  N_8
REMARK    3  A    between atoms: N_8  and  C_9
REMARK    4  A    between atoms: C_9  and  C_11
REMARK    5  A    between atoms: C_9  and  C_18
REMARK    6  A    between atoms: C_14  and  O_17
REMARK    7  A    between atoms: N_20  and  C_21
REMARK    8  A    between atoms: C_27  and  C_29
REMARK    9  A    between atoms: C_29  and  N_30
REMARK                            x       y       z     vdW  Elec       q    Type
REMARK                         _______ _______ _______ _____ _____    ______ ____
ROOT
ATOM      1  N   UNL     1      -4.659   3.532  -1.905  0.00  0.00    -0.254 N 
ATOM      2  C   UNL     1      -4.147   4.693  -1.451  0.00  0.00    +0.242 C 
ATOM      3  O   UNL     1      -4.550   5.748  -1.895  0.00  0.00    -0.273 OA
ENDROOT
BRANCH   1  10
ATOM      4  C   UNL     1      -2.625   2.157  -3.345  0.00  0.00    +0.045 C 
ATOM      5  C   UNL     1      -3.202   1.612  -2.064  0.00  0.00    -0.029 A 
ATOM      6  C   UNL     1      -2.742   0.414  -1.554  0.00  0.00    +0.005 A 
ATOM      7  C   UNL     1      -3.275  -0.090  -0.382  0.00  0.00    +0.000 A 
ATOM      8  C   UNL     1      -4.267   0.605   0.285  0.00  0.00    +0.002 A 
ATOM      9  C   UNL     1      -4.728   1.806  -0.217  0.00  0.00    +0.024 A 
ATOM     10  C   UNL     1      -4.194   2.315  -1.394  0.00  0.00    +0.040 A 
ENDBRANCH   1  10
BRANCH   1  11
ATOM     11  C   UNL     1      -5.701   3.543  -2.935  0.00  0.00    +0.197 C 
BRANCH  11  12
ATOM     12  C   UNL     1      -6.934   4.220  -2.393  0.00  0.00    -0.018 A 
ATOM     13  C   UNL     1      -7.375   3.930  -1.115  0.00  0.00    +0.009 A 
ATOM     14  C   UNL     1      -8.502   4.553  -0.614  0.00  0.00    +0.046 A 
ATOM     15  C   UNL     1      -9.198   5.460  -1.399  0.00  0.00    +0.117 A 
ATOM     16  C   UNL     1      -8.757   5.745  -2.683  0.00  0.00    +0.046 A 
ATOM     17  C   UNL     1      -7.626   5.124  -3.177  0.00  0.00    +0.009 A 
BRANCH  15  18
ATOM     18  O   UNL     1     -10.311   6.070  -0.911  0.00  0.00    -0.507 OA
ATOM     19  H   UNL     1     -11.131   5.589  -1.087  0.00  0.00    +0.292 HD
ENDBRANCH  15  18
ENDBRANCH  11  12
BRANCH  11  20
ATOM     20  C   UNL     1      -6.036   2.127  -3.326  0.00  0.00    +0.239 C 
ATOM     21  O   UNL     1      -6.085   1.260  -2.480  0.00  0.00    -0.273 OA
ATOM     22  N   UNL     1      -6.281   1.825  -4.617  0.00  0.00    -0.311 N 
ATOM     23  H   UNL     1      -6.242   2.519  -5.293  0.00  0.00    +0.149 HD
BRANCH  22  24
ATOM     24  C   UNL     1      -6.606   0.448  -4.998  0.00  0.00    +0.073 C 
ATOM     25  C   UNL     1      -5.313  -0.341  -5.211  0.00  0.00    +0.022 C 
ATOM     26  C   UNL     1      -5.653  -1.779  -5.609  0.00  0.00    +0.002 C 
ATOM     27  C   UNL     1      -6.465  -1.771  -6.905  0.00  0.00    +0.000 C 
ATOM     28  C   UNL     1      -7.758  -0.982  -6.692  0.00  0.00    +0.002 C 
ATOM     29  C   UNL     1      -7.418   0.456  -6.294  0.00  0.00    +0.022 C 
ENDBRANCH  22  24
ENDBRANCH  11  20
ENDBRANCH   1  11
BRANCH   2  30
ATOM     30  C   UNL     1      -3.075   4.681  -0.393  0.00  0.00    +0.242 C 
BRANCH  30  31
ATOM     31  N   UNL     1      -2.689   6.058  -0.072  0.00  0.00    -0.235 N 
ATOM     32  C   UNL     1      -1.700   6.797  -0.677  0.00  0.00    +0.090 A 
ATOM     33  C   UNL     1      -0.799   6.547  -1.706  0.00  0.00    +0.029 A 
ATOM     34  C   UNL     1       0.088   7.516  -2.083  0.00  0.00    +0.002 A 
ATOM     35  C   UNL     1       0.091   8.755  -1.454  0.00  0.00    +0.002 A 
ATOM     36  C   UNL     1      -0.786   9.027  -0.446  0.00  0.00    +0.032 A 
ATOM     37  C   UNL     1      -1.702   8.048  -0.036  0.00  0.00    +0.113 A 
ATOM     38  N   UNL     1      -2.665   8.024   0.906  0.00  0.00    -0.129 NA
ATOM     39  N   UNL     1      -3.257   6.882   0.911  0.00  0.00    -0.064 NA
ENDBRANCH  30  31
ENDBRANCH   2  30
TORSDOF 8
