REMARK  Name = ZINC29465983
REMARK  7 active torsions:
REMARK  status: ('A' for Active; 'I' for Inactive)
REMARK    1  A    between atoms: C_1  and  C_2
REMARK    2  A    between atoms: C_2  and  C_3
REMARK    3  A    between atoms: C_3  and  C_4
REMARK    4  A    between atoms: C_7  and  C_10
REMARK    5  A    between atoms: C_10  and  C_26
REMARK    6  A    between atoms: N_13  and  C_17
REMARK    7  A    between atoms: C_17  and  C_18
REMARK                            x       y       z     vdW  Elec       q    Type
REMARK                         _______ _______ _______ _____ _____    ______ ____
ROOT
ATOM      1  C   UNL     1       0.686  -1.235   3.439  0.00  0.00    +0.135 C 
ATOM      2  C   UNL     1       1.147  -0.746   2.080  0.00  0.00    +0.251 C 
ATOM      3  O   UNL     1       2.290  -0.604   1.703  0.00  0.00    -0.272 OA
ATOM      4  N   UNL     1       0.022  -0.500   1.381  0.00  0.00    -0.217 N 
ATOM      5  C   UNL     1      -1.075  -0.770   2.098  0.00  0.00    +0.310 C 
ATOM      6  O   UNL     1      -2.207  -0.630   1.679  0.00  0.00    -0.252 OA
ATOM      7  N   UNL     1      -0.784  -1.212   3.335  0.00  0.00    -0.281 N 
ATOM      8  C   UNL     1       1.185  -2.658   3.696  0.00  0.00    +0.047 C 
ATOM      9  H   UNL     1      -1.401  -1.526   4.189  0.00  0.00    +0.152 HD
ENDROOT
BRANCH   1  13
ATOM     10  C   UNL     1       2.014   1.400   6.528  0.00  0.00    -0.047 A 
ATOM     11  C   UNL     1       0.793   0.760   6.642  0.00  0.00    +0.004 A 
ATOM     12  C   UNL     1       0.363  -0.092   5.643  0.00  0.00    +0.006 A 
ATOM     13  C   UNL     1       1.154  -0.305   4.529  0.00  0.00    -0.015 A 
ATOM     14  C   UNL     1       2.377   0.330   4.417  0.00  0.00    +0.006 A 
ATOM     15  C   UNL     1       2.804   1.186   5.415  0.00  0.00    +0.004 A 
BRANCH  10  16
ATOM     16  C   UNL     1       2.482   2.328   7.619  0.00  0.00    +0.035 C 
BRANCH  16  18
ATOM     17  C   UNL     1       3.759   2.479   9.761  0.00  0.00    +0.004 C 
ATOM     18  C   UNL     1       3.283   1.536   8.654  0.00  0.00    +0.001 C 
ENDBRANCH  16  18
ENDBRANCH  10  16
ENDBRANCH   1  13
BRANCH   4  19
ATOM     19  C   UNL     1       0.002  -0.004   0.002  0.00  0.00    +0.194 C 
BRANCH  19  20
ATOM     20  C   UNL     1      -0.018   1.503   0.010  0.00  0.00    +0.154 A 
ATOM     21  N   UNL     1      -1.173   2.146   0.019  0.00  0.00    -0.198 NA
ATOM     22  C   UNL     1      -1.195   3.477   0.031  0.00  0.00    +0.217 A 
ATOM     23  N   UNL     1      -0.054   4.159   0.024  0.00  0.00    -0.181 NA
ATOM     24  C   UNL     1       1.104   3.508   0.010  0.00  0.00    +0.217 A 
ATOM     25  N   UNL     1       1.118   2.177   0.003  0.00  0.00    -0.198 NA
ATOM     26  N   UNL     1       2.291   4.212   0.003  0.00  0.00    -0.327 N 
ATOM     27  N   UNL     1      -2.401   4.148   0.046  0.00  0.00    -0.327 N 
ATOM     28  H   UNL     1       3.250   3.672  -0.009  0.00  0.00    +0.145 HD
ATOM     29  H   UNL     1       2.279   5.312   0.009  0.00  0.00    +0.145 HD
ATOM     30  H   UNL     1      -2.418   5.248   0.056  0.00  0.00    +0.145 HD
ATOM     31  H   UNL     1      -3.344   3.583   0.049  0.00  0.00    +0.145 HD
ENDBRANCH  19  20
ENDBRANCH   4  19
TORSDOF 5
