REMARK  Name = ZINC54163449
REMARK  9 active torsions:
REMARK  status: ('A' for Active; 'I' for Inactive)
REMARK    1  A    between atoms: C_1  and  C_2
REMARK    2  A    between atoms: C_2  and  C_3
REMARK    3  A    between atoms: C_3  and  C_5
REMARK    4  A    between atoms: C_3  and  N_10
REMARK    5  A    between atoms: C_5  and  C_6
REMARK    6  A    between atoms: N_7  and  O_8
REMARK    7  A    between atoms: N_10  and  S_11
REMARK    8  A    between atoms: S_11  and  N_14
REMARK    9  A    between atoms: C_18  and  C_21
REMARK                            x       y       z     vdW  Elec       q    Type
REMARK                         _______ _______ _______ _____ _____    ______ ____
ROOT
ATOM      1  N   UNL     1      -0.253  -0.228  -2.416  0.00  0.00    -0.176 NA
ATOM      2  H   UNL     1      -0.815  -0.983  -2.648  0.00  0.00    +0.149 HD
ENDROOT
BRANCH   1   3
ATOM      3  S   UNL     1      -0.228   1.115  -3.384  0.00  0.00    +0.097 S 
ATOM      4  O   UNL     1      -1.343   1.006  -4.258  0.00  0.00    -0.141 OA
ATOM      5  O   UNL     1      -0.039   2.231  -2.525  0.00  0.00    -0.141 OA
BRANCH   3   6
ATOM      6  N   UNL     1       1.127   1.012  -4.330  0.00  0.00    -0.166 NA
ATOM      7  C   UNL     1       2.435   1.439  -3.814  0.00  0.00    +0.110 C 
ATOM      8  C   UNL     1       3.434   0.291  -3.993  0.00  0.00    +0.017 C 
ATOM      9  C   UNL     1       3.449  -0.142  -5.461  0.00  0.00    +0.006 C 
ATOM     10  C   UNL     1       2.059  -0.645  -5.860  0.00  0.00    +0.002 C 
ATOM     11  C   UNL     1       1.046   0.486  -5.700  0.00  0.00    +0.113 C 
ATOM     12  C   UNL     1       2.084  -1.109  -7.318  0.00  0.00    +0.009 C 
ENDBRANCH   3   6
ENDBRANCH   1   3
BRANCH   1  13
ATOM     13  C   UNL     1       0.576  -0.276  -1.208  0.00  0.00    +0.084 C 
BRANCH  13  15
ATOM     14  C   UNL     1       1.962  -2.062  -2.272  0.00  0.00    +0.005 C 
ATOM     15  C   UNL     1       1.998  -0.697  -1.582  0.00  0.00    +0.017 C 
ENDBRANCH  13  15
BRANCH  13  16
ATOM     16  C   UNL     1       0.608   1.108  -0.556  0.00  0.00    +0.095 C 
BRANCH  16  17
ATOM     17  C   UNL     1      -0.799   1.551  -0.249  0.00  0.00    +0.133 C 
ATOM     18  N   UNL     1      -1.789   0.745  -0.451  0.00  0.00    -0.077 NA
ATOM     19  N   UNL     1      -1.030   2.815   0.246  0.00  0.00    -0.344 N 
ATOM     20  H   UNL     1      -0.287   3.420   0.398  0.00  0.00    +0.144 HD
ATOM     21  H   UNL     1      -1.936   3.100   0.444  0.00  0.00    +0.144 HD
BRANCH  18  22
ATOM     22  O   UNL     1      -3.118   1.196  -0.263  0.00  0.00    -0.408 OA
ATOM     23  H   UNL     1      -3.786   0.504  -0.363  0.00  0.00    +0.328 HD
ENDBRANCH  18  22
ENDBRANCH  16  17
ENDBRANCH  13  16
ENDBRANCH   1  13
TORSDOF 7
