REMARK  Name = ZINC32345815
REMARK  8 active torsions:
REMARK  status: ('A' for Active; 'I' for Inactive)
REMARK    1  A    between atoms: C_1  and  C_2
REMARK    2  A    between atoms: C_4  and  N_21
REMARK    3  A    between atoms: C_6  and  C_7
REMARK    4  A    between atoms: N_9  and  C_10
REMARK    5  A    between atoms: C_10  and  C_11
REMARK    6  A    between atoms: C_11  and  C_13
REMARK    7  A    between atoms: C_11  and  N_14
REMARK    8  A    between atoms: C_22  and  C_24
REMARK                            x       y       z     vdW  Elec       q    Type
REMARK                         _______ _______ _______ _____ _____    ______ ____
ROOT
ATOM      1  C   UNL     1       8.460   3.224  -0.102  0.00  0.00    +0.045 C 
ATOM      2  C   UNL     1       7.755   2.070   0.564  0.00  0.00    -0.029 A 
ATOM      3  C   UNL     1       8.422   1.214   1.398  0.00  0.00    +0.035 A 
ATOM      4  C   UNL     1       7.727   0.172   1.974  0.00  0.00    +0.073 A 
ATOM      5  S   UNL     1       6.120   0.384   1.359  0.00  0.00    -0.069 S 
ATOM      6  C   UNL     1       6.403   1.835   0.360  0.00  0.00    +0.078 A 
ENDROOT
BRANCH   6   7
ATOM      7  C   UNL     1       5.455   2.582  -0.465  0.00  0.00    +0.251 C 
ATOM      8  O   UNL     1       5.827   3.560  -1.086  0.00  0.00    -0.270 OA
ATOM      9  N   UNL     1       4.168   2.186  -0.538  0.00  0.00    -0.312 N 
ATOM     10  H   UNL     1       3.832   1.302   0.024  0.00  0.00    +0.149 HD
BRANCH   9  11
ATOM     11  C   UNL     1       3.218   2.934  -1.365  0.00  0.00    +0.089 C 
BRANCH  11  12
ATOM     12  C   UNL     1       1.868   2.215  -1.367  0.00  0.00    -0.054 C 
ATOM     13  C   UNL     1       0.840   3.062  -2.120  0.00  0.00    -0.012 C 
BRANCH  12  14
ATOM     14  N   UNL     1       1.417   2.015   0.017  0.00  0.00    +0.382 N 
ATOM     15  C   UNL     1       1.115   3.309   0.669  0.00  0.00    -0.078 C 
ATOM     16  C   UNL     1      -0.280   3.795   0.383  0.00  0.00    -0.019 C 
ATOM     17  C   UNL     1      -1.205   3.321   1.524  0.00  0.00    -0.002 C 
ATOM     18  C   UNL     1      -1.579   1.918   1.383  0.00  0.00    -0.002 C 
ATOM     19  C   UNL     1      -0.353   0.982   1.423  0.00  0.00    -0.019 C 
ATOM     20  C   UNL     1       0.322   1.022   0.079  0.00  0.00    -0.078 C 
ATOM     21  H   UNL     1       2.242   1.578   0.599  0.00  0.00    -0.081 HD
ENDBRANCH  12  14
ENDBRANCH  11  12
ENDBRANCH   9  11
ENDBRANCH   6   7
BRANCH   4  22
ATOM     22  N   UNL     1       8.198  -0.808   2.836  0.00  0.00    -0.273 N 
ATOM     23  C   UNL     1       7.361  -1.755   3.302  0.00  0.00    +0.284 C 
ATOM     24  O   UNL     1       6.191  -1.752   2.966  0.00  0.00    -0.266 OA
ATOM     25  H   UNL     1       9.256  -0.811   3.140  0.00  0.00    +0.156 HD
BRANCH  23  26
ATOM     26  C   UNL     1       7.859  -2.791   4.213  0.00  0.00    +0.189 A 
ATOM     27  C   UNL     1       7.121  -3.804   4.756  0.00  0.00    +0.054 A 
ATOM     28  C   UNL     1       7.995  -4.552   5.560  0.00  0.00    +0.042 A 
ATOM     29  C   UNL     1       9.212  -3.971   5.474  0.00  0.00    +0.196 A 
ATOM     30  O   UNL     1       9.127  -2.913   4.657  0.00  0.00    -0.458 OA
ENDBRANCH  23  26
ENDBRANCH   4  22
TORSDOF 6
