REMARK  Name = ZINC37040482
REMARK  5 active torsions:
REMARK  status: ('A' for Active; 'I' for Inactive)
REMARK    1  A    between atoms: C_1  and  C_2
REMARK    2  A    between atoms: C_5  and  N_12
REMARK    3  A    between atoms: C_8  and  C_10
REMARK    4  A    between atoms: C_8  and  C_11
REMARK    5  A    between atoms: N_12  and  C_13
REMARK                            x       y       z     vdW  Elec       q    Type
REMARK                         _______ _______ _______ _____ _____    ______ ____
ROOT
ATOM      1  N   UNL     1      -2.787  -2.571   0.015  0.00  0.00    -0.340 N 
ATOM      2  H   UNL     1      -3.209  -2.812   0.855  0.00  0.00    +0.146 HD
ENDROOT
BRANCH   1   3
ATOM      3  C   UNL     1      -3.491  -2.707  -1.186  0.00  0.00    +0.046 A 
ATOM      4  C   UNL     1      -4.801  -3.183  -1.186  0.00  0.00    +0.028 A 
ATOM      5  C   UNL     1      -5.459  -3.301  -2.397  0.00  0.00    +0.048 A 
ATOM      6  C   UNL     1      -4.797  -2.944  -3.565  0.00  0.00    +0.139 A 
ATOM      7  N   UNL     1      -3.553  -2.496  -3.528  0.00  0.00    -0.236 NA
ATOM      8  C   UNL     1      -2.896  -2.365  -2.392  0.00  0.00    +0.136 A 
ATOM      9  N   UNL     1      -5.454  -3.061  -4.796  0.00  0.00    -0.290 N 
ATOM     10  C   UNL     1      -4.907  -2.847  -6.035  0.00  0.00    +0.114 A 
ATOM     11  C   UNL     1      -5.884  -3.068  -6.935  0.00  0.00    +0.130 A 
ATOM     12  N   UNL     1      -6.998  -3.407  -6.270  0.00  0.00    -0.244 NA
ATOM     13  C   UNL     1      -6.752  -3.412  -4.988  0.00  0.00    +0.205 A 
ENDBRANCH   1   3
BRANCH   1  17
ATOM     14  C   UNL     1      -0.019   1.526   0.010  0.00  0.00    +0.007 C 
ATOM     15  C   UNL     1       0.002  -0.004   0.002  0.00  0.00    -0.012 C 
ATOM     16  C   UNL     1      -1.433  -0.534   0.013  0.00  0.00    +0.025 C 
ATOM     17  C   UNL     1      -1.413  -2.063   0.004  0.00  0.00    +0.071 C 
ATOM     18  C   UNL     1      -0.673  -2.570   1.244  0.00  0.00    +0.028 C 
ATOM     19  C   UNL     1       0.763  -2.041   1.233  0.00  0.00    -0.033 C 
ATOM     20  C   UNL     1       0.742  -0.511   1.242  0.00  0.00    +0.009 C 
ATOM     21  C   UNL     1       1.503  -2.548   2.473  0.00  0.00    +0.011 C 
ATOM     22  C   UNL     1       1.479  -2.534  -0.026  0.00  0.00    +0.011 C 
ENDBRANCH   1  17
TORSDOF 2
