REMARK  Name = ZINC59311148
REMARK  4 active torsions:
REMARK  status: ('A' for Active; 'I' for Inactive)
REMARK    1  A    between atoms: C_5  and  C_7
REMARK    2  A    between atoms: C_7  and  S_8
REMARK    3  A    between atoms: S_8  and  C_9
REMARK    4  A    between atoms: N_15  and  N_16
REMARK                            x       y       z     vdW  Elec       q    Type
REMARK                         _______ _______ _______ _____ _____    ______ ____
ROOT
ATOM      1  C   UNL     1       0.831  -4.577   1.548  0.00  0.00    +0.191 A 
ATOM      2  N   UNL     1       1.095  -5.474   2.543  0.00  0.00    -0.303 N 
ATOM      3  H   UNL     1       1.244  -5.261   3.478  0.00  0.00    +0.171 HD
ATOM      4  C   UNL     1       1.114  -6.724   1.991  0.00  0.00    +0.235 A 
ATOM      5  N   UNL     1       0.871  -6.605   0.709  0.00  0.00    -0.111 NA
ATOM      6  N   UNL     1       0.686  -5.245   0.428  0.00  0.00    -0.121 NA
ATOM      7  N   UNL     1       1.348  -7.913   2.670  0.00  0.00    -0.205 N 
ATOM      8  H   UNL     1       1.520  -7.901   3.624  0.00  0.00    +0.177 HD
ENDROOT
BRANCH   7   9
ATOM      9  N   UNL     1       1.338  -9.130   1.976  0.00  0.00    -0.189 NA
ATOM     10  C   UNL     1       1.452 -10.233   2.615  0.00  0.00    +0.037 C 
ATOM     11  C   UNL     1       1.455 -10.242   4.141  0.00  0.00    +0.052 C 
ATOM     12  C   UNL     1       0.685 -11.419   4.677  0.00  0.00    +0.006 C 
ATOM     13  C   UNL     1       1.620 -12.625   4.840  0.00  0.00    +0.000 C 
ATOM     14  C   UNL     1       1.853 -13.333   3.578  0.00  0.00    +0.000 C 
ATOM     15  C   UNL     1       2.573 -12.465   2.537  0.00  0.00    +0.006 C 
ATOM     16  C   UNL     1       1.581 -11.552   1.860  0.00  0.00    +0.052 C 
ENDBRANCH   7   9
BRANCH   1  17
ATOM     17  S   UNL     1       0.700  -2.830   1.736  0.00  0.00    -0.081 S 
BRANCH  17  18
ATOM     18  C   UNL     1       0.333  -2.234   0.062  0.00  0.00    +0.114 C 
BRANCH  18  23
ATOM     19  C   UNL     1      -1.169   1.220   0.326  0.00  0.00    +0.000 A 
ATOM     20  C   UNL     1      -0.061   2.020   0.118  0.00  0.00    +0.001 A 
ATOM     21  C   UNL     1       1.175   1.444  -0.108  0.00  0.00    +0.020 A 
ATOM     22  C   UNL     1       1.303   0.066  -0.126  0.00  0.00    +0.045 A 
ATOM     23  C   UNL     1       0.194  -0.734   0.082  0.00  0.00    -0.019 A 
ATOM     24  C   UNL     1      -1.042  -0.157   0.308  0.00  0.00    +0.006 A 
ATOM     25 CL   UNL     1       2.855  -0.658  -0.411  0.00  0.00    -0.083 Cl
ENDBRANCH  18  23
ENDBRANCH  17  18
ENDBRANCH   1  17
TORSDOF 4
