REMARK  Name = ZINC46642960
REMARK  6 active torsions:
REMARK  status: ('A' for Active; 'I' for Inactive)
REMARK    1  A    between atoms: C_1  and  C_2
REMARK    2  A    between atoms: C_3  and  C_13
REMARK    3  A    between atoms: C_5  and  C_7
REMARK    4  A    between atoms: N_15  and  N_16
REMARK    5  A    between atoms: C_17  and  C_19
REMARK    6  A    between atoms: C_21  and  C_25
REMARK                            x       y       z     vdW  Elec       q    Type
REMARK                         _______ _______ _______ _____ _____    ______ ____
ROOT
ATOM      1  N   UNL     1      -0.014  -0.694  -4.911  0.00  0.00    -0.229 N 
ATOM      2  C   UNL     1      -0.007  -1.581  -5.925  0.00  0.00    +0.280 C 
ATOM      3  O   UNL     1       0.011  -2.774  -5.689  0.00  0.00    -0.267 OA
ATOM      4  H   UNL     1      -0.029   0.258  -5.099  0.00  0.00    +0.173 HD
ENDROOT
BRANCH   2   5
ATOM      5  C   UNL     1      -0.021  -1.105  -7.323  0.00  0.00    +0.149 A 
ATOM      6  C   UNL     1      -0.021  -1.912  -8.482  0.00  0.00    +0.062 A 
ATOM      7  C   UNL     1      -0.037  -1.040  -9.534  0.00  0.00    +0.068 A 
ATOM      8  N   UNL     1      -0.045   0.217  -9.003  0.00  0.00    -0.276 N 
ATOM      9  H   UNL     1      -0.056   1.038  -9.519  0.00  0.00    +0.189 HD
ATOM     10  N   UNL     1      -0.041   0.152  -7.720  0.00  0.00    -0.169 NA
BRANCH   7  11
ATOM     11  C   UNL     1      -0.043  -1.390 -10.971  0.00  0.00    +0.018 A 
ATOM     12  C   UNL     1       0.736  -2.450 -11.437  0.00  0.00    +0.011 A 
ATOM     13  C   UNL     1       0.726  -2.773 -12.778  0.00  0.00    +0.001 A 
ATOM     14  C   UNL     1      -0.053  -2.047 -13.662  0.00  0.00    +0.001 A 
ATOM     15  C   UNL     1      -0.827  -0.995 -13.208  0.00  0.00    +0.020 A 
ATOM     16  C   UNL     1      -0.831  -0.666 -11.866  0.00  0.00    +0.050 A 
ATOM     17 CL   UNL     1      -1.810   0.650 -11.296  0.00  0.00    -0.083 Cl
ENDBRANCH   7  11
ENDBRANCH   2   5
BRANCH   1  20
ATOM     18  C   UNL     1      -0.008  -0.258  -2.570  0.00  0.00    +0.269 C 
ATOM     19  O   UNL     1      -0.026   0.936  -2.807  0.00  0.00    -0.268 OA
ATOM     20  N   UNL     1      -0.001  -1.145  -3.584  0.00  0.00    -0.230 N 
ATOM     21  H   UNL     1       0.014  -2.097  -3.396  0.00  0.00    +0.173 HD
BRANCH  18  24
ATOM     22  C   UNL     1      -0.018   1.503   0.010  0.00  0.00    +0.067 C 
ATOM     23  C   UNL     1       0.002  -0.004   0.002  0.00  0.00    +0.058 A 
ATOM     24  C   UNL     1       0.006  -0.730  -1.183  0.00  0.00    +0.098 A 
ATOM     25  S   UNL     1       0.032  -2.398  -0.546  0.00  0.00    -0.062 S 
ATOM     26  C   UNL     1       0.035  -2.021   1.095  0.00  0.00    +0.109 A 
ATOM     27  N   UNL     1       0.022  -0.699   1.109  0.00  0.00    -0.243 NA
BRANCH  26  28
ATOM     28  C   UNL     1       0.053  -2.948   2.246  0.00  0.00    +0.007 A 
ATOM     29  C   UNL     1       0.046  -2.447   3.549  0.00  0.00    +0.010 A 
ATOM     30  C   UNL     1       0.063  -3.318   4.619  0.00  0.00    +0.001 A 
ATOM     31  C   UNL     1       0.086  -4.684   4.403  0.00  0.00    +0.000 A 
ATOM     32  C   UNL     1       0.093  -5.187   3.114  0.00  0.00    +0.001 A 
ATOM     33  C   UNL     1       0.070  -4.328   2.035  0.00  0.00    +0.010 A 
ENDBRANCH  26  28
ENDBRANCH  18  24
ENDBRANCH   1  20
TORSDOF 5
