REMARK  Name = ZINC09359674
REMARK  21 active torsions:
REMARK  status: ('A' for Active; 'I' for Inactive)
REMARK    1  A    between atoms: C_1  and  C_2
REMARK    2  A    between atoms: C_2  and  N_78
REMARK    3  A    between atoms: C_3  and  C_4
REMARK    4  A    between atoms: C_3  and  N_78
REMARK    5  A    between atoms: C_5  and  C_6
REMARK    6  A    between atoms: C_5  and  N_78
REMARK    7  A    between atoms: C_6  and  N_7
REMARK    8  A    between atoms: C_8  and  C_29
REMARK    9  A    between atoms: C_10  and  C_15
REMARK   10  A    between atoms: C_11  and  O_14
REMARK   11  A    between atoms: C_15  and  C_17
REMARK   12  A    between atoms: C_20  and  O_24
REMARK   13  A    between atoms: C_22  and  C_23
REMARK   14  A    between atoms: O_24  and  C_25
REMARK   15  A    between atoms: C_25  and  C_26
REMARK   16  A    between atoms: C_26  and  C_27
REMARK   17  A    between atoms: C_26  and  C_28
REMARK   18  A    between atoms: C_32  and  O_38
REMARK   19  A    between atoms: C_33  and  O_35
REMARK   20  A    between atoms: O_35  and  C_36
REMARK   21  A    between atoms: C_36  and  C_37
REMARK                            x       y       z     vdW  Elec       q    Type
REMARK                         _______ _______ _______ _____ _____    ______ ____
ROOT
ATOM      1  N   UNL     1       1.359   3.723   0.497  0.00  0.00    -0.285 N 
ATOM      2  C   UNL     1      -0.031   3.283   0.332  0.00  0.00    +0.144 C 
ATOM      3  C   UNL     1       0.009   1.774   0.275  0.00  0.00    +0.071 C 
ATOM      4  C   UNL     1       1.306   1.412   0.405  0.00  0.00    +0.188 C 
ATOM      5  C   UNL     1       2.138   2.627   0.540  0.00  0.00    +0.282 C 
ATOM      6  O   UNL     1       3.346   2.634   0.669  0.00  0.00    -0.267 OA
ENDROOT
BRANCH   2   7
ATOM      7  C   UNL     1      -0.600   3.832  -0.951  0.00  0.00    -0.019 A 
ATOM      8  C   UNL     1       0.130   3.745  -2.122  0.00  0.00    +0.009 A 
ATOM      9  C   UNL     1      -0.390   4.242  -3.302  0.00  0.00    +0.049 A 
ATOM     10  C   UNL     1      -1.640   4.840  -3.311  0.00  0.00    +0.158 A 
ATOM     11  C   UNL     1      -2.372   4.934  -2.131  0.00  0.00    +0.162 A 
ATOM     12  C   UNL     1      -1.847   4.428  -0.953  0.00  0.00    +0.055 A 
BRANCH  10  13
ATOM     13  O   UNL     1      -2.150   5.336  -4.471  0.00  0.00    -0.503 OA
ATOM     14  H   UNL     1      -1.924   6.261  -4.636  0.00  0.00    +0.292 HD
ENDBRANCH  10  13
BRANCH  11  15
ATOM     15  O   UNL     1      -3.599   5.520  -2.135  0.00  0.00    -0.489 OA
BRANCH  15  16
ATOM     16  C   UNL     1      -4.244   5.683  -0.871  0.00  0.00    +0.226 C 
ATOM     17  C   UNL     1      -5.631   6.294  -1.081  0.00  0.00    +0.048 C 
ENDBRANCH  15  16
ENDBRANCH  11  15
ENDBRANCH   2   7
BRANCH   4  18
ATOM     18  O   UNL     1       1.770   0.141   0.407  0.00  0.00    -0.502 OA
ATOM     19  H   UNL     1       2.764   0.148   0.518  0.00  0.00    +0.292 HD
ENDBRANCH   4  18
BRANCH   3  20
ATOM     20  C   UNL     1      -1.138   0.874   0.112  0.00  0.00    +0.195 C 
ATOM     21  O   UNL     1      -2.265   1.328   0.062  0.00  0.00    -0.287 OA
BRANCH  20  22
ATOM     22  C   UNL     1      -0.923  -0.583   0.009  0.00  0.00    +0.025 A 
ATOM     23  C   UNL     1      -1.224  -1.414   1.093  0.00  0.00    +0.015 A 
ATOM     24  C   UNL     1      -1.027  -2.773   0.991  0.00  0.00    +0.046 A 
ATOM     25  C   UNL     1      -0.521  -3.318  -0.184  0.00  0.00    +0.121 A 
ATOM     26  C   UNL     1      -0.216  -2.494  -1.262  0.00  0.00    +0.049 A 
ATOM     27  C   UNL     1      -0.414  -1.135  -1.170  0.00  0.00    -0.036 A 
ATOM     28  C   UNL     1      -0.084  -0.244  -2.339  0.00  0.00    +0.044 C 
BRANCH  25  29
ATOM     29  O   UNL     1      -0.323  -4.657  -0.278  0.00  0.00    -0.492 OA
BRANCH  29  30
ATOM     30  C   UNL     1      -0.761  -5.456   0.823  0.00  0.00    +0.232 C 
BRANCH  30  31
ATOM     31  C   UNL     1      -0.398  -6.920   0.566  0.00  0.00    +0.020 C 
ATOM     32  C   UNL     1      -0.764  -7.759   1.792  0.00  0.00    +0.010 C 
ATOM     33  C   UNL     1      -1.170  -7.432  -0.652  0.00  0.00    +0.010 C 
ENDBRANCH  30  31
ENDBRANCH  29  30
ENDBRANCH  25  29
ENDBRANCH  20  22
ENDBRANCH   3  20
BRANCH   1  34
ATOM     34  C   UNL     1       1.818   5.111   0.599  0.00  0.00    +0.090 C 
BRANCH  34  35
ATOM     35  C   UNL     1       2.130   5.648  -0.799  0.00  0.00    -0.060 C 
BRANCH  35  36
ATOM     36  N   UNL     1       2.571   7.054  -0.682  0.00  0.00    +0.380 N 
ATOM     37  H   UNL     1       1.879   7.575  -0.130  0.00  0.00    -0.082 HD
BRANCH  36  39
ATOM     38  C   UNL     1       4.912   6.260  -0.730  0.00  0.00    -0.017 C 
ATOM     39  C   UNL     1       3.879   7.118   0.004  0.00  0.00    -0.082 C 
ENDBRANCH  36  39
BRANCH  36  40
ATOM     40  C   UNL     1       2.674   7.665  -2.024  0.00  0.00    -0.082 C 
ATOM     41  C   UNL     1       2.758   9.184  -1.867  0.00  0.00    -0.017 C 
ENDBRANCH  36  40
ENDBRANCH  35  36
ENDBRANCH  34  35
ENDBRANCH   1  34
TORSDOF 15
