REMARK  Name = ZINC00687034
REMARK  6 active torsions:
REMARK  status: ('A' for Active; 'I' for Inactive)
REMARK    1  A    between atoms: C_1  and  C_2
REMARK    2  A    between atoms: C_9  and  N_15
REMARK    3  A    between atoms: C_10  and  C_11
REMARK    4  A    between atoms: C_11  and  O_13
REMARK    5  A    between atoms: O_13  and  C_14
REMARK    6  A    between atoms: C_16  and  C_18
REMARK                            x       y       z     vdW  Elec       q    Type
REMARK                         _______ _______ _______ _____ _____    ______ ____
ROOT
ATOM      1  C   UNL     1      -1.430  -5.475   4.671  0.00  0.00    +0.008 C 
ATOM      2  C   UNL     1      -1.688  -4.522   3.503  0.00  0.00    -0.009 C 
ATOM      3  C   UNL     1      -0.801  -3.282   3.642  0.00  0.00    +0.008 C 
ATOM      4  C   UNL     1      -1.227  -2.221   2.626  0.00  0.00    +0.037 C 
ATOM      5  C   UNL     1      -1.260  -2.856   1.241  0.00  0.00    -0.021 A 
ATOM      6  C   UNL     1      -1.319  -4.197   1.093  0.00  0.00    -0.004 A 
ATOM      7  S   UNL     1      -1.345  -4.458  -0.658  0.00  0.00    -0.077 S 
ATOM      8  C   UNL     1      -1.287  -2.810  -1.188  0.00  0.00    +0.087 A 
ATOM      9  C   UNL     1      -1.248  -2.096   0.003  0.00  0.00    +0.091 A 
ATOM     10  C   UNL     1      -1.349  -5.226   2.180  0.00  0.00    +0.046 C 
ENDROOT
BRANCH   8  11
ATOM     11  N   UNL     1      -1.281  -2.322  -2.485  0.00  0.00    -0.275 N 
ATOM     12  C   UNL     1      -1.323  -3.176  -3.526  0.00  0.00    +0.249 C 
ATOM     13  O   UNL     1      -1.367  -4.375  -3.328  0.00  0.00    -0.270 OA
ATOM     14  H   UNL     1      -1.246  -1.366  -2.643  0.00  0.00    +0.156 HD
BRANCH  12  15
ATOM     15  C   UNL     1      -1.317  -2.657  -4.907  0.00  0.00    +0.041 A 
ATOM     16  C   UNL     1      -1.272  -1.279  -5.137  0.00  0.00    +0.017 A 
ATOM     17  C   UNL     1      -1.261  -0.796  -6.427  0.00  0.00    +0.050 A 
ATOM     18  C   UNL     1      -1.304  -1.674  -7.502  0.00  0.00    +0.166 A 
ATOM     19  C   UNL     1      -1.355  -3.051  -7.279  0.00  0.00    +0.167 A 
ATOM     20  C   UNL     1      -1.361  -3.541  -5.988  0.00  0.00    +0.062 A 
ATOM     21  O   UNL     1      -1.390  -3.686  -8.487  0.00  0.00    -0.453 OA
ATOM     22  C   UNL     1      -0.948  -2.709  -9.448  0.00  0.00    +0.466 C 
ATOM     23  O   UNL     1      -1.308  -1.451  -8.848  0.00  0.00    -0.453 OA
ENDBRANCH  12  15
ENDBRANCH   8  11
BRANCH   9  24
ATOM     24  C   UNL     1      -1.191  -0.633   0.010  0.00  0.00    +0.342 C 
ATOM     25  O   UNL     1      -2.220   0.016   0.023  0.00  0.00    -0.245 OA
BRANCH  24  26
ATOM     26  O   UNL     1       0.002  -0.004   0.002  0.00  0.00    -0.464 OA
ATOM     27  C   UNL     1      -0.018   1.448   0.010  0.00  0.00    +0.280 C 
ENDBRANCH  24  26
ENDBRANCH   9  24
TORSDOF 4
