REMARK  Name = ZINC38789709
REMARK  7 active torsions:
REMARK  status: ('A' for Active; 'I' for Inactive)
REMARK    1  A    between atoms: C_1  and  C_2
REMARK    2  A    between atoms: C_2  and  C_3
REMARK    3  A    between atoms: C_2  and  C_4
REMARK    4  A    between atoms: C_2  and  C_5
REMARK    5  A    between atoms: C_12  and  C_17
REMARK    6  A    between atoms: C_17  and  N_18
REMARK    7  A    between atoms: N_18  and  C_19
REMARK                            x       y       z     vdW  Elec       q    Type
REMARK                         _______ _______ _______ _____ _____    ______ ____
ROOT
ATOM      1  C   UNL     1       0.707  -0.490  -1.238  0.00  0.00    -0.041 A 
ATOM      2  C   UNL     1       0.016  -1.291  -2.147  0.00  0.00    +0.006 A 
ATOM      3  C   UNL     1       0.585  -1.766  -3.286  0.00  0.00    +0.024 A 
ATOM      4  C   UNL     1       1.923  -1.460  -3.597  0.00  0.00    +0.040 A 
ATOM      5  N   UNL     1       2.470  -1.931  -4.718  0.00  0.00    -0.284 N 
ATOM      6  C   UNL     1       3.721  -1.683  -5.070  0.00  0.00    +0.226 C 
ATOM      7  O   UNL     1       4.166  -2.141  -6.105  0.00  0.00    -0.275 OA
ATOM      8  C   UNL     1       4.595  -0.828  -4.181  0.00  0.00    +0.115 C 
ATOM      9  C   UNL     1       3.977  -0.289  -2.905  0.00  0.00    -0.003 C 
ATOM     10  C   UNL     1       2.677  -0.616  -2.654  0.00  0.00    -0.007 A 
ATOM     11  C   UNL     1       2.001  -0.135  -1.449  0.00  0.00    +0.013 A 
ATOM     12  H   UNL     1       1.926  -2.482  -5.302  0.00  0.00    +0.155 HD
ENDROOT
BRANCH   1  14
ATOM     13  C   UNL     1      -0.019   1.526   0.010  0.00  0.00    +0.015 C 
ATOM     14  C   UNL     1       0.002  -0.004   0.002  0.00  0.00    -0.013 C 
ATOM     15  C   UNL     1       0.742  -0.511   1.242  0.00  0.00    +0.015 C 
ATOM     16  C   UNL     1      -1.433  -0.534   0.013  0.00  0.00    +0.015 C 
ENDBRANCH   1  14
BRANCH   8  17
ATOM     17  C   UNL     1       5.822  -1.655  -3.793  0.00  0.00    +0.118 C 
BRANCH  17  18
ATOM     18  N   UNL     1       6.617  -1.940  -4.991  0.00  0.00    -0.339 N 
ATOM     19  H   UNL     1       6.326  -1.611  -5.855  0.00  0.00    +0.146 HD
BRANCH  18  20
ATOM     20  C   UNL     1       7.796  -2.689  -4.887  0.00  0.00    +0.092 A 
ATOM     21  C   UNL     1       8.210  -3.163  -3.672  0.00  0.00    +0.030 A 
ATOM     22  C   UNL     1       9.395  -3.910  -3.596  0.00  0.00    +0.019 A 
ATOM     23  C   UNL     1      10.113  -4.155  -4.715  0.00  0.00    +0.086 A 
ATOM     24  N   UNL     1       9.704  -3.685  -5.924  0.00  0.00    -0.328 N 
ATOM     25  C   UNL     1       8.568  -2.969  -6.035  0.00  0.00    +0.270 A 
ATOM     26  O   UNL     1       8.210  -2.558  -7.128  0.00  0.00    -0.266 OA
ATOM     27  H   UNL     1      10.233  -3.871  -6.715  0.00  0.00    +0.168 HD
ENDBRANCH  18  20
ENDBRANCH  17  18
ENDBRANCH   8  17
TORSDOF 4
