REMARK  Name = ZINC08462813
REMARK  11 active torsions:
REMARK  status: ('A' for Active; 'I' for Inactive)
REMARK    1  A    between atoms: C_1  and  C_2
REMARK    2  A    between atoms: C_2  and  N_57
REMARK    3  A    between atoms: C_3  and  C_4
REMARK    4  A    between atoms: C_3  and  N_57
REMARK    5  A    between atoms: C_5  and  C_6
REMARK    6  A    between atoms: C_5  and  N_57
REMARK    7  A    between atoms: C_6  and  N_7
REMARK    8  A    between atoms: C_8  and  C_24
REMARK    9  A    between atoms: C_11  and  C_12
REMARK   10  A    between atoms: C_11  and  O_19
REMARK   11  A    between atoms: C_27  and  C_30
REMARK                            x       y       z     vdW  Elec       q    Type
REMARK                         _______ _______ _______ _____ _____    ______ ____
ROOT
ATOM      1  N   UNL     1      -1.840   1.274   1.137  0.00  0.00    -0.285 N 
ATOM      2  C   UNL     1      -1.270   2.433   0.445  0.00  0.00    +0.144 C 
ATOM      3  C   UNL     1       0.186   2.116   0.195  0.00  0.00    +0.071 C 
ATOM      4  C   UNL     1       1.114   2.920  -0.435  0.00  0.00    +0.133 C 
ATOM      5  C   UNL     1       0.405   0.838   0.734  0.00  0.00    +0.249 C 
ATOM      6  O   UNL     1       1.461   0.232   0.728  0.00  0.00    -0.282 OA
ATOM      7  C   UNL     1      -0.878   0.352   1.311  0.00  0.00    +0.288 C 
ATOM      8  O   UNL     1      -1.033  -0.721   1.856  0.00  0.00    -0.266 OA
ENDROOT
BRANCH   4   9
ATOM      9  C   UNL     1       0.694   4.198  -1.035  0.00  0.00    +0.017 A 
ATOM     10  C   UNL     1      -0.419   4.245  -1.881  0.00  0.00    +0.013 A 
ATOM     11  C   UNL     1      -0.810   5.445  -2.435  0.00  0.00    +0.021 A 
ATOM     12  C   UNL     1      -0.097   6.602  -2.163  0.00  0.00    +0.041 A 
ATOM     13  C   UNL     1       1.010   6.562  -1.331  0.00  0.00    +0.021 A 
ATOM     14  C   UNL     1       1.409   5.370  -0.766  0.00  0.00    +0.013 A 
ATOM     15 CL   UNL     1      -0.592   8.108  -2.870  0.00  0.00    -0.084 Cl
ENDBRANCH   4   9
BRANCH   2  16
ATOM     16  C   UNL     1      -1.390   3.665   1.305  0.00  0.00    -0.022 A 
ATOM     17  C   UNL     1      -1.028   3.615   2.638  0.00  0.00    +0.006 A 
ATOM     18  C   UNL     1      -1.134   4.745   3.426  0.00  0.00    +0.004 A 
ATOM     19  C   UNL     1      -1.610   5.924   2.883  0.00  0.00    -0.050 A 
ATOM     20  C   UNL     1      -1.977   5.973   1.551  0.00  0.00    +0.004 A 
ATOM     21  C   UNL     1      -1.867   4.843   0.762  0.00  0.00    +0.006 A 
ATOM     22  C   UNL     1      -1.729   7.156   3.743  0.00  0.00    +0.044 C 
ENDBRANCH   2  16
BRANCH   4  23
ATOM     23  O   UNL     1       2.406   2.536  -0.502  0.00  0.00    -0.506 OA
ATOM     24  H   UNL     1       2.936   3.230  -0.989  0.00  0.00    +0.292 HD
ENDBRANCH   4  23
BRANCH   1  25
ATOM     25  C   UNL     1      -3.233   1.142   1.571  0.00  0.00    +0.090 C 
BRANCH  25  26
ATOM     26  C   UNL     1      -3.379   1.692   2.991  0.00  0.00    -0.060 C 
BRANCH  26  27
ATOM     27  N   UNL     1      -4.784   1.532   3.422  0.00  0.00    +0.380 N 
ATOM     28  H   UNL     1      -5.070   0.557   3.272  0.00  0.00    -0.082 HD
BRANCH  27  30
ATOM     29  C   UNL     1      -4.387   0.670   5.675  0.00  0.00    -0.017 C 
ATOM     30  C   UNL     1      -4.911   1.854   4.859  0.00  0.00    -0.082 C 
ENDBRANCH  27  30
BRANCH  27  31
ATOM     31  C   UNL     1      -5.660   2.418   2.627  0.00  0.00    -0.082 C 
ATOM     32  C   UNL     1      -7.112   1.974   2.818  0.00  0.00    -0.017 C 
ENDBRANCH  27  31
ENDBRANCH  26  27
ENDBRANCH  25  26
ENDBRANCH   1  25
TORSDOF 8
