REMARK  Name = ZINC12630034
REMARK  5 active torsions:
REMARK  status: ('A' for Active; 'I' for Inactive)
REMARK    1  A    between atoms: C_1  and  C_2
REMARK    2  A    between atoms: C_5  and  N_8
REMARK    3  A    between atoms: N_10  and  C_23
REMARK    4  A    between atoms: C_14  and  C_15
REMARK    5  A    between atoms: C_20  and  O_21
REMARK                            x       y       z     vdW  Elec       q    Type
REMARK                         _______ _______ _______ _____ _____    ______ ____
ROOT
ATOM      1  N   UNL     1      -0.659  -4.324   0.059  0.00  0.00    -0.226 NA
ATOM      2  C   UNL     1       0.320  -4.874   0.742  0.00  0.00    +0.168 C 
ATOM      3  N   UNL     1       1.184  -4.276   1.633  0.00  0.00    -0.249 N 
ATOM      4  C   UNL     1       2.122  -4.983   2.240  0.00  0.00    +0.259 C 
ATOM      5  O   UNL     1       2.894  -4.471   3.030  0.00  0.00    -0.269 OA
ATOM      6  C   UNL     1       2.191  -6.420   1.916  0.00  0.00    +0.078 C 
ATOM      7  C   UNL     1       3.042  -7.369   2.385  0.00  0.00    +0.032 C 
ATOM      8  S   UNL     1       0.849  -6.579   0.747  0.00  0.00    -0.049 S 
ATOM      9  C   UNL     1       1.062  -2.843   1.911  0.00  0.00    +0.140 C 
ENDROOT
BRANCH   1  14
ATOM     10  C   UNL     1      -1.441   1.263   0.242  0.00  0.00    +0.044 C 
ATOM     11  C   UNL     1      -1.232  -0.228   0.193  0.00  0.00    -0.050 A 
ATOM     12  C   UNL     1      -0.094  -0.745  -0.399  0.00  0.00    +0.005 A 
ATOM     13  C   UNL     1       0.104  -2.110  -0.448  0.00  0.00    +0.028 A 
ATOM     14  C   UNL     1      -0.849  -2.970   0.104  0.00  0.00    +0.067 A 
ATOM     15  C   UNL     1      -1.995  -2.441   0.701  0.00  0.00    +0.028 A 
ATOM     16  C   UNL     1      -2.178  -1.074   0.746  0.00  0.00    +0.005 A 
ENDBRANCH   1  14
BRANCH   7  17
ATOM     17  C   UNL     1       2.808  -8.784   2.072  0.00  0.00    +0.018 A 
ATOM     18  C   UNL     1       1.546  -9.211   1.643  0.00  0.00    +0.011 A 
ATOM     19  C   UNL     1       1.334 -10.541   1.351  0.00  0.00    +0.001 A 
ATOM     20  C   UNL     1       2.365 -11.458   1.479  0.00  0.00    +0.004 A 
ATOM     21  C   UNL     1       3.616 -11.051   1.902  0.00  0.00    +0.046 A 
ATOM     22  C   UNL     1       3.850  -9.717   2.195  0.00  0.00    +0.124 A 
BRANCH  22  23
ATOM     23  O   UNL     1       5.080  -9.315   2.605  0.00  0.00    -0.506 OA
ATOM     24  H   UNL     1       5.205  -9.346   3.563  0.00  0.00    +0.292 HD
ENDBRANCH  22  23
ENDBRANCH   7  17
TORSDOF 3
