REMARK  Name = ZINC38733182
REMARK  6 active torsions:
REMARK  status: ('A' for Active; 'I' for Inactive)
REMARK    1  A    between atoms: C_1  and  C_2
REMARK    2  A    between atoms: C_2  and  C_38
REMARK    3  A    between atoms: C_7  and  C_12
REMARK    4  A    between atoms: C_12  and  N_13
REMARK    5  A    between atoms: C_14  and  C_16
REMARK    6  A    between atoms: C_22  and  C_24
REMARK                            x       y       z     vdW  Elec       q    Type
REMARK                         _______ _______ _______ _____ _____    ______ ____
ROOT
ATOM      1  C   UNL     1       4.113   2.774   5.082  0.00  0.00    +0.091 C 
ATOM      2  C   UNL     1       5.031   3.465   4.071  0.00  0.00    +0.040 C 
ATOM      3  C   UNL     1       6.173   4.132   4.781  0.00  0.00    -0.030 C 
ATOM      4  C   UNL     1       6.185   4.393   6.049  0.00  0.00    -0.030 C 
ATOM      5  C   UNL     1       5.064   4.055   6.988  0.00  0.00    +0.040 C 
ATOM      6  C   UNL     1       3.783   3.767   6.203  0.00  0.00    +0.091 C 
ENDROOT
BRANCH   6   7
ATOM      7  C   UNL     1       3.261   5.049   5.607  0.00  0.00    +0.220 C 
ATOM      8  O   UNL     1       3.984   5.735   4.916  0.00  0.00    -0.275 OA
ATOM      9  N   UNL     1       1.991   5.433   5.841  0.00  0.00    -0.298 N 
ATOM     10  C   UNL     1       1.145   4.684   6.781  0.00  0.00    +0.126 C 
ATOM     11  C   UNL     1       0.613   5.655   7.843  0.00  0.00    +0.125 C 
ATOM     12  N   UNL     1       0.050   6.831   7.164  0.00  0.00    -0.314 N 
ATOM     13  C   UNL     1       0.896   7.579   6.224  0.00  0.00    +0.125 C 
ATOM     14  C   UNL     1       1.429   6.612   5.167  0.00  0.00    +0.126 C 
ATOM     15  C   UNL     1      -1.261   7.227   7.406  0.00  0.00    +0.099 A 
ATOM     16  C   UNL     1      -2.008   6.577   8.383  0.00  0.00    +0.042 A 
ATOM     17  C   UNL     1      -3.310   6.981   8.614  0.00  0.00    +0.005 A 
ATOM     18  C   UNL     1      -3.824   8.026   7.856  0.00  0.00    +0.018 A 
ATOM     19  C   UNL     1      -3.026   8.626   6.903  0.00  0.00    +0.084 A 
ATOM     20  N   UNL     1      -1.785   8.222   6.708  0.00  0.00    -0.350 N 
ATOM     21  H   UNL     1      -1.244   8.664   6.034  0.00  0.00    +0.166 HD
ENDBRANCH   6   7
BRANCH   1  23
ATOM     22  N   UNL     1       2.892   1.471   3.370  0.00  0.00    -0.315 N 
ATOM     23  C   UNL     1       2.842   2.341   4.398  0.00  0.00    +0.217 C 
ATOM     24  O   UNL     1       1.774   2.775   4.773  0.00  0.00    -0.275 OA
ATOM     25  H   UNL     1       3.747   1.123   3.070  0.00  0.00    +0.149 HD
BRANCH  22  26
ATOM     26  C   UNL     1       1.656   1.050   2.705  0.00  0.00    +0.108 C 
BRANCH  26  32
ATOM     27  C   UNL     1       0.017   1.640  -0.083  0.00  0.00    +0.011 C 
ATOM     28  C   UNL     1       0.034   0.115  -0.120  0.00  0.00    -0.029 C 
ATOM     29  C   UNL     1       1.147  -0.503  -0.984  0.00  0.00    -0.005 C 
ATOM     30  C   UNL     1       2.450   0.295  -0.922  0.00  0.00    +0.004 C 
ATOM     31  C   UNL     1       2.803   0.745   0.489  0.00  0.00    +0.005 C 
ATOM     32  C   UNL     1       1.991   0.067   1.580  0.00  0.00    +0.010 C 
ATOM     33  C   UNL     1       0.726  -0.599   1.042  0.00  0.00    -0.000 C 
ATOM     34  C   UNL     1       1.131  -1.680   0.008  0.00  0.00    +0.008 C 
ATOM     35  C   UNL     1      -1.361  -0.451  -0.443  0.00  0.00    +0.011 C 
ENDBRANCH  26  32
ENDBRANCH  22  26
ENDBRANCH   1  23
TORSDOF 4
