REMARK  Name = ZINC63746675
REMARK  8 active torsions:
REMARK  status: ('A' for Active; 'I' for Inactive)
REMARK    1  A    between atoms: C_1  and  C_2
REMARK    2  A    between atoms: C_2  and  C_3
REMARK    3  A    between atoms: C_3  and  C_5
REMARK    4  A    between atoms: C_3  and  N_6
REMARK    5  A    between atoms: N_9  and  C_10
REMARK    6  A    between atoms: C_12  and  C_34
REMARK    7  A    between atoms: C_15  and  C_28
REMARK    8  A    between atoms: C_16  and  C_20
REMARK                            x       y       z     vdW  Elec       q    Type
REMARK                         _______ _______ _______ _____ _____    ______ ____
ROOT
ATOM      1  C   UNL     1       0.506   0.596  -5.880  0.00  0.00    +0.059 A 
ATOM      2  C   UNL     1       1.848   0.378  -5.922  0.00  0.00    +0.028 A 
ATOM      3  C   UNL     1       2.597   0.614  -7.078  0.00  0.00    -0.048 A 
ATOM      4  C   UNL     1       2.039   1.072  -8.223  0.00  0.00    +0.013 A 
ATOM      5  C   UNL     1       0.648   1.332  -8.287  0.00  0.00    +0.006 A 
ATOM      6  C   UNL     1      -0.173   1.794  -9.301  0.00  0.00    -0.000 C 
ATOM      7  C   UNL     1      -1.564   1.846  -8.708  0.00  0.00    +0.198 C 
ATOM      8  N   UNL     1      -1.431   1.385  -7.323  0.00  0.00    -0.368 N 
ATOM      9  C   UNL     1      -0.175   1.088  -7.087  0.00  0.00    +0.065 A 
ATOM     10  C   UNL     1       4.080   0.350  -7.049  0.00  0.00    +0.044 C 
ATOM     11  H   UNL     1      -2.156   1.308  -6.683  0.00  0.00    +0.161 HD
ENDROOT
BRANCH   7  12
ATOM     12  C   UNL     1      -2.088   3.258  -8.739  0.00  0.00    +0.243 C 
ATOM     13  O   UNL     1      -2.113   3.918  -7.721  0.00  0.00    -0.273 OA
ATOM     14  N   UNL     1      -2.530   3.789  -9.896  0.00  0.00    -0.295 N 
ATOM     15  C   UNL     1      -2.630   2.970 -11.115  0.00  0.00    +0.136 C 
ATOM     16  C   UNL     1      -4.032   3.155 -11.708  0.00  0.00    +0.179 C 
ATOM     17  O   UNL     1      -4.299   4.551 -11.857  0.00  0.00    -0.377 OA
ATOM     18  C   UNL     1      -4.314   5.279 -10.627  0.00  0.00    +0.179 C 
ATOM     19  C   UNL     1      -2.932   5.202  -9.978  0.00  0.00    +0.136 C 
ENDBRANCH   7  12
BRANCH   1  23
ATOM     20  N   UNL     1      -0.383  -0.684  -2.622  0.00  0.00    -0.297 N 
ATOM     21  C   UNL     1       0.247  -0.535  -3.804  0.00  0.00    +0.304 C 
ATOM     22  O   UNL     1       1.234  -1.200  -4.054  0.00  0.00    -0.253 OA
ATOM     23  N   UNL     1      -0.216   0.350  -4.708  0.00  0.00    -0.268 N 
ATOM     24  H   UNL     1      -1.170  -0.153  -2.422  0.00  0.00    +0.151 HD
ATOM     25  H   UNL     1      -1.050   0.818  -4.545  0.00  0.00    +0.156 HD
BRANCH  20  26
ATOM     26  C   UNL     1       0.121  -1.646  -1.639  0.00  0.00    +0.071 C 
ATOM     27  C   UNL     1      -0.445  -3.034  -1.948  0.00  0.00    +0.028 C 
BRANCH  26  29
ATOM     28  C   UNL     1       0.350   0.111   0.122  0.00  0.00    +0.005 C 
ATOM     29  C   UNL     1      -0.316  -1.219  -0.236  0.00  0.00    +0.019 C 
ENDBRANCH  26  29
ENDBRANCH  20  26
ENDBRANCH   1  23
BRANCH   6  30
ATOM     30  C   UNL     1       0.222   2.157 -10.663  0.00  0.00    -0.019 A 
ATOM     31  C   UNL     1       0.714   3.442 -10.936  0.00  0.00    +0.008 A 
ATOM     32  C   UNL     1       1.083   3.775 -12.221  0.00  0.00    +0.001 A 
ATOM     33  C   UNL     1       0.970   2.845 -13.241  0.00  0.00    +0.000 A 
ATOM     34  C   UNL     1       0.486   1.574 -12.981  0.00  0.00    +0.001 A 
ATOM     35  C   UNL     1       0.117   1.221 -11.702  0.00  0.00    +0.008 A 
ENDBRANCH   6  30
TORSDOF 5
