REMARK  Name = ZINC18192246
REMARK  5 active torsions:
REMARK  status: ('A' for Active; 'I' for Inactive)
REMARK    1  A    between atoms: C_7  and  C_11
REMARK    2  A    between atoms: C_11  and  C_12
REMARK    3  A    between atoms: C_12  and  C_13
REMARK    4  A    between atoms: C_13  and  C_14
REMARK    5  A    between atoms: N_16  and  N_17
REMARK                            x       y       z     vdW  Elec       q    Type
REMARK                         _______ _______ _______ _____ _____    ______ ____
ROOT
ATOM      1  C   UNL     1      -5.017   0.054  -2.774  0.00  0.00    +0.232 C 
ATOM      2  O   UNL     1      -4.261  -0.206  -3.685  0.00  0.00    -0.274 OA
ATOM      3  N   UNL     1      -6.318   0.299  -3.028  0.00  0.00    -0.206 N 
ATOM      4  H   UNL     1      -6.923   0.507  -2.299  0.00  0.00    +0.177 HD
ENDROOT
BRANCH   3   5
ATOM      5  N   UNL     1      -6.796   0.253  -4.344  0.00  0.00    -0.175 NA
ATOM      6  C   UNL     1      -8.080   0.371  -4.579  0.00  0.00    +0.152 C 
ATOM      7  C   UNL     1      -9.178   0.431  -3.586  0.00  0.00    +0.028 A 
ATOM      8  C   UNL     1      -9.208   0.384  -2.197  0.00  0.00    +0.012 A 
ATOM      9  C   UNL     1     -10.417   0.465  -1.536  0.00  0.00    +0.001 A 
ATOM     10  C   UNL     1     -11.594   0.592  -2.254  0.00  0.00    +0.002 A 
ATOM     11  C   UNL     1     -11.574   0.639  -3.633  0.00  0.00    +0.024 A 
ATOM     12  C   UNL     1     -10.366   0.559  -4.317  0.00  0.00    +0.043 A 
ATOM     13  N   UNL     1     -10.070   0.581  -5.676  0.00  0.00    -0.280 N 
ATOM     14  C   UNL     1      -8.748   0.481  -5.892  0.00  0.00    +0.269 C 
ATOM     15  O   UNL     1      -8.198   0.480  -6.978  0.00  0.00    -0.268 OA
ATOM     16  H   UNL     1     -10.734   0.663  -6.378  0.00  0.00    +0.155 HD
ENDBRANCH   3   5
BRANCH   1  17
ATOM     17  C   UNL     1      -4.503   0.104  -1.359  0.00  0.00    +0.098 C 
BRANCH  17  18
ATOM     18  C   UNL     1      -3.005  -0.209  -1.349  0.00  0.00    +0.014 C 
BRANCH  18  19
ATOM     19  C   UNL     1      -2.483  -0.159   0.088  0.00  0.00    +0.038 C 
BRANCH  19  26
ATOM     20  C   UNL     1       1.347   2.466  -0.557  0.00  0.00    +0.001 A 
ATOM     21  C   UNL     1       2.525   1.738  -0.455  0.00  0.00    +0.002 A 
ATOM     22  C   UNL     1       2.495   0.387  -0.189  0.00  0.00    +0.026 A 
ATOM     23  C   UNL     1       1.273  -0.257  -0.021  0.00  0.00    +0.047 A 
ATOM     24  C   UNL     1       0.083   0.484  -0.125  0.00  0.00    +0.003 A 
ATOM     25  C   UNL     1       0.136   1.853  -0.395  0.00  0.00    +0.010 A 
ATOM     26  C   UNL     1      -1.008  -0.467   0.098  0.00  0.00    -0.022 A 
ATOM     27  C   UNL     1      -0.445  -1.667   0.314  0.00  0.00    +0.087 A 
ATOM     28  N   UNL     1       0.918  -1.560   0.247  0.00  0.00    -0.360 N 
ATOM     29  H   UNL     1       1.540  -2.294   0.369  0.00  0.00    +0.165 HD
ENDBRANCH  19  26
ENDBRANCH  18  19
ENDBRANCH  17  18
ENDBRANCH   1  17
TORSDOF 5
