REMARK  Name = ZINC35070314
REMARK  14 active torsions:
REMARK  status: ('A' for Active; 'I' for Inactive)
REMARK    1  A    between atoms: C_1  and  C_2
REMARK    2  A    between atoms: C_5  and  N_9
REMARK    3  A    between atoms: C_6  and  C_8
REMARK    4  A    between atoms: C_19  and  C_20
REMARK    5  A    between atoms: C_20  and  C_22
REMARK    6  A    between atoms: C_20  and  N_23
REMARK    7  A    between atoms: N_23  and  C_24
REMARK    8  A    between atoms: C_24  and  C_25
REMARK    9  A    between atoms: C_25  and  N_26
REMARK   10  A    between atoms: N_26  and  C_27
REMARK   11  A    between atoms: N_26  and  C_28
REMARK   12  A    between atoms: N_31  and  C_32
REMARK   13  A    between atoms: C_35  and  S_38
REMARK   14  A    between atoms: S_38  and  C_39
REMARK                            x       y       z     vdW  Elec       q    Type
REMARK                         _______ _______ _______ _____ _____    ______ ____
ROOT
ATOM      1  C   UNL     1       2.286  -4.143   0.041  0.00  0.00    +0.141 C 
ATOM      2  C   UNL     1       1.974  -2.991  -0.917  0.00  0.00    +0.036 C 
ENDROOT
BRANCH   1  13
ATOM      3  N   UNL     1       0.570  -5.539   1.125  0.00  0.00    -0.263 N 
ATOM      4  C   UNL     1      -0.429  -6.451   1.112  0.00  0.00    +0.266 A 
ATOM      5  O   UNL     1      -0.991  -6.788   2.139  0.00  0.00    -0.267 OA
ATOM      6  C   UNL     1      -0.811  -7.019  -0.189  0.00  0.00    +0.065 A 
ATOM      7  C   UNL     1      -1.827  -7.965  -0.310  0.00  0.00    +0.015 A 
ATOM      8  C   UNL     1      -2.144  -8.465  -1.554  0.00  0.00    +0.001 A 
ATOM      9  C   UNL     1      -1.460  -8.034  -2.684  0.00  0.00    +0.002 A 
ATOM     10  C   UNL     1      -0.453  -7.101  -2.585  0.00  0.00    +0.028 A 
ATOM     11  C   UNL     1      -0.113  -6.579  -1.335  0.00  0.00    +0.078 A 
ATOM     12  N   UNL     1       0.872  -5.657  -1.193  0.00  0.00    -0.231 NA
ATOM     13  C   UNL     1       1.184  -5.168  -0.031  0.00  0.00    +0.138 A 
BRANCH   3  18
ATOM     14  C   UNL     1       2.198  -3.220   6.042  0.00  0.00    +0.044 C 
ATOM     15  C   UNL     1       1.765  -3.836   4.736  0.00  0.00    -0.050 A 
ATOM     16  C   UNL     1       0.843  -3.184   3.938  0.00  0.00    +0.005 A 
ATOM     17  C   UNL     1       0.445  -3.746   2.741  0.00  0.00    +0.027 A 
ATOM     18  C   UNL     1       0.972  -4.966   2.338  0.00  0.00    +0.054 A 
ATOM     19  C   UNL     1       1.898  -5.618   3.142  0.00  0.00    -0.026 A 
ATOM     20  C   UNL     1       2.296  -5.048   4.335  0.00  0.00    +0.008 A 
ATOM     21  C   UNL     1       2.473  -6.942   2.709  0.00  0.00    +0.046 C 
ENDBRANCH   3  18
ENDBRANCH   1  13
BRANCH   1  22
ATOM     22  N   UNL     1       3.557  -4.765  -0.340  0.00  0.00    -0.277 N 
ATOM     23  C   UNL     1       4.583  -4.790   0.533  0.00  0.00    +0.307 C 
ATOM     24  O   UNL     1       4.454  -4.297   1.637  0.00  0.00    -0.252 OA
ATOM     25  N   UNL     1       5.752  -5.362   0.183  0.00  0.00    -0.269 N 
ATOM     26  H   UNL     1       5.832  -5.821  -0.668  0.00  0.00    +0.156 HD
BRANCH  25  27
ATOM     27  C   UNL     1       6.853  -5.293   1.048  0.00  0.00    +0.035 A 
ATOM     28  C   UNL     1       7.763  -6.341   1.098  0.00  0.00    +0.024 A 
ATOM     29  C   UNL     1       8.847  -6.274   1.950  0.00  0.00    +0.016 A 
ATOM     30  C   UNL     1       9.028  -5.158   2.757  0.00  0.00    +0.008 A 
ATOM     31  C   UNL     1       8.117  -4.109   2.707  0.00  0.00    +0.016 A 
ATOM     32  C   UNL     1       7.036  -4.175   1.851  0.00  0.00    +0.024 A 
BRANCH  30  33
ATOM     33  S   UNL     1      10.412  -5.071   3.844  0.00  0.00    -0.129 S 
ATOM     34  C   UNL     1      10.223  -3.466   4.669  0.00  0.00    +0.090 C 
ENDBRANCH  30  33
ENDBRANCH  25  27
BRANCH  22  35
ATOM     35  C   UNL     1       3.712  -5.359  -1.670  0.00  0.00    +0.091 C 
BRANCH  35  36
ATOM     36  C   UNL     1       4.232  -4.300  -2.644  0.00  0.00    -0.060 C 
BRANCH  36  37
ATOM     37  N   UNL     1       4.388  -4.895  -3.978  0.00  0.00    +0.377 N 
ATOM     38  C   UNL     1       4.772  -3.852  -4.938  0.00  0.00    -0.097 C 
ATOM     39  C   UNL     1       5.431  -5.929  -3.934  0.00  0.00    -0.097 C 
ATOM     40  H   UNL     1       3.515  -5.311  -4.265  0.00  0.00    -0.083 HD
ENDBRANCH  36  37
ENDBRANCH  35  36
ENDBRANCH  22  35
ENDBRANCH   1  22
TORSDOF 8
