REMARK  Name = ZINC36544002
REMARK  9 active torsions:
REMARK  status: ('A' for Active; 'I' for Inactive)
REMARK    1  A    between atoms: C_1  and  C_2
REMARK    2  A    between atoms: C_5  and  S_8
REMARK    3  A    between atoms: S_8  and  C_11
REMARK    4  A    between atoms: C_11  and  N_12
REMARK    5  A    between atoms: C_13  and  C_15
REMARK    6  A    between atoms: C_15  and  C_17
REMARK    7  A    between atoms: C_15  and  N_23
REMARK    8  A    between atoms: N_23  and  C_24
REMARK    9  A    between atoms: C_31  and  C_33
REMARK                            x       y       z     vdW  Elec       q    Type
REMARK                         _______ _______ _______ _____ _____    ______ ____
ROOT
ATOM      1  C   UNL     1       3.374  -4.837   3.788  0.00  0.00    +0.198 C 
ENDROOT
BRANCH   1   2
ATOM      2  C   UNL     1       2.519  -3.956   4.661  0.00  0.00    -0.018 A 
ATOM      3  C   UNL     1       1.562  -4.520   5.484  0.00  0.00    +0.006 A 
ATOM      4  C   UNL     1       0.777  -3.712   6.286  0.00  0.00    +0.000 A 
ATOM      5  C   UNL     1       0.949  -2.340   6.264  0.00  0.00    +0.000 A 
ATOM      6  C   UNL     1       1.907  -1.777   5.442  0.00  0.00    +0.000 A 
ATOM      7  C   UNL     1       2.695  -2.585   4.644  0.00  0.00    +0.006 A 
ENDBRANCH   1   2
BRANCH   1   9
ATOM      8  N   UNL     1       1.702  -5.093   1.984  0.00  0.00    -0.294 N 
ATOM      9  C   UNL     1       2.490  -5.680   2.905  0.00  0.00    +0.240 C 
ATOM     10  O   UNL     1       2.489  -6.887   3.025  0.00  0.00    -0.273 OA
ATOM     11  H   UNL     1       1.756  -4.136   1.838  0.00  0.00    +0.150 HD
BRANCH   8  12
ATOM     12  C   UNL     1       0.762  -5.901   1.202  0.00  0.00    +0.278 C 
BRANCH  12  13
ATOM     13  S   UNL     1      -0.876  -5.844   1.979  0.00  0.00    +0.013 S 
ATOM     14  O   UNL     1      -0.764  -6.079   3.376  0.00  0.00    -0.168 OA
ATOM     15  O   UNL     1      -1.815  -6.569   1.196  0.00  0.00    -0.168 OA
BRANCH  13  20
ATOM     16  C   UNL     1      -2.613  -0.084   1.521  0.00  0.00    +0.044 C 
ATOM     17  C   UNL     1      -2.179  -1.522   1.635  0.00  0.00    -0.050 A 
ATOM     18  C   UNL     1      -2.488  -2.420   0.630  0.00  0.00    +0.005 A 
ATOM     19  C   UNL     1      -2.090  -3.739   0.735  0.00  0.00    +0.027 A 
ATOM     20  C   UNL     1      -1.382  -4.162   1.845  0.00  0.00    +0.090 A 
ATOM     21  C   UNL     1      -1.072  -3.264   2.849  0.00  0.00    +0.027 A 
ATOM     22  C   UNL     1      -1.466  -1.944   2.742  0.00  0.00    +0.005 A 
ENDBRANCH  13  20
ENDBRANCH  12  13
ENDBRANCH   8  12
ENDBRANCH   1   9
BRANCH   1  23
ATOM     23  N   UNL     1       4.197  -5.708   4.630  0.00  0.00    -0.247 N 
ATOM     24  C   UNL     1       5.132  -6.500   4.069  0.00  0.00    +0.287 C 
ATOM     25  O   UNL     1       5.758  -7.284   4.758  0.00  0.00    -0.266 OA
BRANCH  23  26
ATOM     26  C   UNL     1       4.013  -5.718   6.017  0.00  0.00    +0.056 A 
ATOM     27  C   UNL     1       3.199  -6.678   6.604  0.00  0.00    +0.025 A 
ATOM     28  C   UNL     1       3.019  -6.685   7.973  0.00  0.00    +0.002 A 
ATOM     29  C   UNL     1       3.647  -5.737   8.760  0.00  0.00    +0.002 A 
ATOM     30  C   UNL     1       4.458  -4.779   8.180  0.00  0.00    +0.022 A 
ATOM     31  C   UNL     1       4.648  -4.770   6.811  0.00  0.00    +0.062 A 
ATOM     32 CL   UNL     1       5.671  -3.572   6.083  0.00  0.00    -0.082 Cl
ENDBRANCH  23  26
BRANCH  24  33
ATOM     33  C   UNL     1       5.395  -6.418   2.629  0.00  0.00    +0.190 A 
ATOM     34  C   UNL     1       6.225  -7.236   1.916  0.00  0.00    +0.054 A 
ATOM     35  C   UNL     1       6.174  -6.799   0.583  0.00  0.00    +0.042 A 
ATOM     36  C   UNL     1       5.327  -5.747   0.541  0.00  0.00    +0.196 A 
ATOM     37  O   UNL     1       4.855  -5.524   1.774  0.00  0.00    -0.458 OA
ENDBRANCH  24  33
ENDBRANCH   1  23
TORSDOF 8
