REMARK  Name = ZINC61629278
REMARK  4 active torsions:
REMARK  status: ('A' for Active; 'I' for Inactive)
REMARK    1  A    between atoms: C_5  and  N_7
REMARK    2  A    between atoms: C_8  and  S_15
REMARK    3  A    between atoms: C_10  and  C_12
REMARK    4  A    between atoms: S_15  and  N_18
REMARK                            x       y       z     vdW  Elec       q    Type
REMARK                         _______ _______ _______ _____ _____    ______ ____
ROOT
ATOM      1  N   UNL     1       1.241  -2.084   0.039  0.00  0.00    -0.212 N 
ATOM      2  C   UNL     1       0.160  -2.896   0.074  0.00  0.00    +0.197 A 
ATOM      3  C   UNL     1       0.600  -4.171  -0.033  0.00  0.00    +0.079 A 
ATOM      4  C   UNL     1       1.994  -4.140  -0.137  0.00  0.00    +0.130 A 
ATOM      5  N   UNL     1       2.380  -2.889  -0.100  0.00  0.00    -0.164 NA
ENDROOT
BRANCH   1  10
ATOM      6  C   UNL     1       0.496   1.323   1.209  0.00  0.00    +0.002 A 
ATOM      7  C   UNL     1       1.194   2.078   0.284  0.00  0.00    +0.002 A 
ATOM      8  C   UNL     1       1.907   1.455  -0.723  0.00  0.00    +0.022 A 
ATOM      9  C   UNL     1       1.926   0.075  -0.807  0.00  0.00    +0.066 A 
ATOM     10  C   UNL     1       1.226  -0.685   0.121  0.00  0.00    +0.086 A 
ATOM     11  C   UNL     1       0.510  -0.055   1.131  0.00  0.00    +0.029 A 
ATOM     12 CL   UNL     1       2.822  -0.707  -2.072  0.00  0.00    -0.081 Cl
ENDBRANCH   1  10
BRANCH   4  13
ATOM     13  C   UNL     1       2.897  -5.338  -0.275  0.00  0.00    +0.391 C 
ATOM     14  F   UNL     1       4.137  -5.058   0.309  0.00  0.00    -0.202 F 
ATOM     15  F   UNL     1       2.316  -6.436   0.368  0.00  0.00    -0.202 F 
ENDBRANCH   4  13
BRANCH   2  16
ATOM     16  S   UNL     1      -1.518  -2.385   0.232  0.00  0.00    +0.073 S 
ATOM     17  O   UNL     1      -1.788  -2.299   1.625  0.00  0.00    -0.152 OA
ATOM     18  O   UNL     1      -1.691  -1.281  -0.646  0.00  0.00    -0.152 OA
BRANCH  16  19
ATOM     19  N   UNL     1      -2.461  -3.611  -0.358  0.00  0.00    -0.202 NA
ATOM     20  H   UNL     1      -2.048  -4.418  -0.702  0.00  0.00    +0.144 HD
ATOM     21  H   UNL     1      -3.427  -3.523  -0.359  0.00  0.00    +0.144 HD
ENDBRANCH  16  19
ENDBRANCH   2  16
TORSDOF 4
