REMARK  Name = ZINC66119561
REMARK  4 active torsions:
REMARK  status: ('A' for Active; 'I' for Inactive)
REMARK    1  A    between atoms: C_1  and  C_2
REMARK    2  A    between atoms: C_8  and  N_10
REMARK    3  A    between atoms: C_16  and  N_19
REMARK    4  A    between atoms: C_20  and  C_22
REMARK                            x       y       z     vdW  Elec       q    Type
REMARK                         _______ _______ _______ _____ _____    ______ ____
ROOT
ATOM      1  N   UNL     1       2.049  -0.214   3.649  0.00  0.00    -0.296 N 
ATOM      2  C   UNL     1       0.738   0.093   3.602  0.00  0.00    +0.302 C 
ATOM      3  O   UNL     1       0.145   0.066   2.541  0.00  0.00    -0.253 OA
ATOM      4  N   UNL     1       0.084   0.431   4.731  0.00  0.00    -0.286 N 
ATOM      5  C   UNL     1      -1.369   0.651   4.718  0.00  0.00    +0.111 C 
ATOM      6  C   UNL     1      -1.664   2.029   5.319  0.00  0.00    +0.041 C 
ATOM      7  C   UNL     1      -1.027   2.122   6.707  0.00  0.00    +0.076 C 
ATOM      8  C   UNL     1       0.490   1.963   6.586  0.00  0.00    +0.041 C 
ATOM      9  C   UNL     1       0.809   0.579   6.000  0.00  0.00    +0.111 C 
ATOM     10  H   UNL     1       2.539  -0.123   4.481  0.00  0.00    +0.151 HD
ENDROOT
BRANCH   1  17
ATOM     11  C   UNL     1       3.487  -2.728   3.671  0.00  0.00    +0.009 C 
ATOM     12  C   UNL     1       3.949  -1.527   2.843  0.00  0.00    +0.006 C 
ATOM     13  C   UNL     1       4.665  -2.020   1.584  0.00  0.00    +0.005 C 
ATOM     14  C   UNL     1       5.126  -0.819   0.757  0.00  0.00    +0.000 C 
ATOM     15  C   UNL     1       3.912   0.022   0.357  0.00  0.00    +0.002 C 
ATOM     16  C   UNL     1       3.196   0.515   1.616  0.00  0.00    +0.022 C 
ATOM     17  C   UNL     1       2.735  -0.686   2.443  0.00  0.00    +0.077 C 
ENDBRANCH   1  17
BRANCH   7  18
ATOM     18  N   UNL     1      -1.335   3.426   7.299  0.00  0.00    -0.312 N 
ATOM     19  C   UNL     1      -1.341   3.574   8.639  0.00  0.00    +0.216 C 
ATOM     20  O   UNL     1      -1.091   2.627   9.354  0.00  0.00    -0.276 OA
ATOM     21  H   UNL     1      -1.535   4.184   6.727  0.00  0.00    +0.149 HD
BRANCH  19  22
ATOM     22  C   UNL     1      -1.659   4.916   9.247  0.00  0.00    +0.075 C 
ATOM     23  C   UNL     1      -0.454   5.870   9.297  0.00  0.00    +0.013 C 
ATOM     24  C   UNL     1      -0.949   6.297  10.689  0.00  0.00    +0.001 C 
ATOM     25  C   UNL     1      -1.624   4.918  10.785  0.00  0.00    +0.013 C 
ENDBRANCH  19  22
ENDBRANCH   7  18
TORSDOF 3
