REMARK  Name = ZINC01193800
REMARK  9 active torsions:
REMARK  status: ('A' for Active; 'I' for Inactive)
REMARK    1  A    between atoms: C_1  and  C_2
REMARK    2  A    between atoms: C_5  and  C_28
REMARK    3  A    between atoms: C_6  and  N_8
REMARK    4  A    between atoms: N_8  and  C_9
REMARK    5  A    between atoms: C_9  and  N_11
REMARK    6  A    between atoms: N_11  and  C_12
REMARK    7  A    between atoms: C_12  and  C_14
REMARK    8  A    between atoms: C_12  and  N_18
REMARK    9  A    between atoms: C_19  and  C_21
REMARK                            x       y       z     vdW  Elec       q    Type
REMARK                         _______ _______ _______ _____ _____    ______ ____
ROOT
ATOM      1  C   UNL     1       3.470   7.379  -0.304  0.00  0.00    +0.211 C 
ENDROOT
BRANCH   1   2
ATOM      2  C   UNL     1       4.534   7.971   0.622  0.00  0.00    +0.225 C 
ATOM      3 CL   UNL     1       6.160   7.358   0.140  0.00  0.00    -0.080 Cl
ATOM      4 CL   UNL     1       4.508   9.769   0.496  0.00  0.00    -0.080 Cl
ATOM      5 CL   UNL     1       4.189   7.482   2.323  0.00  0.00    -0.080 Cl
ENDBRANCH   1   2
BRANCH   1   6
ATOM      6  N   UNL     1       3.752   7.776  -1.686  0.00  0.00    -0.289 N 
ATOM      7  C   UNL     1       2.753   8.216  -2.477  0.00  0.00    +0.248 C 
ATOM      8  O   UNL     1       1.619   8.285  -2.044  0.00  0.00    -0.270 OA
ATOM      9  H   UNL     1       4.656   7.721  -2.032  0.00  0.00    +0.151 HD
BRANCH   7  10
ATOM     10  C   UNL     1       3.037   8.616  -3.870  0.00  0.00    +0.072 A 
ATOM     11  C   UNL     1       4.339   8.544  -4.370  0.00  0.00    +0.016 A 
ATOM     12  C   UNL     1       4.596   8.914  -5.673  0.00  0.00    +0.001 A 
ATOM     13  C   UNL     1       3.569   9.367  -6.484  0.00  0.00    +0.003 A 
ATOM     14  C   UNL     1       2.278   9.446  -5.998  0.00  0.00    +0.039 A 
ATOM     15  C   UNL     1       2.003   9.074  -4.694  0.00  0.00    +0.135 A 
ATOM     16  F   UNL     1       0.742   9.153  -4.218  0.00  0.00    -0.205 F 
ENDBRANCH   7  10
ENDBRANCH   1   6
BRANCH   1  17
ATOM     17  N   UNL     1       3.492   5.918  -0.202  0.00  0.00    -0.305 N 
ATOM     18  H   UNL     1       4.338   5.443  -0.212  0.00  0.00    +0.150 HD
BRANCH  17  19
ATOM     19  C   UNL     1       2.336   5.233  -0.093  0.00  0.00    +0.136 C 
ATOM     20  S   UNL     1       0.843   6.071  -0.075  0.00  0.00    -0.019 S 
BRANCH  19  21
ATOM     21  N   UNL     1       2.355   3.889   0.001  0.00  0.00    -0.297 N 
ATOM     22  H   UNL     1       3.201   3.419   0.071  0.00  0.00    +0.154 HD
BRANCH  21  28
ATOM     23  C   UNL     1      -2.114   3.122  -1.898  0.00  0.00    +0.044 C 
ATOM     24  C   UNL     1      -1.028   2.777  -0.911  0.00  0.00    -0.049 A 
ATOM     25  C   UNL     1      -1.216   1.745  -0.010  0.00  0.00    +0.004 A 
ATOM     26  C   UNL     1      -0.225   1.429   0.900  0.00  0.00    +0.005 A 
ATOM     27  C   UNL     1       0.961   2.136   0.905  0.00  0.00    -0.029 A 
ATOM     28  C   UNL     1       1.155   3.170  -0.002  0.00  0.00    +0.036 A 
ATOM     29  C   UNL     1       0.155   3.488  -0.912  0.00  0.00    +0.027 A 
ATOM     30  C   UNL     1       2.044   1.787   1.894  0.00  0.00    +0.045 C 
ENDBRANCH  21  28
ENDBRANCH  19  21
ENDBRANCH  17  19
ENDBRANCH   1  17
TORSDOF 7
