REMARK  Name = ZINC01922615
REMARK  7 active torsions:
REMARK  status: ('A' for Active; 'I' for Inactive)
REMARK    1  A    between atoms: C_1  and  C_2
REMARK    2  A    between atoms: C_2  and  S_3
REMARK    3  A    between atoms: S_3  and  C_4
REMARK    4  A    between atoms: N_8  and  C_9
REMARK    5  A    between atoms: C_9  and  C_10
REMARK    6  A    between atoms: N_12  and  C_13
REMARK    7  A    between atoms: C_14  and  C_22
REMARK                            x       y       z     vdW  Elec       q    Type
REMARK                         _______ _______ _______ _____ _____    ______ ____
ROOT
ATOM      1  C   UNL     1      -2.840  -0.867   1.431  0.00  0.00    +0.238 C 
ATOM      2  O   UNL     1      -2.682  -0.100   2.356  0.00  0.00    -0.273 OA
ATOM      3  N   UNL     1      -3.096  -2.168   1.670  0.00  0.00    -0.278 N 
ATOM      4  H   UNL     1      -3.222  -2.782   0.930  0.00  0.00    +0.155 HD
ENDROOT
BRANCH   3   5
ATOM      5  C   UNL     1      -3.180  -2.630   2.975  0.00  0.00    +0.084 A 
ATOM      6  C   UNL     1      -3.438  -3.919   3.419  0.00  0.00    +0.068 A 
ATOM      7  C   UNL     1      -3.469  -4.141   4.854  0.00  0.00    -0.023 A 
ATOM      8  C   UNL     1      -3.248  -3.044   5.611  0.00  0.00    -0.004 A 
ATOM      9  S   UNL     1      -2.994  -1.735   4.447  0.00  0.00    -0.077 S 
ATOM     10  C   UNL     1      -3.226  -2.969   7.107  0.00  0.00    +0.043 C 
ATOM     11  C   UNL     1      -3.863  -4.249   7.666  0.00  0.00    +0.005 C 
ATOM     12  C   UNL     1      -3.253  -5.457   6.948  0.00  0.00    +0.005 C 
ATOM     13  C   UNL     1      -3.735  -5.497   5.497  0.00  0.00    +0.037 C 
BRANCH   6  14
ATOM     14  C   UNL     1      -3.668  -5.016   2.474  0.00  0.00    +0.244 C 
ATOM     15  O   UNL     1      -2.731  -5.682   2.075  0.00  0.00    -0.270 OA
ATOM     16  N   UNL     1      -4.918  -5.288   2.048  0.00  0.00    -0.325 N 
ATOM     17  H   UNL     1      -5.665  -4.758   2.366  0.00  0.00    +0.145 HD
ATOM     18  H   UNL     1      -5.069  -6.014   1.423  0.00  0.00    +0.145 HD
ENDBRANCH   6  14
ENDBRANCH   3   5
BRANCH   1  19
ATOM     19  C   UNL     1      -2.748  -0.366   0.012  0.00  0.00    +0.223 C 
BRANCH  19  24
ATOM     20  C   UNL     1      -3.392   2.074   0.030  0.00  0.00    +0.193 A 
ATOM     21  N   UNL     1      -2.752   3.218   0.033  0.00  0.00    -0.121 NA
ATOM     22  N   UNL     1      -1.378   2.945   0.030  0.00  0.00    -0.113 NA
ATOM     23  C   UNL     1      -1.223   1.644   0.017  0.00  0.00    +0.216 A 
ATOM     24  N   UNL     1      -2.463   1.071   0.020  0.00  0.00    -0.282 N 
ATOM     25  N   UNL     1      -0.011   0.966   0.007  0.00  0.00    -0.328 N 
ATOM     26  H   UNL     1       0.002  -0.004   0.002  0.00  0.00    +0.145 HD
ATOM     27  H   UNL     1       0.822   1.462   0.002  0.00  0.00    +0.145 HD
BRANCH  20  28
ATOM     28  S   UNL     1      -5.142   1.866   0.037  0.00  0.00    -0.086 S 
BRANCH  28  30
ATOM     29  C   UNL     1      -7.315   3.527   0.058  0.00  0.00    +0.016 C 
ATOM     30  C   UNL     1      -5.785   3.562   0.050  0.00  0.00    +0.074 C 
ENDBRANCH  28  30
ENDBRANCH  20  28
ENDBRANCH  19  24
ENDBRANCH   1  19
TORSDOF 6
