REMARK  Name = ZINC13031434
REMARK  8 active torsions:
REMARK  status: ('A' for Active; 'I' for Inactive)
REMARK    1  A    between atoms: C_1  and  C_2
REMARK    2  A    between atoms: C_2  and  C_4
REMARK    3  A    between atoms: C_2  and  N_11
REMARK    4  A    between atoms: N_11  and  C_12
REMARK    5  A    between atoms: C_12  and  C_13
REMARK    6  A    between atoms: N_15  and  C_16
REMARK    7  A    between atoms: C_20  and  S_22
REMARK    8  A    between atoms: S_22  and  N_25
REMARK                            x       y       z     vdW  Elec       q    Type
REMARK                         _______ _______ _______ _____ _____    ______ ____
ROOT
ATOM      1  C   UNL     1      -5.270  -1.844   2.429  0.00  0.00    +0.035 A 
ATOM      2  C   UNL     1      -5.782  -2.245   1.202  0.00  0.00    +0.023 A 
ATOM      3  C   UNL     1      -7.039  -2.811   1.132  0.00  0.00    +0.004 A 
ATOM      4  C   UNL     1      -7.789  -2.978   2.282  0.00  0.00    +0.029 A 
ATOM      5  C   UNL     1      -7.283  -2.580   3.505  0.00  0.00    +0.114 A 
ATOM      6  C   UNL     1      -6.023  -2.019   3.583  0.00  0.00    +0.052 A 
ENDROOT
BRANCH   1   9
ATOM      7  C   UNL     1      -3.208  -1.515   3.570  0.00  0.00    +0.231 C 
ATOM      8  O   UNL     1      -3.633  -2.163   4.503  0.00  0.00    -0.274 OA
ATOM      9  N   UNL     1      -3.996  -1.271   2.504  0.00  0.00    -0.284 N 
ATOM     10  H   UNL     1      -3.679  -0.697   1.789  0.00  0.00    +0.155 HD
BRANCH   7  11
ATOM     11  C   UNL     1      -1.798  -0.984   3.603  0.00  0.00    +0.178 C 
BRANCH  11  12
ATOM     12  N   UNL     1      -1.153  -1.383   4.861  0.00  0.00    -0.302 NA
ATOM     13  H   UNL     1      -1.180  -2.385   4.978  0.00  0.00    +0.123 HD
BRANCH  12  15
ATOM     14  C   UNL     1       1.160  -1.860   4.214  0.00  0.00    +0.029 C 
ATOM     15  C   UNL     1       0.226  -0.881   4.928  0.00  0.00    +0.084 C 
BRANCH  15  16
ATOM     16  C   UNL     1       0.642  -0.750   6.370  0.00  0.00    +0.004 A 
ATOM     17  C   UNL     1       0.037  -1.528   7.339  0.00  0.00    +0.008 A 
ATOM     18  C   UNL     1       0.419  -1.408   8.662  0.00  0.00    +0.000 A 
ATOM     19  C   UNL     1       1.407  -0.509   9.018  0.00  0.00    +0.003 A 
ATOM     20  C   UNL     1       2.014   0.270   8.052  0.00  0.00    +0.038 A 
ATOM     21  C   UNL     1       1.636   0.147   6.725  0.00  0.00    +0.128 A 
ATOM     22  F   UNL     1       2.232   0.905   5.779  0.00  0.00    -0.205 F 
ENDBRANCH  15  16
ENDBRANCH  12  15
ENDBRANCH  11  12
ENDBRANCH   7  11
ENDBRANCH   1   9
BRANCH   5  23
ATOM     23  S   UNL     1      -8.243  -2.794   4.967  0.00  0.00    +0.100 S 
ATOM     24  O   UNL     1      -7.767  -1.842   5.908  0.00  0.00    -0.146 OA
ATOM     25  O   UNL     1      -9.602  -2.846   4.556  0.00  0.00    -0.146 OA
BRANCH  23  26
ATOM     26  N   UNL     1      -7.876  -4.289   5.578  0.00  0.00    -0.118 NA
ATOM     27  C   UNL     1      -8.448  -4.702   6.662  0.00  0.00    +0.117 C 
ATOM     28  C   UNL     1      -9.467  -3.817   7.375  0.00  0.00    +0.073 C 
ATOM     29  C   UNL     1     -10.824  -4.465   7.204  0.00  0.00    +0.008 C 
ATOM     30  C   UNL     1     -11.155  -5.483   8.296  0.00  0.00    +0.002 C 
ATOM     31  C   UNL     1      -9.976  -6.393   8.645  0.00  0.00    +0.019 C 
ATOM     32  C   UNL     1      -9.219  -6.881   7.430  0.00  0.00    +0.102 C 
ATOM     33  N   UNL     1      -8.157  -5.892   7.150  0.00  0.00    -0.331 N 
ATOM     34  H   UNL     1      -7.233  -6.123   7.331  0.00  0.00    +0.147 HD
ENDBRANCH  23  26
ENDBRANCH   5  23
TORSDOF 7
