REMARK  Name = ZINC05482026
REMARK  5 active torsions:
REMARK  status: ('A' for Active; 'I' for Inactive)
REMARK    1  A    between atoms: C_1  and  C_2
REMARK    2  A    between atoms: C_2  and  C_3
REMARK    3  A    between atoms: C_2  and  C_4
REMARK    4  A    between atoms: C_7  and  C_13
REMARK    5  A    between atoms: C_9  and  N_10
REMARK                            x       y       z     vdW  Elec       q    Type
REMARK                         _______ _______ _______ _____ _____    ______ ____
ROOT
ATOM      1  C   UNL     1      -1.016   1.849   0.346  0.00  0.00    -0.015 A 
ATOM      2  C   UNL     1      -0.016   1.324   1.147  0.00  0.00    +0.007 A 
ATOM      3  C   UNL     1       1.039   2.116   1.546  0.00  0.00    +0.008 A 
ATOM      4  C   UNL     1       1.096   3.455   1.143  0.00  0.00    -0.022 A 
ATOM      5  C   UNL     1       0.079   3.979   0.338  0.00  0.00    +0.041 A 
ATOM      6  C   UNL     1      -0.970   3.174  -0.052  0.00  0.00    +0.130 A 
ENDROOT
BRANCH   4   7
ATOM      7  C   UNL     1       2.218   4.306   1.564  0.00  0.00    +0.028 C 
ATOM      8  C   UNL     1       2.338   5.563   1.069  0.00  0.00    +0.077 C 
ATOM      9  C   UNL     1       3.272   6.643   1.454  0.00  0.00    +0.256 C 
ATOM     10  O   UNL     1       4.098   6.490   2.335  0.00  0.00    -0.269 OA
ATOM     11  N   UNL     1       3.164   7.782   0.792  0.00  0.00    -0.270 N 
ATOM     12  C   UNL     1       2.248   7.947  -0.183  0.00  0.00    +0.118 C 
ATOM     13  S   UNL     1       1.956   9.333  -1.144  0.00  0.00    -0.027 S 
ATOM     14  S   UNL     1       1.417   6.367  -0.235  0.00  0.00    -0.061 S 
ATOM     15  H   UNL     1       3.757   8.517   1.014  0.00  0.00    +0.156 HD
ENDBRANCH   4   7
BRANCH   1  17
ATOM     16  C   UNL     1      -1.814   0.300  -1.419  0.00  0.00    +0.012 C 
ATOM     17  C   UNL     1      -2.163   0.974  -0.091  0.00  0.00    +0.015 C 
ATOM     18  C   UNL     1      -2.421  -0.096   0.972  0.00  0.00    +0.012 C 
ENDBRANCH   1  17
BRANCH   6  19
ATOM     19  N   UNL     1      -2.047   3.726  -0.904  0.00  0.00    +0.057 N 
ATOM     20  O   UNL     1      -1.773   4.477  -1.823  0.00  0.00    -0.126 OA
ATOM     21  O   UNL     1      -3.208   3.429  -0.687  0.00  0.00    -0.126 OA
ENDBRANCH   6  19
TORSDOF 3
