REMARK  Name = ZINC20134253
REMARK  18 active torsions:
REMARK  status: ('A' for Active; 'I' for Inactive)
REMARK    1  A    between atoms: C_1  and  C_2
REMARK    2  A    between atoms: C_2  and  N_3
REMARK    3  A    between atoms: N_3  and  C_4
REMARK    4  A    between atoms: N_3  and  C_6
REMARK    5  A    between atoms: C_4  and  C_5
REMARK    6  A    between atoms: C_6  and  C_7
REMARK    7  A    between atoms: C_7  and  N_8
REMARK    8  A    between atoms: C_9  and  C_25
REMARK    9  A    between atoms: C_11  and  C_16
REMARK   10  A    between atoms: C_16  and  C_18
REMARK   11  A    between atoms: C_19  and  C_24
REMARK   12  A    between atoms: C_21  and  C_23
REMARK   13  A    between atoms: C_27  and  O_35
REMARK   14  A    between atoms: C_28  and  O_33
REMARK   15  A    between atoms: C_29  and  O_31
REMARK   16  A    between atoms: O_31  and  C_32
REMARK   17  A    between atoms: O_33  and  C_34
REMARK   18  A    between atoms: O_35  and  C_36
REMARK                            x       y       z     vdW  Elec       q    Type
REMARK                         _______ _______ _______ _____ _____    ______ ____
ROOT
ATOM      1  N   UNL     1       0.458  -1.528  -1.307  0.00  0.00    -0.285 N 
ATOM      2  C   UNL     1       1.868  -1.232  -1.589  0.00  0.00    +0.145 C 
ATOM      3  C   UNL     1       2.040  -1.386  -3.082  0.00  0.00    +0.077 C 
ATOM      4  C   UNL     1       0.833  -1.737  -3.580  0.00  0.00    +0.249 C 
ATOM      5  C   UNL     1      -0.141  -1.828  -2.474  0.00  0.00    +0.288 C 
ATOM      6  O   UNL     1      -1.312  -2.128  -2.599  0.00  0.00    -0.266 OA
ATOM      7  O   UNL     1       0.562  -1.972  -4.885  0.00  0.00    -0.282 OA
ENDROOT
BRANCH   2   8
ATOM      8  C   UNL     1       2.758  -2.205  -0.859  0.00  0.00    -0.015 A 
ATOM      9  C   UNL     1       2.903  -3.495  -1.334  0.00  0.00    +0.055 A 
ATOM     10  C   UNL     1       3.725  -4.393  -0.669  0.00  0.00    +0.165 A 
ATOM     11  C   UNL     1       4.395  -3.996   0.482  0.00  0.00    +0.204 A 
ATOM     12  C   UNL     1       4.242  -2.700   0.959  0.00  0.00    +0.165 A 
ATOM     13  C   UNL     1       3.422  -1.807   0.285  0.00  0.00    +0.055 A 
BRANCH  12  14
ATOM     14  O   UNL     1       4.896  -2.307   2.086  0.00  0.00    -0.491 OA
ATOM     15  C   UNL     1       4.606  -0.999   2.581  0.00  0.00    +0.277 C 
ENDBRANCH  12  14
BRANCH  11  16
ATOM     16  O   UNL     1       5.199  -4.875   1.140  0.00  0.00    -0.488 OA
ATOM     17  C   UNL     1       4.593  -5.671   2.160  0.00  0.00    +0.277 C 
ENDBRANCH  11  16
BRANCH  10  18
ATOM     18  O   UNL     1       3.872  -5.660  -1.140  0.00  0.00    -0.491 OA
ATOM     19  C   UNL     1       3.153  -5.997  -2.328  0.00  0.00    +0.277 C 
ENDBRANCH  10  18
ENDBRANCH   2   8
BRANCH   3  20
ATOM     20  C   UNL     1       3.280  -1.192  -3.844  0.00  0.00    +0.203 C 
ATOM     21  O   UNL     1       3.316  -1.474  -5.029  0.00  0.00    -0.286 OA
BRANCH  20  22
ATOM     22  C   UNL     1       4.474  -0.660  -3.180  0.00  0.00    +0.082 A 
ATOM     23  C   UNL     1       5.776  -0.543  -3.652  0.00  0.00    +0.057 A 
ATOM     24  N   UNL     1       6.668  -0.026  -2.848  0.00  0.00    -0.249 NA
ATOM     25  C   UNL     1       6.358   0.375  -1.633  0.00  0.00    +0.076 A 
ATOM     26  S   UNL     1       4.659   0.028  -1.541  0.00  0.00    -0.069 S 
ATOM     27  C   UNL     1       7.253   0.988  -0.586  0.00  0.00    +0.073 C 
ATOM     28  C   UNL     1       6.146  -0.998  -5.040  0.00  0.00    +0.067 C 
ENDBRANCH  20  22
ENDBRANCH   3  20
BRANCH   1  29
ATOM     29  C   UNL     1      -0.181  -1.508   0.011  0.00  0.00    +0.090 C 
BRANCH  29  30
ATOM     30  C   UNL     1      -0.733  -0.108   0.288  0.00  0.00    -0.060 C 
BRANCH  30  31
ATOM     31  N   UNL     1      -1.374  -0.087   1.610  0.00  0.00    +0.380 N 
ATOM     32  H   UNL     1      -2.092  -0.919   1.650  0.00  0.00    -0.082 HD
BRANCH  31  34
ATOM     33  C   UNL     1       0.584   0.892   2.708  0.00  0.00    -0.017 C 
ATOM     34  C   UNL     1      -0.386  -0.291   2.677  0.00  0.00    -0.082 C 
ENDBRANCH  31  34
BRANCH  31  35
ATOM     35  C   UNL     1      -2.119   1.162   1.814  0.00  0.00    -0.082 C 
ATOM     36  C   UNL     1      -2.963   1.051   3.085  0.00  0.00    -0.017 C 
ENDBRANCH  31  35
ENDBRANCH  30  31
ENDBRANCH  29  30
ENDBRANCH   1  29
TORSDOF 11
