REMARK  Name = ZINC22803669
REMARK  6 active torsions:
REMARK  status: ('A' for Active; 'I' for Inactive)
REMARK    1  A    between atoms: C_8  and  C_10
REMARK    2  A    between atoms: C_10  and  N_11
REMARK    3  A    between atoms: N_14  and  C_17
REMARK    4  A    between atoms: C_17  and  C_18
REMARK    5  A    between atoms: N_20  and  C_21
REMARK    6  A    between atoms: C_22  and  C_29
REMARK                            x       y       z     vdW  Elec       q    Type
REMARK                         _______ _______ _______ _____ _____    ______ ____
ROOT
ATOM      1  C   UNL     1      -0.018   1.465   0.010  0.00  0.00    +0.180 C 
ENDROOT
BRANCH   1   5
ATOM      2  N   UNL     1       1.225  -2.568  -0.193  0.00  0.00    +0.387 N 
ATOM      3  C   UNL     1       0.397  -2.046  -1.289  0.00  0.00    -0.063 C 
ATOM      4  C   UNL     1       0.466  -0.517  -1.294  0.00  0.00    +0.066 C 
ATOM      5  N   UNL     1       0.002  -0.004   0.002  0.00  0.00    -0.298 NA
ATOM      6  C   UNL     1       0.830  -0.526   1.099  0.00  0.00    +0.066 C 
ATOM      7  C   UNL     1       0.761  -2.054   1.104  0.00  0.00    -0.063 C 
ATOM      8  H   UNL     1       2.255  -2.216  -0.348  0.00  0.00    -0.081 HD
BRANCH   2   9
ATOM      9  C   UNL     1       1.245  -4.037  -0.201  0.00  0.00    +0.019 C 
BRANCH   9  17
ATOM     10  C   UNL     1       0.688  -7.963   2.094  0.00  0.00    +0.002 C 
ATOM     11  C   UNL     1       1.592  -7.310   3.134  0.00  0.00    +0.002 C 
ATOM     12  C   UNL     1       3.034  -7.501   2.733  0.00  0.00    +0.019 C 
ATOM     13  C   UNL     1       3.511  -6.304   1.890  0.00  0.00    +0.107 C 
ATOM     14  N   UNL     1       2.483  -5.854   0.931  0.00  0.00    -0.303 N 
ATOM     15  C   UNL     1       1.676  -6.774   0.163  0.00  0.00    +0.107 C 
ATOM     16  C   UNL     1       0.383  -7.109   0.935  0.00  0.00    +0.019 C 
ATOM     17  C   UNL     1       2.286  -4.530   0.770  0.00  0.00    +0.199 C 
ATOM     18  O   UNL     1       2.947  -3.737   1.406  0.00  0.00    -0.278 OA
ENDBRANCH   9  17
ENDBRANCH   2   9
ENDBRANCH   1   5
BRANCH   1  19
ATOM     19  C   UNL     1      -0.723   1.951   1.250  0.00  0.00    +0.232 C 
ATOM     20  O   UNL     1      -1.166   1.152   2.048  0.00  0.00    -0.274 OA
ATOM     21  N   UNL     1      -0.862   3.273   1.472  0.00  0.00    -0.278 N 
ATOM     22  H   UNL     1      -0.461   3.997   0.748  0.00  0.00    +0.155 HD
BRANCH  21  23
ATOM     23  C   UNL     1      -1.511   3.720   2.612  0.00  0.00    +0.084 A 
ATOM     24  C   UNL     1      -1.745   5.024   3.014  0.00  0.00    +0.068 A 
ATOM     25  C   UNL     1      -2.464   5.227   4.271  0.00  0.00    -0.023 A 
ATOM     26  C   UNL     1      -2.816   4.100   4.916  0.00  0.00    -0.004 A 
ATOM     27  S   UNL     1      -2.219   2.784   3.884  0.00  0.00    -0.077 S 
ATOM     28  C   UNL     1      -3.547   4.389   6.199  0.00  0.00    +0.043 C 
ATOM     29  C   UNL     1      -3.993   5.863   6.069  0.00  0.00    +0.010 C 
ATOM     30  C   UNL     1      -2.939   6.425   5.095  0.00  0.00    +0.037 C 
BRANCH  24  31
ATOM     31  C   UNL     1      -1.292   6.161   2.206  0.00  0.00    +0.244 C 
ATOM     32  O   UNL     1      -2.022   6.628   1.351  0.00  0.00    -0.270 OA
ATOM     33  N   UNL     1      -0.069   6.688   2.410  0.00  0.00    -0.325 N 
ATOM     34  H   UNL     1       0.271   7.540   1.803  0.00  0.00    +0.145 HD
ATOM     35  H   UNL     1       0.590   6.265   3.182  0.00  0.00    +0.145 HD
ENDBRANCH  24  31
ENDBRANCH  21  23
ENDBRANCH   1  19
TORSDOF 6
