REMARK  Name = ZINC52788582
REMARK  7 active torsions:
REMARK  status: ('A' for Active; 'I' for Inactive)
REMARK    1  A    between atoms: C_1  and  C_2
REMARK    2  A    between atoms: C_2  and  C_3
REMARK    3  A    between atoms: C_2  and  C_4
REMARK    4  A    between atoms: C_2  and  C_5
REMARK    5  A    between atoms: C_9  and  C_11
REMARK    6  A    between atoms: C_11  and  S_12
REMARK    7  A    between atoms: S_12  and  C_15
REMARK                            x       y       z     vdW  Elec       q    Type
REMARK                         _______ _______ _______ _____ _____    ______ ____
ROOT
ATOM      1  C   UNL     1       0.707  -0.490  -1.238  0.00  0.00    +0.052 A 
ATOM      2  C   UNL     1       2.087  -0.419  -1.334  0.00  0.00    +0.064 A 
ATOM      3  C   UNL     1       2.693  -0.879  -2.495  0.00  0.00    +0.133 A 
ATOM      4  N   UNL     1       1.936  -1.367  -3.465  0.00  0.00    -0.219 NA
ATOM      5  C   UNL     1       0.625  -1.419  -3.337  0.00  0.00    +0.152 A 
ATOM      6  N   UNL     1       0.017  -0.996  -2.248  0.00  0.00    -0.235 NA
ATOM      7 CL   UNL     1       4.419  -0.814  -2.672  0.00  0.00    -0.062 Cl
ENDROOT
BRANCH   1   9
ATOM      8  C   UNL     1      -0.019   1.526   0.010  0.00  0.00    +0.017 C 
ATOM      9  C   UNL     1       0.002  -0.004   0.002  0.00  0.00    +0.005 C 
ATOM     10  C   UNL     1       0.742  -0.511   1.242  0.00  0.00    +0.017 C 
ATOM     11  C   UNL     1      -1.433  -0.534   0.013  0.00  0.00    +0.017 C 
ENDBRANCH   1   9
BRANCH   5  12
ATOM     12  C   UNL     1      -0.200  -1.982  -4.466  0.00  0.00    +0.241 C 
BRANCH  12  13
ATOM     13  S   UNL     1      -0.403  -3.770  -4.233  0.00  0.00    -0.027 S 
ATOM     14  O   UNL     1       0.873  -4.386  -4.350  0.00  0.00    -0.174 OA
ATOM     15  O   UNL     1      -1.169  -3.986  -3.057  0.00  0.00    -0.174 OA
ATOM     16  C   UNL     1      -1.405  -4.249  -5.667  0.00  0.00    +0.194 C 
ENDBRANCH  12  13
ENDBRANCH   5  12
TORSDOF 3
