REMARK  Name = ZINC36583058
REMARK  16 active torsions:
REMARK  status: ('A' for Active; 'I' for Inactive)
REMARK    1  A    between atoms: C_1  and  C_2
REMARK    2  A    between atoms: C_2  and  C_3
REMARK    3  A    between atoms: C_3  and  C_5
REMARK    4  A    between atoms: C_3  and  C_11
REMARK    5  A    between atoms: N_13  and  C_14
REMARK    6  A    between atoms: N_13  and  C_37
REMARK    7  A    between atoms: C_14  and  C_16
REMARK    8  A    between atoms: C_14  and  C_23
REMARK    9  A    between atoms: C_21  and  C_22
REMARK   10  A    between atoms: N_25  and  C_26
REMARK   11  A    between atoms: C_26  and  S_27
REMARK   12  A    between atoms: S_27  and  C_30
REMARK   13  A    between atoms: C_33  and  C_36
REMARK   14  A    between atoms: C_37  and  C_38
REMARK   15  A    between atoms: C_37  and  C_39
REMARK   16  A    between atoms: C_37  and  C_40
REMARK                            x       y       z     vdW  Elec       q    Type
REMARK                         _______ _______ _______ _____ _____    ______ ____
ROOT
ATOM      1  C   UNL     1       3.770   1.584  -1.409  0.00  0.00    +0.193 C 
ENDROOT
BRANCH   1   2
ATOM      2  C   UNL     1       3.906   2.491  -0.213  0.00  0.00    -0.015 A 
ATOM      3  C   UNL     1       3.817   3.861  -0.371  0.00  0.00    +0.006 A 
ATOM      4  C   UNL     1       3.941   4.693   0.725  0.00  0.00    +0.000 A 
ATOM      5  C   UNL     1       4.155   4.154   1.981  0.00  0.00    +0.000 A 
ATOM      6  C   UNL     1       4.244   2.784   2.139  0.00  0.00    +0.004 A 
ATOM      7  C   UNL     1       4.115   1.952   1.042  0.00  0.00    -0.045 A 
ATOM      8  C   UNL     1       4.206   0.458   1.216  0.00  0.00    +0.044 C 
ENDBRANCH   1   2
BRANCH   1   9
ATOM      9  C   UNL     1       3.766   2.411  -2.669  0.00  0.00    +0.239 C 
ATOM     10  O   UNL     1       2.733   2.572  -3.285  0.00  0.00    -0.273 OA
ATOM     11  N   UNL     1       4.909   2.972  -3.111  0.00  0.00    -0.294 N 
ATOM     12  H   UNL     1       5.745   2.792  -2.654  0.00  0.00    +0.150 HD
BRANCH  11  13
ATOM     13  C   UNL     1       4.887   3.853  -4.281  0.00  0.00    +0.278 C 
BRANCH  13  14
ATOM     14  S   UNL     1       4.760   5.579  -3.737  0.00  0.00    +0.013 S 
ATOM     15  O   UNL     1       4.802   6.450  -4.858  0.00  0.00    -0.168 OA
ATOM     16  O   UNL     1       3.740   5.708  -2.756  0.00  0.00    -0.168 OA
BRANCH  14  17
ATOM     17  C   UNL     1       6.261   5.891  -2.868  0.00  0.00    +0.090 A 
ATOM     18  C   UNL     1       6.336   5.649  -1.509  0.00  0.00    +0.027 A 
ATOM     19  C   UNL     1       7.513   5.894  -0.828  0.00  0.00    +0.005 A 
ATOM     20  C   UNL     1       8.616   6.382  -1.505  0.00  0.00    -0.050 A 
ATOM     21  C   UNL     1       8.540   6.623  -2.864  0.00  0.00    +0.005 A 
ATOM     22  C   UNL     1       7.364   6.374  -3.546  0.00  0.00    +0.027 A 
ATOM     23  C   UNL     1       9.899   6.650  -0.762  0.00  0.00    +0.044 C 
ENDBRANCH  14  17
ENDBRANCH  13  14
ENDBRANCH  11  13
ENDBRANCH   1   9
BRANCH   1  26
ATOM     24  C   UNL     1       2.527  -0.512  -1.395  0.00  0.00    +0.224 C 
ATOM     25  O   UNL     1       1.503  -1.138  -1.226  0.00  0.00    -0.275 OA
ATOM     26  N   UNL     1       2.516   0.833  -1.313  0.00  0.00    -0.280 N 
BRANCH  26  27
ATOM     27  C   UNL     1       1.249   1.545  -1.128  0.00  0.00    +0.030 C 
ATOM     28  C   UNL     1       0.537   1.006   0.114  0.00  0.00    +0.031 C 
ATOM     29  C   UNL     1       1.525   3.040  -0.950  0.00  0.00    +0.031 C 
ATOM     30  C   UNL     1       0.361   1.333  -2.356  0.00  0.00    +0.031 C 
ENDBRANCH  26  27
BRANCH  24  31
ATOM     31  C   UNL     1       3.813  -1.238  -1.695  0.00  0.00    +0.105 C 
BRANCH  31  32
ATOM     32  C   UNL     1       3.855  -2.528  -0.918  0.00  0.00    -0.036 A 
ATOM     33  C   UNL     1       2.881  -3.488  -1.119  0.00  0.00    +0.004 A 
ATOM     34  C   UNL     1       2.919  -4.672  -0.406  0.00  0.00    +0.000 A 
ATOM     35  C   UNL     1       3.933  -4.896   0.507  0.00  0.00    +0.000 A 
ATOM     36  C   UNL     1       4.907  -3.937   0.707  0.00  0.00    +0.000 A 
ATOM     37  C   UNL     1       4.871  -2.755  -0.009  0.00  0.00    +0.004 A 
ENDBRANCH  31  32
BRANCH  31  39
ATOM     38  C   UNL     1       3.975  -0.229  -3.975  0.00  0.00    +0.005 C 
ATOM     39  C   UNL     1       3.889  -1.541  -3.193  0.00  0.00    +0.014 C 
ENDBRANCH  31  39
ENDBRANCH  24  31
ENDBRANCH   1  26
TORSDOF 10
