REMARK  Name = ZINC28581609
REMARK  9 active torsions:
REMARK  status: ('A' for Active; 'I' for Inactive)
REMARK    1  A    between atoms: C_1  and  C_2
REMARK    2  A    between atoms: C_7  and  C_8
REMARK    3  A    between atoms: N_10  and  C_11
REMARK    4  A    between atoms: C_11  and  C_13
REMARK    5  A    between atoms: C_11  and  C_16
REMARK    6  A    between atoms: C_13  and  C_14
REMARK    7  A    between atoms: C_13  and  C_15
REMARK    8  A    between atoms: N_18  and  N_19
REMARK    9  A    between atoms: C_20  and  C_22
REMARK                            x       y       z     vdW  Elec       q    Type
REMARK                         _______ _______ _______ _____ _____    ______ ____
ROOT
ATOM      1  C   UNL     1      -4.721   1.305   0.952  0.00  0.00    +0.163 C 
ENDROOT
BRANCH   1   4
ATOM      2  C   UNL     1      -7.120   1.732   1.017  0.00  0.00    +0.245 C 
ATOM      3  O   UNL     1      -7.275   0.619   1.480  0.00  0.00    -0.270 OA
ATOM      4  N   UNL     1      -5.881   2.170   0.718  0.00  0.00    -0.300 N 
ATOM      5  H   UNL     1      -5.740   3.177   0.298  0.00  0.00    +0.150 HD
BRANCH   2  12
ATOM      6  C   UNL     1      -9.788   0.687   1.417  0.00  0.00    +0.044 C 
ATOM      7  C   UNL     1      -9.581   2.112   0.971  0.00  0.00    -0.038 A 
ATOM      8  C   UNL     1     -10.668   2.932   0.749  0.00  0.00    +0.004 A 
ATOM      9  C   UNL     1     -10.480   4.240   0.340  0.00  0.00    +0.000 A 
ATOM     10  C   UNL     1      -9.202   4.735   0.150  0.00  0.00    +0.001 A 
ATOM     11  C   UNL     1      -8.106   3.927   0.372  0.00  0.00    +0.013 A 
ATOM     12  C   UNL     1      -8.289   2.604   0.781  0.00  0.00    +0.040 A 
ENDBRANCH   2  12
ENDBRANCH   1   4
BRANCH   1  13
ATOM     13  C   UNL     1      -3.491   2.154   1.138  0.00  0.00    +0.250 C 
ATOM     14  O   UNL     1      -3.573   3.363   1.081  0.00  0.00    -0.272 OA
ATOM     15  N   UNL     1      -2.298   1.570   1.368  0.00  0.00    -0.233 N 
ATOM     16  H   UNL     1      -2.223   0.474   1.420  0.00  0.00    +0.173 HD
BRANCH  15  17
ATOM     17  N   UNL     1      -1.153   2.360   1.542  0.00  0.00    -0.230 N 
ATOM     18  C   UNL     1       0.039   1.776   1.772  0.00  0.00    +0.260 C 
ATOM     19  O   UNL     1       0.122   0.565   1.829  0.00  0.00    -0.269 OA
ATOM     20  H   UNL     1      -1.228   3.456   1.490  0.00  0.00    +0.173 HD
BRANCH  18  21
ATOM     21  C   UNL     1       1.248   2.609   1.949  0.00  0.00    +0.040 A 
ATOM     22  C   UNL     1       1.157   4.000   1.878  0.00  0.00    +0.013 A 
ATOM     23  C   UNL     1       2.287   4.772   2.049  0.00  0.00    +0.002 A 
ATOM     24  C   UNL     1       3.512   4.171   2.280  0.00  0.00    +0.020 A 
ATOM     25  C   UNL     1       3.611   2.791   2.346  0.00  0.00    +0.042 A 
ATOM     26  C   UNL     1       2.486   2.007   2.181  0.00  0.00    +0.033 A 
ATOM     27 CL   UNL     1       5.151   2.046   2.635  0.00  0.00    -0.084 Cl
ENDBRANCH  18  21
ENDBRANCH  15  17
ENDBRANCH   1  13
BRANCH   1  28
ATOM     28  C   UNL     1      -4.525   0.379  -0.250  0.00  0.00    +0.012 C 
ATOM     29  C   UNL     1      -5.775  -0.483  -0.440  0.00  0.00    +0.009 C 
ATOM     30  C   UNL     1      -4.290   1.219  -1.508  0.00  0.00    +0.009 C 
ENDBRANCH   1  28
TORSDOF 6
