REMARK  Name = ZINC33734414
REMARK  16 active torsions:
REMARK  status: ('A' for Active; 'I' for Inactive)
REMARK    1  A    between atoms: C_1  and  C_2
REMARK    2  A    between atoms: C_2  and  C_3
REMARK    3  A    between atoms: C_3  and  O_4
REMARK    4  A    between atoms: O_4  and  C_5
REMARK    5  A    between atoms: C_5  and  C_7
REMARK    6  A    between atoms: C_8  and  C_37
REMARK    7  A    between atoms: C_12  and  C_14
REMARK    8  A    between atoms: C_16  and  O_23
REMARK    9  A    between atoms: C_17  and  O_22
REMARK   10  A    between atoms: C_18  and  O_20
REMARK   11  A    between atoms: O_20  and  C_21
REMARK   12  A    between atoms: O_23  and  C_24
REMARK   13  A    between atoms: C_27  and  C_33
REMARK   14  A    between atoms: C_29  and  C_32
REMARK   15  A    between atoms: C_33  and  O_35
REMARK   16  A    between atoms: O_35  and  C_36
REMARK                            x       y       z     vdW  Elec       q    Type
REMARK                         _______ _______ _______ _____ _____    ______ ____
ROOT
ATOM      1  C   UNL     1       0.339   4.375   7.133  0.00  0.00    +0.065 C 
ATOM      2  C   UNL     1      -0.301   5.556   7.073  0.00  0.00    +0.016 C 
ATOM      3  N   UNL     1      -1.264   5.775   6.129  0.00  0.00    -0.321 N 
ATOM      4  C   UNL     1      -1.331   4.994   5.006  0.00  0.00    +0.016 C 
ATOM      5  C   UNL     1      -0.728   3.787   4.973  0.00  0.00    +0.025 C 
ATOM      6  C   UNL     1       0.014   3.264   6.177  0.00  0.00    +0.092 C 
ATOM      7  C   UNL     1      -0.776   2.983   3.821  0.00  0.00    +0.176 C 
ATOM      8  O   UNL     1      -0.232   1.896   3.829  0.00  0.00    -0.291 OA
ATOM      9  C   UNL     1      -1.489   3.443   2.579  0.00  0.00    +0.171 C 
ATOM     10  C   UNL     1      -1.461   4.974   2.525  0.00  0.00    +0.013 C 
ATOM     11  C   UNL     1      -2.090   5.516   3.811  0.00  0.00    +0.055 C 
ATOM     12  C   UNL     1      -0.013   5.457   2.417  0.00  0.00    +0.009 C 
ATOM     13  C   UNL     1       0.046   6.645   8.055  0.00  0.00    +0.061 C 
ATOM     14  H   UNL     1      -1.995   6.585   6.266  0.00  0.00    +0.152 HD
ENDROOT
BRANCH   6  15
ATOM     15  C   UNL     1      -0.840   2.241   6.879  0.00  0.00    -0.028 A 
ATOM     16  C   UNL     1      -2.077   2.602   7.379  0.00  0.00    +0.054 A 
ATOM     17  C   UNL     1      -2.869   1.662   8.021  0.00  0.00    +0.165 A 
ATOM     18  C   UNL     1      -2.413   0.358   8.171  0.00  0.00    +0.201 A 
ATOM     19  C   UNL     1      -1.166   0.000   7.672  0.00  0.00    +0.165 A 
ATOM     20  C   UNL     1      -0.383   0.945   7.027  0.00  0.00    +0.054 A 
BRANCH  19  21
ATOM     21  O   UNL     1      -0.716  -1.275   7.816  0.00  0.00    -0.491 OA
ATOM     22  C   UNL     1       0.575  -1.571   7.278  0.00  0.00    +0.277 C 
ENDBRANCH  19  21
BRANCH  18  23
ATOM     23  O   UNL     1      -3.186  -0.567   8.804  0.00  0.00    -0.501 OA
ATOM     24  H   UNL     1      -2.823  -1.598   8.922  0.00  0.00    +0.292 HD
ENDBRANCH  18  23
BRANCH  17  25
ATOM     25  O   UNL     1      -4.089   2.017   8.507  0.00  0.00    -0.491 OA
ATOM     26  C   UNL     1      -4.493   3.374   8.317  0.00  0.00    +0.277 C 
ENDBRANCH  17  25
ENDBRANCH   6  15
BRANCH   1  27
ATOM     27  C   UNL     1       1.337   4.175   8.115  0.00  0.00    +0.338 C 
ATOM     28  O   UNL     1       1.609   5.068   8.896  0.00  0.00    -0.245 OA
BRANCH  27  29
ATOM     29  O   UNL     1       1.987   2.995   8.187  0.00  0.00    -0.461 OA
BRANCH  29  30
ATOM     30  C   UNL     1       2.983   2.863   9.203  0.00  0.00    +0.232 C 
BRANCH  30  32
ATOM     31  C   UNL     1       4.672   1.326  10.217  0.00  0.00    +0.007 C 
ATOM     32  C   UNL     1       3.606   1.467   9.129  0.00  0.00    +0.038 C 
ENDBRANCH  30  32
ENDBRANCH  29  30
ENDBRANCH  27  29
ENDBRANCH   1  27
BRANCH   9  33
ATOM     33  C   UNL     1      -0.797   2.883   1.363  0.00  0.00    +0.318 C 
ATOM     34  O   UNL     1      -0.336   3.630   0.533  0.00  0.00    -0.250 OA
BRANCH  33  35
ATOM     35  O   UNL     1      -0.692   1.554   1.203  0.00  0.00    -0.467 OA
ATOM     36  C   UNL     1      -0.013   1.086   0.008  0.00  0.00    +0.280 C 
ENDBRANCH  33  35
ENDBRANCH   9  33
TORSDOF 10
