REMARK  Name = ZINC39578629
REMARK  6 active torsions:
REMARK  status: ('A' for Active; 'I' for Inactive)
REMARK    1  A    between atoms: C_1  and  C_2
REMARK    2  A    between atoms: C_2  and  C_3
REMARK    3  A    between atoms: C_2  and  C_4
REMARK    4  A    between atoms: C_2  and  C_5
REMARK    5  A    between atoms: N_15  and  C_16
REMARK    6  A    between atoms: C_16  and  C_17
REMARK                            x       y       z     vdW  Elec       q    Type
REMARK                         _______ _______ _______ _____ _____    ______ ____
ROOT
ATOM      1  C   UNL     1       0.592  -0.186  -1.094  0.00  0.00    +0.216 C 
ATOM      2  N   UNL     1      -0.089   0.421  -2.244  0.00  0.00    -0.258 NA
ATOM      3  C   UNL     1       0.806   1.067  -2.934  0.00  0.00    +0.083 C 
ATOM      4  C   UNL     1       0.714   1.859  -4.171  0.00  0.00    +0.031 C 
ATOM      5  C   UNL     1       1.827   2.430  -4.672  0.00  0.00    +0.027 C 
ATOM      6  C   UNL     1       3.120   2.276  -4.011  0.00  0.00    +0.037 C 
ATOM      7  C   UNL     1       3.258   1.557  -2.868  0.00  0.00    +0.052 C 
ATOM      8  C   UNL     1       2.133   0.925  -2.278  0.00  0.00    +0.077 C 
ATOM      9  N   UNL     1       2.006   0.191  -1.202  0.00  0.00    -0.222 NA
ATOM     10  N   UNL     1       4.237   2.882  -4.565  0.00  0.00    -0.380 N 
ATOM     11  H   UNL     1       5.082   2.869  -4.090  0.00  0.00    +0.160 HD
ENDROOT
BRANCH   1  13
ATOM     12  C   UNL     1       0.136   1.879   0.237  0.00  0.00    +0.014 C 
ATOM     13  C   UNL     1       0.002   0.355   0.210  0.00  0.00    +0.003 C 
ATOM     14  C   UNL     1       0.757  -0.245   1.398  0.00  0.00    +0.014 C 
ATOM     15  C   UNL     1      -1.476  -0.029   0.299  0.00  0.00    +0.014 C 
ENDBRANCH   1  13
BRANCH  10  16
ATOM     16  C   UNL     1       4.141   3.542  -5.870  0.00  0.00    +0.155 C 
BRANCH  16  17
ATOM     17  C   UNL     1       4.359   5.023  -5.701  0.00  0.00    +0.010 A 
ATOM     18  C   UNL     1       5.516   5.728  -5.755  0.00  0.00    +0.028 A 
ATOM     19  C   UNL     1       5.476   7.097  -5.569  0.00  0.00    +0.025 A 
ATOM     20  C   UNL     1       4.281   7.694  -5.336  0.00  0.00    +0.060 A 
ATOM     21  S   UNL     1       3.159   6.307  -5.385  0.00  0.00    -0.099 S 
ATOM     22 BR   UNL     1       7.064   8.121  -5.635  0.00  0.00    -0.050 Br
ENDBRANCH  16  17
ENDBRANCH  10  16
TORSDOF 3
