REMARK  Name = ZINC08491750
REMARK  9 active torsions:
REMARK  status: ('A' for Active; 'I' for Inactive)
REMARK    1  A    between atoms: C_1  and  C_2
REMARK    2  A    between atoms: C_5  and  C_32
REMARK    3  A    between atoms: C_6  and  C_8
REMARK    4  A    between atoms: C_8  and  C_10
REMARK    5  A    between atoms: C_8  and  N_57
REMARK    6  A    between atoms: C_11  and  N_57
REMARK    7  A    between atoms: C_20  and  N_22
REMARK    8  A    between atoms: N_22  and  S_23
REMARK    9  A    between atoms: S_23  and  C_26
REMARK                            x       y       z     vdW  Elec       q    Type
REMARK                         _______ _______ _______ _____ _____    ______ ____
ROOT
ATOM      1  C   UNL     1       3.861  -0.258  -4.223  0.00  0.00    -0.021 C 
ATOM      2  C   UNL     1       4.656  -0.943  -5.314  0.00  0.00    -0.057 A 
ATOM      3  C   UNL     1       4.230  -1.607  -6.452  0.00  0.00    +0.002 A 
ATOM      4  C   UNL     1       5.151  -2.164  -7.318  0.00  0.00    +0.000 A 
ATOM      5  C   UNL     1       6.503  -2.057  -7.049  0.00  0.00    +0.000 A 
ATOM      6  C   UNL     1       6.929  -1.395  -5.914  0.00  0.00    +0.004 A 
ATOM      7  C   UNL     1       6.007  -0.837  -5.045  0.00  0.00    -0.044 A 
ATOM      8  C   UNL     1       6.213  -0.072  -3.755  0.00  0.00    +0.054 C 
ATOM      9  C   UNL     1       4.844  -0.104  -3.043  0.00  0.00    +0.071 C 
ENDROOT
BRANCH   1  10
ATOM     10  N   UNL     1       2.716  -1.100  -3.827  0.00  0.00    +0.389 N 
ATOM     11  H   UNL     1       2.447  -1.699  -4.617  0.00  0.00    -0.084 HD
ATOM     12  H   UNL     1       2.987  -1.686  -3.029  0.00  0.00    -0.084 HD
BRANCH  10  13
ATOM     13  C   UNL     1       1.569  -0.256  -3.444  0.00  0.00    -0.043 C 
ATOM     14  C   UNL     1       0.833   0.209  -4.702  0.00  0.00    -0.009 C 
BRANCH  13  20
ATOM     15  C   UNL     1      -0.113  -4.684  -1.829  0.00  0.00    +0.044 C 
ATOM     16  C   UNL     1      -0.174  -3.179  -1.809  0.00  0.00    -0.050 A 
ATOM     17  C   UNL     1      -1.091  -2.535  -0.999  0.00  0.00    +0.003 A 
ATOM     18  C   UNL     1      -1.148  -1.154  -0.980  0.00  0.00    +0.004 A 
ATOM     19  C   UNL     1      -0.283  -0.416  -1.768  0.00  0.00    -0.049 A 
ATOM     20  C   UNL     1       0.630  -1.060  -2.582  0.00  0.00    -0.058 A 
ATOM     21  C   UNL     1       0.686  -2.441  -2.600  0.00  0.00    +0.005 A 
ATOM     22  C   UNL     1      -0.340   1.089  -1.743  0.00  0.00    +0.044 C 
ENDBRANCH  13  20
ENDBRANCH  10  13
ENDBRANCH   1  10
BRANCH   9  23
ATOM     23  N   UNL     1       4.755  -1.253  -2.138  0.00  0.00    -0.188 NA
ATOM     24  H   UNL     1       4.577  -2.138  -2.493  0.00  0.00    +0.148 HD
BRANCH  23  25
ATOM     25  S   UNL     1       4.956  -1.040  -0.508  0.00  0.00    +0.059 S 
ATOM     26  O   UNL     1       6.137  -0.266  -0.342  0.00  0.00    -0.153 OA
ATOM     27  O   UNL     1       4.793  -2.317   0.092  0.00  0.00    -0.153 OA
BRANCH  25  28
ATOM     28  C   UNL     1       3.618  -0.043   0.057  0.00  0.00    +0.105 A 
ATOM     29  C   UNL     1       2.490  -0.638   0.591  0.00  0.00    +0.028 A 
ATOM     30  C   UNL     1       1.440   0.144   1.035  0.00  0.00    +0.002 A 
ATOM     31  C   UNL     1       1.518   1.521   0.945  0.00  0.00    +0.000 A 
ATOM     32  C   UNL     1       2.646   2.116   0.411  0.00  0.00    +0.002 A 
ATOM     33  C   UNL     1       3.695   1.334  -0.033  0.00  0.00    +0.028 A 
ENDBRANCH  25  28
ENDBRANCH  23  25
ENDBRANCH   9  23
TORSDOF 6
