REMARK  Name = ZINC00838559
REMARK  7 active torsions:
REMARK  status: ('A' for Active; 'I' for Inactive)
REMARK    1  A    between atoms: C_1  and  C_2
REMARK    2  A    between atoms: C_7  and  C_8
REMARK    3  A    between atoms: C_14  and  C_17
REMARK    4  A    between atoms: C_24  and  C_33
REMARK    5  A    between atoms: C_33  and  N_65
REMARK    6  A    between atoms: C_34  and  N_65
REMARK    7  A    between atoms: C_35  and  N_65
REMARK                            x       y       z     vdW  Elec       q    Type
REMARK                         _______ _______ _______ _____ _____    ______ ____
ROOT
ATOM      1  C   UNL     1       0.090   2.800  -1.156  0.00  0.00    +0.253 C 
ATOM      2  O   UNL     1      -0.054   1.593  -1.138  0.00  0.00    -0.270 OA
ATOM      3  N   UNL     1      -0.975   3.604  -1.344  0.00  0.00    -0.261 N 
ATOM      4  C   UNL     1      -2.306   3.023  -1.400  0.00  0.00    +0.167 C 
ATOM      5  C   UNL     1      -3.165   3.507  -0.254  0.00  0.00    +0.037 A 
ATOM      6  C   UNL     1      -4.383   2.977   0.023  0.00  0.00    +0.024 A 
ATOM      7  C   UNL     1      -4.921   3.696   1.104  0.00  0.00    +0.021 A 
ATOM      8  C   UNL     1      -4.017   4.627   1.453  0.00  0.00    +0.003 A 
ATOM      9  N   UNL     1      -2.921   4.504   0.630  0.00  0.00    -0.344 N 
ATOM     10  C   UNL     1      -1.739   5.349   0.784  0.00  0.00    +0.158 C 
ATOM     11  C   UNL     1      -1.223   5.867  -0.529  0.00  0.00    -0.006 A 
ATOM     12  C   UNL     1      -0.781   4.972  -1.487  0.00  0.00    +0.042 A 
ATOM     13  C   UNL     1      -0.141   5.454  -2.627  0.00  0.00    +0.024 A 
ATOM     14  C   UNL     1      -0.001   6.813  -2.819  0.00  0.00    +0.002 A 
ATOM     15  C   UNL     1      -0.500   7.702  -1.885  0.00  0.00    +0.000 A 
ATOM     16  C   UNL     1      -1.113   7.228  -0.739  0.00  0.00    +0.007 A 
ENDROOT
BRANCH   1  23
ATOM     17  C   UNL     1       6.272   4.259  -1.073  0.00  0.00    +0.250 C 
ATOM     18  O   UNL     1       6.104   3.188  -1.623  0.00  0.00    -0.270 OA
ATOM     19  N   UNL     1       5.224   4.911  -0.532  0.00  0.00    -0.266 N 
ATOM     20  C   UNL     1       3.940   4.403  -0.678  0.00  0.00    +0.125 A 
ATOM     21  C   UNL     1       2.853   5.140  -0.214  0.00  0.00    +0.044 A 
ATOM     22  C   UNL     1       1.588   4.636  -0.359  0.00  0.00    +0.018 A 
ATOM     23  C   UNL     1       1.433   3.385  -0.976  0.00  0.00    +0.055 A 
ATOM     24  C   UNL     1       2.568   2.699  -1.412  0.00  0.00    +0.126 A 
ATOM     25  N   UNL     1       3.766   3.223  -1.257  0.00  0.00    -0.239 NA
ATOM     26  H   UNL     1       5.366   5.736  -0.041  0.00  0.00    +0.157 HD
BRANCH  17  33
ATOM     27  C   UNL     1       8.513   2.838  -2.225  0.00  0.00    +0.044 C 
ATOM     28  C   UNL     1       8.716   4.170  -1.549  0.00  0.00    -0.038 A 
ATOM     29  C   UNL     1       9.977   4.724  -1.480  0.00  0.00    +0.007 A 
ATOM     30  C   UNL     1      10.167   5.943  -0.853  0.00  0.00    +0.038 A 
ATOM     31  C   UNL     1       9.092   6.618  -0.297  0.00  0.00    +0.124 A 
ATOM     32  C   UNL     1       7.823   6.075  -0.365  0.00  0.00    +0.051 A 
ATOM     33  C   UNL     1       7.627   4.846  -0.996  0.00  0.00    +0.043 A 
ATOM     34  F   UNL     1       9.285   7.807   0.314  0.00  0.00    -0.205 F 
ENDBRANCH  17  33
ENDBRANCH   1  23
BRANCH   8  35
ATOM     35  C   UNL     1      -4.176   5.638   2.560  0.00  0.00    -0.025 C 
BRANCH  35  38
ATOM     36  C   UNL     1      -2.094   5.010   3.624  0.00  0.00    -0.096 C 
ATOM     37  C   UNL     1      -3.887   5.967   4.941  0.00  0.00    -0.096 C 
ATOM     38  N   UNL     1      -3.560   5.098   3.790  0.00  0.00    +0.380 N 
ATOM     39  H   UNL     1      -3.933   4.158   3.966  0.00  0.00    -0.082 HD
ENDBRANCH  35  38
ENDBRANCH   8  35
TORSDOF 4
