REMARK  Name = ZINC58528058
REMARK  9 active torsions:
REMARK  status: ('A' for Active; 'I' for Inactive)
REMARK    1  A    between atoms: C_1  and  C_2
REMARK    2  A    between atoms: C_11  and  S_19
REMARK    3  A    between atoms: N_12  and  C_13
REMARK    4  A    between atoms: C_13  and  C_14
REMARK    5  A    between atoms: S_19  and  C_20
REMARK    6  A    between atoms: C_20  and  C_22
REMARK    7  A    between atoms: C_20  and  C_23
REMARK    8  A    between atoms: N_25  and  C_26
REMARK    9  A    between atoms: C_27  and  C_31
REMARK                            x       y       z     vdW  Elec       q    Type
REMARK                         _______ _______ _______ _____ _____    ______ ____
ROOT
ATOM      1  C   UNL     1      -1.802  -0.510  -2.153  0.00  0.00    +0.007 C 
ATOM      2  C   UNL     1      -0.957  -1.109  -1.028  0.00  0.00    -0.011 C 
ATOM      3  C   UNL     1      -1.003  -2.636  -1.113  0.00  0.00    +0.022 C 
ATOM      4  C   UNL     1      -0.184  -3.233   0.035  0.00  0.00    +0.108 C 
ATOM      5  N   UNL     1       1.171  -2.667  -0.006  0.00  0.00    -0.300 N 
ATOM      6  C   UNL     1       1.326  -1.206  -0.019  0.00  0.00    +0.108 C 
ATOM      7  C   UNL     1       0.490  -0.632  -1.168  0.00  0.00    +0.022 C 
ATOM      8  C   UNL     1       2.285  -3.497  -0.032  0.00  0.00    +0.221 A 
ATOM      9  N   UNL     1       2.819  -4.036  -1.100  0.00  0.00    -0.112 NA
ATOM     10  N   UNL     1       3.921  -4.800  -0.694  0.00  0.00    -0.121 NA
ATOM     11  C   UNL     1       4.024  -4.702   0.609  0.00  0.00    +0.194 A 
ATOM     12  N   UNL     1       3.019  -3.889   1.052  0.00  0.00    -0.283 N 
ENDROOT
BRANCH  12  13
ATOM     13  C   UNL     1       2.769  -3.509   2.444  0.00  0.00    +0.201 C 
BRANCH  13  14
ATOM     14  C   UNL     1       1.856  -4.521   3.086  0.00  0.00    +0.125 A 
ATOM     15  C   UNL     1       2.246  -5.630   3.740  0.00  0.00    +0.046 A 
ATOM     16  C   UNL     1       1.071  -6.284   4.175  0.00  0.00    +0.041 A 
ATOM     17  C   UNL     1       0.032  -5.535   3.761  0.00  0.00    +0.195 A 
ATOM     18  O   UNL     1       0.514  -4.466   3.107  0.00  0.00    -0.466 OA
ENDBRANCH  13  14
ENDBRANCH  12  13
BRANCH  11  19
ATOM     19  S   UNL     1       5.248  -5.477   1.612  0.00  0.00    -0.073 S 
BRANCH  19  20
ATOM     20  C   UNL     1       6.270  -6.395   0.427  0.00  0.00    +0.137 C 
ATOM     21  C   UNL     1       5.432  -7.497  -0.224  0.00  0.00    +0.029 C 
BRANCH  20  22
ATOM     22  C   UNL     1       7.441  -7.013   1.147  0.00  0.00    +0.231 C 
ATOM     23  O   UNL     1       7.364  -7.255   2.333  0.00  0.00    -0.274 OA
ATOM     24  N   UNL     1       8.572  -7.298   0.473  0.00  0.00    -0.278 N 
ATOM     25  H   UNL     1       8.634  -7.104  -0.475  0.00  0.00    +0.155 HD
BRANCH  24  26
ATOM     26  C   UNL     1       9.650  -7.867   1.136  0.00  0.00    +0.084 A 
ATOM     27  C   UNL     1      10.884  -8.219   0.611  0.00  0.00    +0.065 A 
ATOM     28  C   UNL     1      11.836  -8.800   1.531  0.00  0.00    +0.022 A 
ATOM     29  C   UNL     1      11.415  -8.935   2.802  0.00  0.00    +0.048 A 
ATOM     30  S   UNL     1       9.761  -8.281   2.758  0.00  0.00    -0.081 S 
BRANCH  27  31
ATOM     31  C   UNL     1      11.207  -8.012  -0.804  0.00  0.00    +0.244 C 
ATOM     32  O   UNL     1      10.382  -7.521  -1.552  0.00  0.00    -0.270 OA
ATOM     33  N   UNL     1      12.418  -8.367  -1.278  0.00  0.00    -0.325 N 
ATOM     34  H   UNL     1      13.076  -8.759  -0.682  0.00  0.00    +0.145 HD
ATOM     35  H   UNL     1      12.632  -8.231  -2.214  0.00  0.00    +0.145 HD
ENDBRANCH  27  31
ENDBRANCH  24  26
ENDBRANCH  20  22
ENDBRANCH  19  20
ENDBRANCH  11  19
TORSDOF 7
