REMARK  Name = ZINC10538899
REMARK  9 active torsions:
REMARK  status: ('A' for Active; 'I' for Inactive)
REMARK    1  A    between atoms: C_1  and  C_2
REMARK    2  A    between atoms: C_2  and  O_3
REMARK    3  A    between atoms: O_3  and  C_4
REMARK    4  A    between atoms: C_4  and  C_6
REMARK    5  A    between atoms: C_7  and  C_21
REMARK    6  A    between atoms: C_12  and  C_14
REMARK    7  A    between atoms: C_21  and  O_22
REMARK    8  A    between atoms: O_22  and  C_23
REMARK    9  A    between atoms: C_23  and  C_25
REMARK                            x       y       z     vdW  Elec       q    Type
REMARK                         _______ _______ _______ _____ _____    ______ ____
ROOT
ATOM      1  C   UNL     1      -4.383   2.044  -1.071  0.00  0.00    +0.081 C 
ATOM      2  C   UNL     1      -3.603   1.966   0.029  0.00  0.00    +0.061 C 
ATOM      3  N   UNL     1      -3.896   2.683   1.153  0.00  0.00    -0.269 N 
ATOM      4  C   UNL     1      -4.944   3.510   1.255  0.00  0.00    +0.304 C 
ATOM      5  O   UNL     1      -5.120   4.111   2.296  0.00  0.00    -0.252 OA
ATOM      6  N   UNL     1      -5.813   3.693   0.241  0.00  0.00    -0.288 N 
ATOM      7  C   UNL     1      -5.589   2.959  -1.016  0.00  0.00    +0.144 C 
ATOM      8  H   UNL     1      -3.309   2.591   1.920  0.00  0.00    +0.156 HD
ATOM      9  H   UNL     1      -6.569   4.294   0.337  0.00  0.00    +0.151 HD
ENDROOT
BRANCH   7  10
ATOM     10  C   UNL     1      -5.456   3.971  -2.126  0.00  0.00    -0.022 A 
ATOM     11  C   UNL     1      -4.638   5.073  -1.962  0.00  0.00    +0.007 A 
ATOM     12  C   UNL     1      -4.512   5.998  -2.981  0.00  0.00    +0.020 A 
ATOM     13  C   UNL     1      -5.213   5.826  -4.162  0.00  0.00    +0.041 A 
ATOM     14  C   UNL     1      -6.036   4.725  -4.323  0.00  0.00    +0.020 A 
ATOM     15  C   UNL     1      -6.157   3.798  -3.305  0.00  0.00    +0.007 A 
ATOM     16 CL   UNL     1      -5.060   6.991  -5.439  0.00  0.00    -0.084 Cl
ENDBRANCH   7  10
BRANCH   1  17
ATOM     17  C   UNL     1      -4.084   1.297  -2.235  0.00  0.00    +0.339 C 
ATOM     18  O   UNL     1      -3.167   0.498  -2.225  0.00  0.00    -0.245 OA
BRANCH  17  19
ATOM     19  O   UNL     1      -4.817   1.471  -3.354  0.00  0.00    -0.462 OA
BRANCH  19  21
ATOM     20  C   UNL     1      -5.394   1.016  -5.657  0.00  0.00    +0.048 C 
ATOM     21  C   UNL     1      -4.459   0.684  -4.492  0.00  0.00    +0.229 C 
ENDBRANCH  19  21
ENDBRANCH  17  19
ENDBRANCH   1  17
BRANCH   2  22
ATOM     22  C   UNL     1      -2.393   1.067   0.017  0.00  0.00    +0.283 C 
BRANCH  22  23
ATOM     23  O   UNL     1      -1.683   1.194   1.277  0.00  0.00    -0.455 OA
BRANCH  23  24
ATOM     24  C   UNL     1      -0.570   0.451   1.429  0.00  0.00    +0.340 C 
ATOM     25  O   UNL     1      -0.202  -0.283   0.534  0.00  0.00    -0.245 OA
BRANCH  24  26
ATOM     26  C   UNL     1       0.206   0.533   2.681  0.00  0.00    +0.060 A 
ATOM     27  C   UNL     1      -0.210   1.377   3.721  0.00  0.00    +0.017 A 
ATOM     28  C   UNL     1       0.488   1.469   4.880  0.00  0.00    +0.029 A 
ATOM     29  C   UNL     1       1.666   0.712   5.081  0.00  0.00    +0.078 A 
ATOM     30  C   UNL     1       2.068  -0.134   4.019  0.00  0.00    +0.040 A 
ATOM     31  C   UNL     1       1.363  -0.234   2.849  0.00  0.00    +0.032 A 
ATOM     32  S   UNL     1       3.544  -0.875   4.670  0.00  0.00    -0.075 S 
ATOM     33  C   UNL     1       3.541  -0.073   6.210  0.00  0.00    +0.157 A 
ATOM     34  N   UNL     1       2.476   0.678   6.157  0.00  0.00    -0.247 NA
ENDBRANCH  24  26
ENDBRANCH  23  24
ENDBRANCH  22  23
ENDBRANCH   2  22
TORSDOF 8
