REMARK  Name = ZINC39636615
REMARK  8 active torsions:
REMARK  status: ('A' for Active; 'I' for Inactive)
REMARK    1  A    between atoms: C_1  and  C_2
REMARK    2  A    between atoms: C_5  and  C_38
REMARK    3  A    between atoms: C_6  and  C_8
REMARK    4  A    between atoms: C_8  and  N_9
REMARK    5  A    between atoms: C_10  and  C_12
REMARK    6  A    between atoms: C_23  and  C_25
REMARK    7  A    between atoms: C_30  and  S_31
REMARK    8  A    between atoms: S_31  and  C_32
REMARK                            x       y       z     vdW  Elec       q    Type
REMARK                         _______ _______ _______ _____ _____    ______ ____
ROOT
ATOM      1  C   UNL     1       3.545  -4.170   4.527  0.00  0.00    +0.100 C 
ATOM      2  C   UNL     1       3.793  -5.202   3.404  0.00  0.00    +0.121 C 
ATOM      3  N   UNL     1       4.469  -6.335   4.079  0.00  0.00    -0.296 N 
ATOM      4  C   UNL     1       3.778  -6.451   5.386  0.00  0.00    +0.115 C 
ATOM      5  C   UNL     1       3.535  -4.993   5.825  0.00  0.00    -0.004 C 
ATOM      6  C   UNL     1       4.653  -4.529   6.754  0.00  0.00    -0.010 C 
ATOM      7  C   UNL     1       4.588  -5.324   8.061  0.00  0.00    -0.082 C 
ATOM      8  N   UNL     1       3.281  -5.118   8.696  0.00  0.00    +0.379 N 
ATOM      9  C   UNL     1       2.217  -5.651   7.837  0.00  0.00    -0.082 C 
ATOM     10  C   UNL     1       2.182  -4.871   6.519  0.00  0.00    -0.010 C 
ATOM     11  C   UNL     1       5.484  -7.089   3.612  0.00  0.00    +0.249 C 
ATOM     12  O   UNL     1       5.871  -8.049   4.249  0.00  0.00    -0.270 OA
ATOM     13  H   UNL     1       3.262  -5.593   9.586  0.00  0.00    -0.086 HD
ATOM     14  H   UNL     1       3.130  -4.131   8.841  0.00  0.00    -0.086 HD
ENDROOT
BRANCH  11  15
ATOM     15  C   UNL     1       6.124  -6.748   2.328  0.00  0.00    +0.069 A 
ATOM     16  C   UNL     1       5.369  -6.226   1.272  0.00  0.00    +0.017 A 
ATOM     17  C   UNL     1       6.017  -5.923   0.088  0.00  0.00    +0.020 A 
ATOM     18  C   UNL     1       7.380  -6.141  -0.019  0.00  0.00    +0.112 A 
ATOM     19  N   UNL     1       8.074  -6.634   0.987  0.00  0.00    -0.248 NA
ATOM     20  C   UNL     1       7.505  -6.937   2.145  0.00  0.00    +0.114 A 
BRANCH  20  21
ATOM     21  S   UNL     1       8.483  -7.587   3.459  0.00  0.00    -0.069 S 
BRANCH  21  22
ATOM     22  C   UNL     1      10.077  -7.798   2.739  0.00  0.00    +0.014 A 
ATOM     23  C   UNL     1      11.039  -6.804   2.872  0.00  0.00    +0.015 A 
ATOM     24  C   UNL     1      12.287  -6.973   2.307  0.00  0.00    +0.001 A 
ATOM     25  C   UNL     1      12.581  -8.131   1.609  0.00  0.00    +0.000 A 
ATOM     26  C   UNL     1      11.626  -9.122   1.474  0.00  0.00    +0.001 A 
ATOM     27  C   UNL     1      10.377  -8.962   2.042  0.00  0.00    +0.015 A 
ENDBRANCH  21  22
ENDBRANCH  20  21
ENDBRANCH  11  15
BRANCH   1  29
ATOM     28  N   UNL     1       2.030  -2.230   4.775  0.00  0.00    -0.311 N 
ATOM     29  C   UNL     1       2.216  -3.488   4.328  0.00  0.00    +0.218 C 
ATOM     30  O   UNL     1       1.313  -4.071   3.766  0.00  0.00    -0.275 OA
ATOM     31  H   UNL     1       2.752  -1.764   5.225  0.00  0.00    +0.149 HD
BRANCH  28  32
ATOM     32  C   UNL     1       0.738  -1.567   4.582  0.00  0.00    +0.139 C 
BRANCH  32  38
ATOM     33  C   UNL     1      -0.296   1.606   8.311  0.00  0.00    +0.044 C 
ATOM     34  C   UNL     1       0.297   1.339   6.952  0.00  0.00    -0.050 A 
ATOM     35  C   UNL     1       0.892   2.366   6.243  0.00  0.00    +0.003 A 
ATOM     36  C   UNL     1       1.437   2.120   4.997  0.00  0.00    +0.004 A 
ATOM     37  C   UNL     1       1.387   0.847   4.459  0.00  0.00    -0.046 A 
ATOM     38  C   UNL     1       0.793  -0.180   5.168  0.00  0.00    -0.027 A 
ATOM     39  C   UNL     1       0.252   0.065   6.417  0.00  0.00    +0.008 A 
ATOM     40  C   UNL     1       1.980   0.580   3.100  0.00  0.00    +0.044 C 
ENDBRANCH  32  38
ENDBRANCH  28  32
ENDBRANCH   1  29
TORSDOF 6
