REMARK  Name = ZINC17025876
REMARK  10 active torsions:
REMARK  status: ('A' for Active; 'I' for Inactive)
REMARK    1  A    between atoms: C_1  and  C_2
REMARK    2  A    between atoms: C_5  and  N_9
REMARK    3  A    between atoms: C_6  and  C_8
REMARK    4  A    between atoms: C_10  and  C_12
REMARK    5  A    between atoms: C_12  and  S_13
REMARK    6  A    between atoms: S_13  and  C_14
REMARK    7  A    between atoms: C_17  and  C_27
REMARK    8  A    between atoms: N_18  and  C_19
REMARK    9  A    between atoms: C_23  and  O_25
REMARK   10  A    between atoms: O_25  and  C_26
REMARK                            x       y       z     vdW  Elec       q    Type
REMARK                         _______ _______ _______ _____ _____    ______ ____
ROOT
ATOM      1  C   UNL     1      -0.356  -8.692  -2.728  0.00  0.00    +0.197 A 
ATOM      2  N   UNL     1      -0.348  -9.368  -1.603  0.00  0.00    -0.122 NA
ATOM      3  N   UNL     1      -0.437 -10.628  -1.842  0.00  0.00    -0.128 NA
ATOM      4  C   UNL     1      -0.506 -10.836  -3.137  0.00  0.00    +0.171 A 
ATOM      5  N   UNL     1      -0.463  -9.601  -3.747  0.00  0.00    -0.270 N 
ENDROOT
BRANCH   4   6
ATOM      6  C   UNL     1      -0.616 -12.145  -3.811  0.00  0.00    +0.045 A 
ATOM      7  C   UNL     1      -0.682 -12.366  -5.150  0.00  0.00    +0.095 A 
ATOM      8  N   UNL     1      -0.776 -13.706  -5.392  0.00  0.00    -0.360 N 
ATOM      9  H   UNL     1      -0.836 -14.108  -6.273  0.00  0.00    +0.165 HD
ATOM     10  C   UNL     1      -0.775 -14.405  -4.204  0.00  0.00    +0.047 A 
ATOM     11  C   UNL     1      -0.669 -13.467  -3.163  0.00  0.00    +0.010 A 
ATOM     12  C   UNL     1      -0.639 -13.896  -1.838  0.00  0.00    +0.011 A 
ATOM     13  C   UNL     1      -0.710 -15.242  -1.555  0.00  0.00    +0.001 A 
ATOM     14  C   UNL     1      -0.810 -16.169  -2.582  0.00  0.00    +0.002 A 
ATOM     15  C   UNL     1      -0.850 -15.760  -3.897  0.00  0.00    +0.026 A 
ENDBRANCH   4   6
BRANCH   5  16
ATOM     16  C   UNL     1      -0.514  -9.332  -5.122  0.00  0.00    +0.054 A 
ATOM     17  C   UNL     1      -1.663  -9.624  -5.845  0.00  0.00    +0.026 A 
ATOM     18  C   UNL     1      -1.714  -9.358  -7.200  0.00  0.00    +0.006 A 
ATOM     19  C   UNL     1      -0.622  -8.803  -7.839  0.00  0.00    +0.046 A 
ATOM     20  C   UNL     1       0.529  -8.511  -7.122  0.00  0.00    +0.122 A 
ATOM     21  C   UNL     1       0.581  -8.770  -5.761  0.00  0.00    +0.072 A 
BRANCH  20  22
ATOM     22  O   UNL     1       1.603  -7.965  -7.752  0.00  0.00    -0.495 OA
ATOM     23  C   UNL     1       1.477  -7.720  -9.154  0.00  0.00    +0.277 C 
ENDBRANCH  20  22
ENDBRANCH   5  16
BRANCH   1  24
ATOM     24  S   UNL     1      -0.255  -6.941  -2.895  0.00  0.00    -0.076 S 
BRANCH  24  25
ATOM     25  C   UNL     1      -0.134  -6.343  -1.187  0.00  0.00    +0.173 C 
BRANCH  25  27
ATOM     26  N   UNL     1       0.059  -4.170  -0.021  0.00  0.00    -0.285 N 
ATOM     27  C   UNL     1      -0.040  -4.839  -1.187  0.00  0.00    +0.227 C 
ATOM     28  O   UNL     1      -0.054  -4.230  -2.236  0.00  0.00    -0.275 OA
ATOM     29  H   UNL     1       0.135  -4.658   0.814  0.00  0.00    +0.155 HD
BRANCH  26  34
ATOM     30  C   UNL     1       0.025   1.503   0.005  0.00  0.00    +0.044 C 
ATOM     31  C   UNL     1       0.034  -0.004  -0.002  0.00  0.00    -0.050 A 
ATOM     32  C   UNL     1       0.632  -0.685  -1.046  0.00  0.00    +0.005 A 
ATOM     33  C   UNL     1       0.641  -2.066  -1.055  0.00  0.00    +0.024 A 
ATOM     34  C   UNL     1       0.051  -2.771  -0.014  0.00  0.00    +0.036 A 
ATOM     35  C   UNL     1      -0.548  -2.083   1.033  0.00  0.00    -0.029 A 
ATOM     36  C   UNL     1      -0.550  -0.702   1.039  0.00  0.00    +0.008 A 
ATOM     37  C   UNL     1      -1.190  -2.843   2.165  0.00  0.00    +0.045 C 
ENDBRANCH  26  34
ENDBRANCH  25  27
ENDBRANCH  24  25
ENDBRANCH   1  24
TORSDOF 7
