REMARK  Name = ZINC46729436
REMARK  7 active torsions:
REMARK  status: ('A' for Active; 'I' for Inactive)
REMARK    1  A    between atoms: C_1  and  C_2
REMARK    2  A    between atoms: C_5  and  C_8
REMARK    3  A    between atoms: C_14  and  C_17
REMARK    4  A    between atoms: N_19  and  C_20
REMARK    5  A    between atoms: C_20  and  C_21
REMARK    6  A    between atoms: C_21  and  C_23
REMARK    7  A    between atoms: C_21  and  N_28
REMARK                            x       y       z     vdW  Elec       q    Type
REMARK                         _______ _______ _______ _____ _____    ______ ____
ROOT
ATOM      1  C   UNL     1       1.206  -8.297   1.986  0.00  0.00    +0.218 C 
ATOM      2  O   UNL     1       1.195  -8.799   3.090  0.00  0.00    -0.275 OA
ATOM      3  N   UNL     1       1.439  -9.062   0.901  0.00  0.00    -0.316 N 
ATOM      4  H   UNL     1       1.448  -8.661   0.018  0.00  0.00    +0.149 HD
ENDROOT
BRANCH   1  11
ATOM      5  C   UNL     1      -0.714  -4.519  -0.265  0.00  0.00    +0.247 C 
ATOM      6  O   UNL     1      -0.660  -5.142  -1.307  0.00  0.00    -0.270 OA
ATOM      7  N   UNL     1      -0.582  -5.162   0.912  0.00  0.00    -0.297 N 
ATOM      8  C   UNL     1      -0.738  -4.439   2.182  0.00  0.00    +0.108 C 
ATOM      9  C   UNL     1       0.504  -4.684   3.045  0.00  0.00    +0.020 C 
ATOM     10  C   UNL     1       0.722  -6.190   3.202  0.00  0.00    +0.016 C 
ATOM     11  C   UNL     1       0.958  -6.819   1.827  0.00  0.00    +0.092 C 
ATOM     12  C   UNL     1      -0.284  -6.600   0.950  0.00  0.00    +0.120 C 
BRANCH   5  17
ATOM     13  C   UNL     1      -1.531   1.177  -0.355  0.00  0.00    +0.044 C 
ATOM     14  C   UNL     1      -1.317  -0.315  -0.332  0.00  0.00    -0.050 A 
ATOM     15  C   UNL     1      -2.042  -1.101   0.546  0.00  0.00    +0.004 A 
ATOM     16  C   UNL     1      -1.851  -2.467   0.573  0.00  0.00    +0.013 A 
ATOM     17  C   UNL     1      -0.924  -3.055  -0.288  0.00  0.00    +0.037 A 
ATOM     18  C   UNL     1      -0.195  -2.257  -1.171  0.00  0.00    +0.013 A 
ATOM     19  C   UNL     1      -0.400  -0.892  -1.192  0.00  0.00    +0.004 A 
ENDBRANCH   5  17
ENDBRANCH   1  11
BRANCH   3  20
ATOM     20  C   UNL     1       1.680 -10.499   1.055  0.00  0.00    +0.096 C 
BRANCH  20  21
ATOM     21  C   UNL     1       2.027 -11.107  -0.305  0.00  0.00    +0.016 C 
BRANCH  21  22
ATOM     22  N   UNL     1       0.975 -10.774  -1.274  0.00  0.00    +0.387 N 
ATOM     23  C   UNL     1      -0.327 -11.198  -0.744  0.00  0.00    -0.078 C 
ATOM     24  C   UNL     1      -1.436 -10.781  -1.712  0.00  0.00    -0.019 C 
ATOM     25  C   UNL     1      -1.195 -11.443  -3.072  0.00  0.00    -0.004 C 
ATOM     26  C   UNL     1       0.196 -11.053  -3.580  0.00  0.00    -0.019 C 
ATOM     27  C   UNL     1       1.244 -11.460  -2.543  0.00  0.00    -0.078 C 
ATOM     28  H   UNL     1       0.964  -9.776  -1.427  0.00  0.00    -0.081 HD
ENDBRANCH  21  22
BRANCH  21  29
ATOM     29  C   UNL     1       2.134 -12.604  -0.173  0.00  0.00    +0.093 A 
ATOM     30  C   UNL     1       3.276 -13.305  -0.057  0.00  0.00    +0.043 A 
ATOM     31  C   UNL     1       2.913 -14.668   0.040  0.00  0.00    +0.041 A 
ATOM     32  C   UNL     1       1.570 -14.719  -0.024  0.00  0.00    +0.195 A 
ATOM     33  O   UNL     1       1.103 -13.465  -0.147  0.00  0.00    -0.469 OA
ENDBRANCH  21  29
ENDBRANCH  20  21
ENDBRANCH   3  20
TORSDOF 6
