REMARK  Name = ZINC05019639
REMARK  4 active torsions:
REMARK  status: ('A' for Active; 'I' for Inactive)
REMARK    1  A    between atoms: C_1  and  C_2
REMARK    2  A    between atoms: C_7  and  C_16
REMARK    3  A    between atoms: N_9  and  C_10
REMARK    4  A    between atoms: C_16  and  C_17
REMARK                            x       y       z     vdW  Elec       q    Type
REMARK                         _______ _______ _______ _____ _____    ______ ____
ROOT
ATOM      1  C   UNL     1      -5.433   0.040   4.011  0.00  0.00    +0.008 C 
ATOM      2  C   UNL     1      -4.316   0.487   3.066  0.00  0.00    -0.001 C 
ATOM      3  C   UNL     1      -3.389   1.458   3.805  0.00  0.00    +0.060 C 
ATOM      4  C   UNL     1      -2.195   1.761   2.938  0.00  0.00    +0.056 A 
ATOM      5  C   UNL     1      -1.793   0.943   1.885  0.00  0.00    +0.062 A 
ATOM      6  C   UNL     1      -0.661   1.528   1.302  0.00  0.00    +0.074 A 
ATOM      7  N   UNL     1      -0.393   2.623   1.966  0.00  0.00    -0.170 NA
ATOM      8  N   UNL     1      -1.343   2.786   2.987  0.00  0.00    -0.236 N 
ATOM      9  C   UNL     1      -2.518  -0.293   1.551  0.00  0.00    +0.167 C 
ATOM     10  O   UNL     1      -2.315  -0.909   0.526  0.00  0.00    -0.292 OA
ATOM     11  C   UNL     1      -3.539  -0.742   2.585  0.00  0.00    +0.083 C 
ENDROOT
BRANCH   8  12
ATOM     12  C   UNL     1      -1.385   3.843   3.905  0.00  0.00    +0.066 A 
ATOM     13  C   UNL     1      -1.144   5.143   3.481  0.00  0.00    +0.028 A 
ATOM     14  C   UNL     1      -1.191   6.184   4.387  0.00  0.00    +0.002 A 
ATOM     15  C   UNL     1      -1.466   5.931   5.719  0.00  0.00    +0.000 A 
ATOM     16  C   UNL     1      -1.702   4.637   6.145  0.00  0.00    +0.002 A 
ATOM     17  C   UNL     1      -1.661   3.593   5.242  0.00  0.00    +0.028 A 
ENDBRANCH   8  12
BRANCH   6  18
ATOM     18  C   UNL     1       0.112   0.989   0.126  0.00  0.00    +0.062 C 
BRANCH  18  19
ATOM     19  C   UNL     1      -0.474   1.551  -1.171  0.00  0.00    +0.012 C 
ATOM     20  C   UNL     1      -1.896   1.015  -1.368  0.00  0.00    +0.100 C 
ATOM     21  C   UNL     1      -2.420   1.481  -2.701  0.00  0.00    +0.219 C 
ATOM     22  O   UNL     1      -3.612   1.645  -2.846  0.00  0.00    -0.275 OA
ATOM     23  N   UNL     1      -1.593   1.718  -3.730  0.00  0.00    -0.256 N 
ATOM     24  C   UNL     1      -0.263   1.568  -3.638  0.00  0.00    +0.219 C 
ATOM     25  O   UNL     1       0.431   1.808  -4.603  0.00  0.00    -0.275 OA
ATOM     26  C   UNL     1       0.385   1.106  -2.359  0.00  0.00    +0.100 C 
ATOM     27  H   UNL     1      -1.971   2.010  -4.574  0.00  0.00    +0.157 HD
ENDBRANCH  18  19
ENDBRANCH   6  18
TORSDOF 3
