REMARK  Name = ZINC03537236
REMARK  7 active torsions:
REMARK  status: ('A' for Active; 'I' for Inactive)
REMARK    1  A    between atoms: C_1  and  C_2
REMARK    2  A    between atoms: C_2  and  N_3
REMARK    3  A    between atoms: C_4  and  C_23
REMARK    4  A    between atoms: C_7  and  S_8
REMARK    5  A    between atoms: S_8  and  C_9
REMARK    6  A    between atoms: C_9  and  C_10
REMARK    7  A    between atoms: C_10  and  C_12
REMARK                            x       y       z     vdW  Elec       q    Type
REMARK                         _______ _______ _______ _____ _____    ______ ____
ROOT
ATOM      1  S   UNL     1      -1.505  -3.599  -0.267  0.00  0.00    -0.078 S 
ENDROOT
BRANCH   1   6
ATOM      2  N   UNL     1      -1.079  -0.836  -0.179  0.00  0.00    -0.302 N 
ATOM      3  C   UNL     1       0.003  -0.004  -0.002  0.00  0.00    +0.165 A 
ATOM      4  N   UNL     1       1.054  -0.771   0.170  0.00  0.00    -0.128 NA
ATOM      5  N   UNL     1       0.710  -2.008   0.107  0.00  0.00    -0.122 NA
ATOM      6  C   UNL     1      -0.583  -2.106  -0.107  0.00  0.00    +0.192 A 
BRANCH   3   7
ATOM      7  C   UNL     1      -0.017   1.474   0.002  0.00  0.00    +0.019 A 
ATOM      8  C   UNL     1      -1.082   2.162  -0.582  0.00  0.00    +0.013 A 
ATOM      9  C   UNL     1      -1.096   3.542  -0.571  0.00  0.00    +0.021 A 
ATOM     10  C   UNL     1      -0.052   4.244   0.007  0.00  0.00    +0.041 A 
ATOM     11  C   UNL     1       1.010   3.566   0.583  0.00  0.00    +0.021 A 
ATOM     12  C   UNL     1       1.033   2.187   0.583  0.00  0.00    +0.013 A 
ATOM     13 CL   UNL     1      -0.075   5.979   0.011  0.00  0.00    -0.084 Cl
ENDBRANCH   3   7
BRANCH   2  15
ATOM     14  C   UNL     1      -2.762  -0.413  -1.903  0.00  0.00    +0.027 C 
ATOM     15  C   UNL     1      -2.472  -0.441  -0.401  0.00  0.00    +0.122 C 
ENDBRANCH   2  15
ENDBRANCH   1   6
BRANCH   1  16
ATOM     16  C   UNL     1      -0.179  -4.812  -0.052  0.00  0.00    +0.157 C 
BRANCH  16  17
ATOM     17  C   UNL     1      -0.750  -6.203  -0.153  0.00  0.00    +0.173 C 
ATOM     18  O   UNL     1      -1.937  -6.359  -0.350  0.00  0.00    -0.291 OA
BRANCH  17  19
ATOM     19  C   UNL     1       0.130  -7.370  -0.011  0.00  0.00    +0.020 A 
ATOM     20  C   UNL     1       1.501  -7.192   0.211  0.00  0.00    +0.015 A 
ATOM     21  C   UNL     1       2.326  -8.286   0.348  0.00  0.00    +0.048 A 
ATOM     22  C   UNL     1       1.803  -9.569   0.257  0.00  0.00    +0.142 A 
ATOM     23  C   UNL     1       0.437  -9.754   0.029  0.00  0.00    +0.076 A 
ATOM     24  C   UNL     1      -0.398  -8.664  -0.105  0.00  0.00    +0.038 A 
ATOM     25  N   UNL     1      -0.072 -11.059  -0.062  0.00  0.00    -0.280 N 
ATOM     26  C   UNL     1       0.684 -12.087   0.380  0.00  0.00    +0.255 C 
ATOM     27  O   UNL     1       0.278 -13.226   0.284  0.00  0.00    -0.272 OA
ATOM     28  C   UNL     1       2.034 -11.814   0.992  0.00  0.00    +0.325 C 
ATOM     29  O   UNL     1       2.610 -10.653   0.387  0.00  0.00    -0.481 OA
ATOM     30  H   UNL     1      -0.952 -11.219  -0.436  0.00  0.00    +0.155 HD
ENDBRANCH  17  19
ENDBRANCH  16  17
ENDBRANCH   1  16
TORSDOF 6
