REMARK  Name = ZINC08407741
REMARK  9 active torsions:
REMARK  status: ('A' for Active; 'I' for Inactive)
REMARK    1  A    between atoms: C_1  and  O_2
REMARK    2  A    between atoms: O_2  and  C_3
REMARK    3  A    between atoms: C_3  and  C_5
REMARK    4  A    between atoms: C_8  and  N_11
REMARK    5  A    between atoms: C_15  and  S_19
REMARK    6  A    between atoms: S_19  and  C_20
REMARK    7  A    between atoms: N_21  and  C_22
REMARK    8  A    between atoms: N_28  and  C_29
REMARK    9  A    between atoms: C_29  and  C_30
REMARK                            x       y       z     vdW  Elec       q    Type
REMARK                         _______ _______ _______ _____ _____    ______ ____
ROOT
ATOM      1  C   UNL     1       3.332  -9.181  -3.797  0.00  0.00    +0.155 C 
ATOM      2  N   UNL     1       2.779  -8.425  -4.718  0.00  0.00    -0.226 NA
ATOM      3  N   UNL     1       4.412  -9.968  -4.112  0.00  0.00    -0.320 N 
ATOM      4  H   UNL     1       4.718 -10.026  -5.031  0.00  0.00    +0.148 HD
ENDROOT
BRANCH   2   5
ATOM      5  C   UNL     1       3.344  -8.337  -5.962  0.00  0.00    +0.066 A 
ATOM      6  C   UNL     1       4.678  -7.948  -6.101  0.00  0.00    +0.028 A 
ATOM      7  C   UNL     1       5.241  -7.862  -7.357  0.00  0.00    +0.002 A 
ATOM      8  C   UNL     1       4.488  -8.161  -8.478  0.00  0.00    +0.000 A 
ATOM      9  C   UNL     1       3.166  -8.547  -8.349  0.00  0.00    +0.002 A 
ATOM     10  C   UNL     1       2.591  -8.643  -7.098  0.00  0.00    +0.028 A 
ENDBRANCH   2   5
BRANCH   1  11
ATOM     11  S   UNL     1       2.689  -9.183  -2.156  0.00  0.00    -0.077 S 
BRANCH  11  16
ATOM     12  N   UNL     1       1.409  -5.879  -1.315  0.00  0.00    -0.209 N 
ATOM     13  C   UNL     1       0.694  -6.564  -0.415  0.00  0.00    +0.228 C 
ATOM     14  O   UNL     1       0.239  -6.111   0.613  0.00  0.00    -0.275 OA
ATOM     15  C   UNL     1       0.542  -7.995  -0.885  0.00  0.00    +0.120 C 
ATOM     16  C   UNL     1       1.302  -8.017  -2.227  0.00  0.00    +0.149 C 
ATOM     17  C   UNL     1       1.798  -6.595  -2.377  0.00  0.00    +0.240 C 
ATOM     18  O   UNL     1       2.447  -6.173  -3.310  0.00  0.00    -0.274 OA
BRANCH  12  22
ATOM     19  C   UNL     1       2.333  -1.839  -0.857  0.00  0.00    +0.059 A 
ATOM     20  C   UNL     1       1.456  -2.247  -1.866  0.00  0.00    +0.017 A 
ATOM     21  C   UNL     1       1.153  -3.582  -2.014  0.00  0.00    +0.025 A 
ATOM     22  C   UNL     1       1.719  -4.524  -1.162  0.00  0.00    +0.044 A 
ATOM     23  C   UNL     1       2.592  -4.122  -0.157  0.00  0.00    +0.025 A 
ATOM     24  C   UNL     1       2.904  -2.790  -0.006  0.00  0.00    +0.017 A 
BRANCH  19  25
ATOM     25  C   UNL     1       2.660  -0.410  -0.695  0.00  0.00    +0.339 C 
ATOM     26  O   UNL     1       3.426  -0.058   0.179  0.00  0.00    -0.245 OA
BRANCH  25  28
ATOM     27  C   UNL     1       2.470   1.871  -1.302  0.00  0.00    +0.280 C 
ATOM     28  O   UNL     1       2.108   0.505  -1.517  0.00  0.00    -0.464 OA
ENDBRANCH  25  28
ENDBRANCH  19  25
ENDBRANCH  12  22
ENDBRANCH  11  16
ENDBRANCH   1  11
BRANCH   3  29
ATOM     29  C   UNL     1       5.101 -10.721  -3.061  0.00  0.00    +0.139 C 
BRANCH  29  30
ATOM     30  C   UNL     1       6.301 -11.419  -3.648  0.00  0.00    -0.027 A 
ATOM     31  C   UNL     1       6.173 -12.695  -4.165  0.00  0.00    +0.009 A 
ATOM     32  C   UNL     1       7.270 -13.339  -4.704  0.00  0.00    +0.050 A 
ATOM     33  C   UNL     1       8.503 -12.707  -4.728  0.00  0.00    +0.166 A 
ATOM     34  C   UNL     1       8.632 -11.421  -4.208  0.00  0.00    +0.167 A 
ATOM     35  C   UNL     1       7.527 -10.780  -3.674  0.00  0.00    +0.054 A 
ATOM     36  O   UNL     1       9.930 -11.023  -4.348  0.00  0.00    -0.453 OA
ATOM     37  C   UNL     1      10.680 -12.229  -4.586  0.00  0.00    +0.466 C 
ATOM     38  O   UNL     1       9.720 -13.114  -5.194  0.00  0.00    -0.453 OA
ENDBRANCH  29  30
ENDBRANCH   3  29
TORSDOF 8
