REMARK  Name = ZINC40730149
REMARK  5 active torsions:
REMARK  status: ('A' for Active; 'I' for Inactive)
REMARK    1  A    between atoms: C_4  and  C_7
REMARK    2  A    between atoms: C_7  and  C_8
REMARK    3  A    between atoms: C_7  and  N_14
REMARK    4  A    between atoms: C_21  and  N_35
REMARK    5  A    between atoms: C_22  and  N_26
REMARK                            x       y       z     vdW  Elec       q    Type
REMARK                         _______ _______ _______ _____ _____    ______ ____
ROOT
ATOM      1  N   UNL     1       3.354  -2.468  -0.725  0.00  0.00    -0.289 NA
ATOM      2  C   UNL     1       2.918  -1.958  -2.031  0.00  0.00    +0.104 C 
ATOM      3  C   UNL     1       2.759  -3.130  -3.006  0.00  0.00    +0.122 C 
ATOM      4  N   UNL     1       4.015  -3.895  -3.025  0.00  0.00    -0.311 N 
ATOM      5  C   UNL     1       4.588  -4.323  -1.740  0.00  0.00    +0.122 C 
ATOM      6  C   UNL     1       4.675  -3.105  -0.815  0.00  0.00    +0.104 C 
ATOM      7  C   UNL     1       4.643  -4.205  -4.224  0.00  0.00    +0.148 A 
ATOM      8  C   UNL     1       4.414  -5.436  -4.848  0.00  0.00    +0.110 A 
ATOM      9  C   UNL     1       5.070  -5.696  -6.051  0.00  0.00    +0.182 A 
ATOM     10  N   UNL     1       5.882  -4.771  -6.556  0.00  0.00    -0.215 NA
ATOM     11  C   UNL     1       6.070  -3.624  -5.936  0.00  0.00    +0.225 A 
ATOM     12  N   UNL     1       5.467  -3.335  -4.801  0.00  0.00    -0.219 NA
ENDROOT
BRANCH   9  13
ATOM     13  N   UNL     1       4.877  -6.910  -6.715  0.00  0.00    -0.192 N 
ATOM     14  C   UNL     1       5.547  -7.350  -7.836  0.00  0.00    +0.096 A 
ATOM     15  C   UNL     1       6.550  -6.814  -8.635  0.00  0.00    +0.030 A 
ATOM     16  C   UNL     1       7.016  -7.528  -9.716  0.00  0.00    +0.002 A 
ATOM     17  C   UNL     1       6.491  -8.779 -10.012  0.00  0.00    +0.002 A 
ATOM     18  C   UNL     1       5.506  -9.323  -9.240  0.00  0.00    +0.032 A 
ATOM     19  C   UNL     1       5.015  -8.617  -8.134  0.00  0.00    +0.113 A 
ATOM     20  N   UNL     1       4.067  -8.891  -7.208  0.00  0.00    -0.129 NA
ATOM     21  N   UNL     1       3.969  -7.921  -6.369  0.00  0.00    -0.058 NA
ENDBRANCH   9  13
BRANCH   8  22
ATOM     22  N   UNL     1       3.550  -6.383  -4.280  0.00  0.00    -0.352 N 
ATOM     23  H   UNL     1       3.036  -6.157  -3.489  0.00  0.00    +0.143 HD
ATOM     24  H   UNL     1       3.466  -7.263  -4.677  0.00  0.00    +0.143 HD
ENDBRANCH   8  22
BRANCH   1  25
ATOM     25  C   UNL     1       3.353  -1.400   0.284  0.00  0.00    +0.117 C 
BRANCH  25  29
ATOM     26  C   UNL     1      -0.525   0.382   0.464  0.00  0.00    +0.000 A 
ATOM     27  C   UNL     1       0.604   1.174   0.552  0.00  0.00    +0.000 A 
ATOM     28  C   UNL     1       1.859   0.598   0.494  0.00  0.00    +0.005 A 
ATOM     29  C   UNL     1       1.985  -0.771   0.348  0.00  0.00    -0.026 A 
ATOM     30  C   UNL     1       0.855  -1.564   0.261  0.00  0.00    +0.005 A 
ATOM     31  C   UNL     1      -0.400  -0.987   0.318  0.00  0.00    +0.000 A 
ENDBRANCH  25  29
BRANCH  25  32
ATOM     32  C   UNL     1       3.703  -1.980   1.630  0.00  0.00    -0.026 A 
ATOM     33  C   UNL     1       3.198  -3.212   2.004  0.00  0.00    +0.005 A 
ATOM     34  C   UNL     1       3.519  -3.744   3.239  0.00  0.00    +0.000 A 
ATOM     35  C   UNL     1       4.345  -3.045   4.100  0.00  0.00    +0.000 A 
ATOM     36  C   UNL     1       4.850  -1.814   3.725  0.00  0.00    +0.000 A 
ATOM     37  C   UNL     1       4.532  -1.283   2.489  0.00  0.00    +0.005 A 
ENDBRANCH  25  32
ENDBRANCH   1  25
TORSDOF 5
