REMARK  Name = ZINC22133131
REMARK  10 active torsions:
REMARK  status: ('A' for Active; 'I' for Inactive)
REMARK    1  A    between atoms: C_1  and  C_2
REMARK    2  A    between atoms: C_2  and  O_3
REMARK    3  A    between atoms: O_3  and  C_4
REMARK    4  A    between atoms: C_4  and  C_6
REMARK    5  A    between atoms: C_7  and  N_17
REMARK    6  A    between atoms: C_9  and  C_11
REMARK    7  A    between atoms: C_18  and  C_20
REMARK    8  A    between atoms: C_20  and  N_21
REMARK    9  A    between atoms: C_24  and  C_28
REMARK   10  A    between atoms: C_24  and  C_29
REMARK                            x       y       z     vdW  Elec       q    Type
REMARK                         _______ _______ _______ _____ _____    ______ ____
ROOT
ATOM      1  N   UNL     1      -0.288   1.272  -2.443  0.00  0.00    -0.283 N 
ATOM      2  C   UNL     1      -0.316   1.988  -1.301  0.00  0.00    +0.235 C 
ATOM      3  O   UNL     1      -0.920   3.039  -1.259  0.00  0.00    -0.274 OA
ATOM      4  H   UNL     1       0.333   0.367  -2.510  0.00  0.00    +0.155 HD
ENDROOT
BRANCH   1   6
ATOM      5  C   UNL     1      -0.687   1.309  -4.837  0.00  0.00    +0.118 A 
ATOM      6  C   UNL     1      -1.047   1.680  -3.541  0.00  0.00    +0.055 A 
ATOM      7  C   UNL     1      -2.170   2.452  -3.373  0.00  0.00    +0.040 A 
ATOM      8  C   UNL     1      -2.888   2.837  -4.490  0.00  0.00    +0.022 A 
ATOM      9  S   UNL     1      -1.965   2.080  -5.817  0.00  0.00    -0.080 S 
BRANCH   8  10
ATOM     10  C   UNL     1      -4.113   3.661  -4.567  0.00  0.00    -0.011 A 
ATOM     11  C   UNL     1      -4.694   4.162  -3.401  0.00  0.00    +0.009 A 
ATOM     12  C   UNL     1      -5.833   4.936  -3.480  0.00  0.00    +0.001 A 
ATOM     13  C   UNL     1      -6.407   5.205  -4.710  0.00  0.00    +0.000 A 
ATOM     14  C   UNL     1      -5.839   4.706  -5.869  0.00  0.00    +0.001 A 
ATOM     15  C   UNL     1      -4.696   3.936  -5.805  0.00  0.00    +0.009 A 
ENDBRANCH   8  10
BRANCH   5  16
ATOM     16  C   UNL     1       0.408   0.523  -5.264  0.00  0.00    +0.348 C 
ATOM     17  O   UNL     1       1.189   0.072  -4.447  0.00  0.00    -0.244 OA
BRANCH  16  18
ATOM     18  O   UNL     1       0.587   0.272  -6.579  0.00  0.00    -0.461 OA
BRANCH  18  20
ATOM     19  C   UNL     1       1.751  -0.703  -8.458  0.00  0.00    +0.048 C 
ATOM     20  C   UNL     1       1.714  -0.529  -6.939  0.00  0.00    +0.229 C 
ENDBRANCH  18  20
ENDBRANCH  16  18
ENDBRANCH   5  16
ENDBRANCH   1   6
BRANCH   2  21
ATOM     21  C   UNL     1       0.403   1.482  -0.077  0.00  0.00    +0.214 C 
BRANCH  21  22
ATOM     22  N   UNL     1       0.222   2.433   1.023  0.00  0.00    -0.215 N 
ATOM     23  C   UNL     1      -0.792   2.383   1.908  0.00  0.00    +0.254 C 
ATOM     24  O   UNL     1      -1.694   1.574   1.943  0.00  0.00    -0.272 OA
ATOM     25  C   UNL     1      -0.571   3.549   2.851  0.00  0.00    +0.168 C 
ATOM     26  N   UNL     1       0.657   4.180   2.339  0.00  0.00    -0.279 N 
ATOM     27  C   UNL     1       1.048   3.455   1.275  0.00  0.00    +0.310 C 
ATOM     28  O   UNL     1       2.038   3.703   0.615  0.00  0.00    -0.252 OA
ATOM     29  C   UNL     1      -1.747   4.526   2.784  0.00  0.00    +0.050 C 
ATOM     30  H   UNL     1       1.065   5.073   2.836  0.00  0.00    +0.152 HD
BRANCH  25  31
ATOM     31  C   UNL     1      -0.371   3.059   4.262  0.00  0.00    +0.137 A 
ATOM     32  C   UNL     1       0.375   3.661   5.206  0.00  0.00    +0.047 A 
ATOM     33  C   UNL     1       0.280   2.867   6.372  0.00  0.00    +0.041 A 
ATOM     34  C   UNL     1      -0.512   1.823   6.068  0.00  0.00    +0.195 A 
ATOM     35  O   UNL     1      -0.904   1.944   4.790  0.00  0.00    -0.465 OA
ENDBRANCH  25  31
ENDBRANCH  21  22
ENDBRANCH   2  21
TORSDOF 8
