REMARK  Name = ZINC42423746
REMARK  7 active torsions:
REMARK  status: ('A' for Active; 'I' for Inactive)
REMARK    1  A    between atoms: C_1  and  C_2
REMARK    2  A    between atoms: C_2  and  C_3
REMARK    3  A    between atoms: C_3  and  O_4
REMARK    4  A    between atoms: O_4  and  C_5
REMARK    5  A    between atoms: N_10  and  C_12
REMARK    6  A    between atoms: C_12  and  C_13
REMARK    7  A    between atoms: C_13  and  C_15
REMARK                            x       y       z     vdW  Elec       q    Type
REMARK                         _______ _______ _______ _____ _____    ______ ____
ROOT
ATOM      1  C   UNL     1       1.433  -2.518   2.355  0.00  0.00    +0.102 C 
ATOM      2  C   UNL     1       2.916  -2.706   2.022  0.00  0.00    +0.028 C 
ATOM      3  C   UNL     1       3.609  -3.398   3.199  0.00  0.00    -0.016 C 
ATOM      4  C   UNL     1       2.907  -4.726   3.489  0.00  0.00    -0.078 C 
ATOM      5  N   UNL     1       1.501  -4.476   3.826  0.00  0.00    +0.386 N 
ATOM      6  C   UNL     1       0.810  -3.878   2.677  0.00  0.00    -0.046 C 
ATOM      7  H   UNL     1       1.451  -3.845   4.612  0.00  0.00    -0.081 HD
ENDROOT
BRANCH   1   8
ATOM      8  O   UNL     1       0.761  -1.940   1.234  0.00  0.00    -0.378 OA
BRANCH   8   9
ATOM      9  C   UNL     1       0.742  -0.511   1.242  0.00  0.00    +0.160 C 
BRANCH   9  11
ATOM     10  C   UNL     1      -0.019   1.526   0.010  0.00  0.00    +0.006 C 
ATOM     11  C   UNL     1       0.002  -0.004   0.002  0.00  0.00    +0.025 C 
ENDBRANCH   9  11
ENDBRANCH   8   9
ENDBRANCH   1   8
BRANCH   5  12
ATOM     12  C   UNL     1       0.851  -5.746   4.179  0.00  0.00    +0.003 C 
BRANCH  12  13
ATOM     13  C   UNL     1       1.472  -6.295   5.438  0.00  0.00    +0.153 C 
ATOM     14  O   UNL     1       2.369  -5.687   5.987  0.00  0.00    -0.294 OA
BRANCH  13  15
ATOM     15  C   UNL     1       1.011  -7.514   5.978  0.00  0.00    +0.054 A 
ATOM     16  C   UNL     1       1.439  -8.185   7.121  0.00  0.00    +0.020 A 
ATOM     17  C   UNL     1       0.794  -9.363   7.394  0.00  0.00    +0.028 A 
ATOM     18  C   UNL     1      -0.191  -9.787   6.558  0.00  0.00    +0.079 A 
ATOM     19  S   UNL     1      -0.276  -8.593   5.380  0.00  0.00    -0.074 S 
ATOM     20 CL   UNL     1      -1.149 -11.230   6.685  0.00  0.00    -0.076 Cl
ENDBRANCH  13  15
ENDBRANCH  12  13
ENDBRANCH   5  12
TORSDOF 6
