REMARK  Name = ZINC24174563
REMARK  10 active torsions:
REMARK  status: ('A' for Active; 'I' for Inactive)
REMARK    1  A    between atoms: C_1  and  C_2
REMARK    2  A    between atoms: C_2  and  C_3
REMARK    3  A    between atoms: C_8  and  N_9
REMARK    4  A    between atoms: C_10  and  C_12
REMARK    5  A    between atoms: C_12  and  N_13
REMARK    6  A    between atoms: C_19  and  C_21
REMARK    7  A    between atoms: C_21  and  S_22
REMARK    8  A    between atoms: S_22  and  C_23
REMARK    9  A    between atoms: C_25  and  C_35
REMARK   10  A    between atoms: C_27  and  C_29
REMARK                            x       y       z     vdW  Elec       q    Type
REMARK                         _______ _______ _______ _____ _____    ______ ____
ROOT
ATOM      1  N   UNL     1       5.669   8.677  -0.988  0.00  0.00    +0.387 N 
ATOM      2  C   UNL     1       4.375   9.326  -1.241  0.00  0.00    -0.059 C 
ATOM      3  C   UNL     1       3.405   8.984  -0.105  0.00  0.00    +0.089 C 
ATOM      4  N   UNL     1       3.350   7.521   0.038  0.00  0.00    -0.304 N 
ATOM      5  C   UNL     1       4.617   6.786   0.164  0.00  0.00    +0.089 C 
ATOM      6  C   UNL     1       5.540   7.214  -0.988  0.00  0.00    -0.059 C 
ATOM      7  C   UNL     1       2.169   6.872   0.058  0.00  0.00    +0.226 C 
ATOM      8  O   UNL     1       1.133   7.494  -0.043  0.00  0.00    -0.275 OA
ATOM      9  H   UNL     1       6.006   8.983   0.013  0.00  0.00    -0.081 HD
ENDROOT
BRANCH   1  10
ATOM     10  C   UNL     1       6.677   9.117  -1.961  0.00  0.00    +0.019 C 
BRANCH  10  12
ATOM     11  N   UNL     1       7.114   8.850  -4.381  0.00  0.00    -0.287 N 
ATOM     12  C   UNL     1       6.281   8.654  -3.339  0.00  0.00    +0.201 C 
ATOM     13  O   UNL     1       5.213   8.106  -3.511  0.00  0.00    -0.278 OA
ATOM     14  H   UNL     1       8.112   9.282  -4.214  0.00  0.00    +0.155 HD
BRANCH  11  20
ATOM     15  C   UNL     1       7.146   9.247  -6.763  0.00  0.00    -0.026 A 
ATOM     16  C   UNL     1       6.744   8.902  -8.039  0.00  0.00    +0.005 A 
ATOM     17  C   UNL     1       5.909   7.817  -8.233  0.00  0.00    +0.000 A 
ATOM     18  C   UNL     1       5.473   7.074  -7.151  0.00  0.00    +0.002 A 
ATOM     19  C   UNL     1       5.875   7.411  -5.873  0.00  0.00    +0.023 A 
ATOM     20  C   UNL     1       6.709   8.503  -5.675  0.00  0.00    +0.036 A 
BRANCH  15  22
ATOM     21  C   UNL     1       9.508   9.949  -6.485  0.00  0.00    +0.009 C 
ATOM     22  C   UNL     1       8.056  10.429  -6.552  0.00  0.00    +0.033 C 
ENDBRANCH  15  22
ENDBRANCH  11  20
ENDBRANCH  10  12
ENDBRANCH   1  10
BRANCH   7  23
ATOM     23  C   UNL     1       2.135   5.372   0.205  0.00  0.00    +0.173 C 
BRANCH  23  24
ATOM     24  S   UNL     1       0.417   4.803   0.196  0.00  0.00    -0.077 S 
BRANCH  24  25
ATOM     25  C   UNL     1       0.668   3.069   0.378  0.00  0.00    +0.189 A 
ATOM     26  N   UNL     1       1.906   2.601   0.470  0.00  0.00    -0.227 NA
ATOM     27  C   UNL     1       2.136   1.306   0.607  0.00  0.00    +0.043 A 
ATOM     28  C   UNL     1       1.066   0.429   0.654  0.00  0.00    +0.051 A 
ATOM     29  C   UNL     1      -0.227   0.950   0.548  0.00  0.00    +0.076 A 
ATOM     30  N   UNL     1      -0.383   2.265   0.417  0.00  0.00    -0.222 NA
ATOM     31  C   UNL     1       3.548   0.789   0.712  0.00  0.00    +0.066 C 
BRANCH  29  32
ATOM     32  C   UNL     1      -1.406   0.051   0.587  0.00  0.00    +0.000 A 
ATOM     33  C   UNL     1      -1.233  -1.325   0.724  0.00  0.00    +0.010 A 
ATOM     34  C   UNL     1      -2.334  -2.155   0.765  0.00  0.00    +0.001 A 
ATOM     35  C   UNL     1      -3.607  -1.626   0.659  0.00  0.00    +0.000 A 
ATOM     36  C   UNL     1      -3.785  -0.261   0.517  0.00  0.00    +0.001 A 
ATOM     37  C   UNL     1      -2.691   0.580   0.481  0.00  0.00    +0.010 A 
ENDBRANCH  29  32
ENDBRANCH  24  25
ENDBRANCH  23  24
ENDBRANCH   7  23
TORSDOF 8
