REMARK  Name = ZINC38486871
REMARK  6 active torsions:
REMARK  status: ('A' for Active; 'I' for Inactive)
REMARK    1  A    between atoms: C_1  and  C_2
REMARK    2  A    between atoms: C_5  and  N_9
REMARK    3  A    between atoms: C_10  and  C_12
REMARK    4  A    between atoms: C_12  and  S_13
REMARK    5  A    between atoms: S_13  and  C_14
REMARK    6  A    between atoms: C_24  and  C_26
REMARK                            x       y       z     vdW  Elec       q    Type
REMARK                         _______ _______ _______ _____ _____    ______ ____
ROOT
ATOM      1  C   UNL     1       0.590  -8.714   2.628  0.00  0.00    +0.196 A 
ATOM      2  N   UNL     1       0.600  -9.378   1.492  0.00  0.00    -0.122 NA
ATOM      3  N   UNL     1       0.721 -10.640   1.716  0.00  0.00    -0.126 NA
ATOM      4  C   UNL     1       0.796 -10.857   3.007  0.00  0.00    +0.187 A 
ATOM      5  N   UNL     1       0.720  -9.627   3.630  0.00  0.00    -0.274 N 
ATOM      6  C   UNL     1       0.779  -9.549   5.010  0.00  0.00    +0.115 A 
ATOM      7  C   UNL     1       0.912 -10.634   5.761  0.00  0.00    +0.131 A 
ATOM      8  N   UNL     1       0.998 -11.900   5.205  0.00  0.00    -0.234 N 
ATOM      9  C   UNL     1       0.937 -12.052   3.843  0.00  0.00    +0.112 A 
ATOM     10  C   UNL     1       1.044 -13.397   3.571  0.00  0.00    +0.061 A 
ATOM     11  C   UNL     1       1.155 -14.068   4.796  0.00  0.00    +0.094 A 
ATOM     12  N   UNL     1       1.138 -13.175   5.768  0.00  0.00    -0.166 NA
ENDROOT
BRANCH  11  13
ATOM     13  C   UNL     1       1.292 -15.536   4.972  0.00  0.00    +0.002 A 
ATOM     14  C   UNL     1       1.325 -16.372   3.858  0.00  0.00    +0.013 A 
ATOM     15  C   UNL     1       1.452 -17.736   4.025  0.00  0.00    +0.039 A 
ATOM     16  C   UNL     1       1.548 -18.274   5.298  0.00  0.00    +0.123 A 
ATOM     17  C   UNL     1       1.515 -17.445   6.409  0.00  0.00    +0.039 A 
ATOM     18  C   UNL     1       1.395 -16.080   6.250  0.00  0.00    +0.013 A 
ATOM     19  F   UNL     1       1.672 -19.609   5.458  0.00  0.00    -0.205 F 
ENDBRANCH  11  13
BRANCH   1  20
ATOM     20  S   UNL     1       0.443  -6.968   2.817  0.00  0.00    -0.076 S 
BRANCH  20  21
ATOM     21  C   UNL     1       0.306  -6.353   1.116  0.00  0.00    +0.173 C 
BRANCH  21  23
ATOM     22  N   UNL     1       0.057  -4.171  -0.023  0.00  0.00    -0.285 N 
ATOM     23  C   UNL     1       0.174  -4.852   1.134  0.00  0.00    +0.227 C 
ATOM     24  O   UNL     1       0.172  -4.256   2.191  0.00  0.00    -0.275 OA
ATOM     25  H   UNL     1      -0.018  -4.652  -0.863  0.00  0.00    +0.155 HD
BRANCH  22  30
ATOM     26  C   UNL     1       0.013   1.503   0.016  0.00  0.00    +0.047 C 
ATOM     27  C   UNL     1       0.024  -0.004   0.005  0.00  0.00    -0.015 A 
ATOM     28  C   UNL     1       0.778  -0.695   0.935  0.00  0.00    +0.008 A 
ATOM     29  C   UNL     1       0.791  -2.076   0.928  0.00  0.00    +0.024 A 
ATOM     30  C   UNL     1       0.045  -2.772  -0.014  0.00  0.00    +0.036 A 
ATOM     31  C   UNL     1      -0.713  -2.078  -0.947  0.00  0.00    +0.062 A 
ATOM     32  C   UNL     1      -0.726  -0.694  -0.932  0.00  0.00    +0.128 A 
ATOM     33  F   UNL     1      -1.467  -0.016  -1.836  0.00  0.00    -0.205 F 
ENDBRANCH  22  30
ENDBRANCH  21  23
ENDBRANCH  20  21
ENDBRANCH   1  20
TORSDOF 5
