REMARK  Name = ZINC21326283
REMARK  11 active torsions:
REMARK  status: ('A' for Active; 'I' for Inactive)
REMARK    1  A    between atoms: C_1  and  C_2
REMARK    2  A    between atoms: C_5  and  C_8
REMARK    3  A    between atoms: C_8  and  C_10
REMARK    4  A    between atoms: C_10  and  S_11
REMARK    5  A    between atoms: S_11  and  C_12
REMARK    6  A    between atoms: N_16  and  N_17
REMARK    7  A    between atoms: N_18  and  N_19
REMARK    8  A    between atoms: C_20  and  C_21
REMARK    9  A    between atoms: C_20  and  C_22
REMARK   10  A    between atoms: C_26  and  O_28
REMARK   11  A    between atoms: O_28  and  C_29
REMARK                            x       y       z     vdW  Elec       q    Type
REMARK                         _______ _______ _______ _____ _____    ______ ____
ROOT
ATOM      1  C   UNL     1      -2.663   7.924   0.072  0.00  0.00    +0.210 A 
ATOM      2  N   UNL     1      -3.311   6.783   0.073  0.00  0.00    -0.119 NA
ATOM      3  N   UNL     1      -2.365   5.749   0.058  0.00  0.00    -0.109 NA
ATOM      4  C   UNL     1      -1.172   6.291   0.049  0.00  0.00    +0.254 A 
ATOM      5  N   UNL     1      -1.325   7.650   0.064  0.00  0.00    -0.211 N 
ATOM      6  N   UNL     1       0.035   5.606   0.033  0.00  0.00    -0.204 N 
ATOM      7  H   UNL     1       0.983   6.163   0.027  0.00  0.00    +0.178 HD
ENDROOT
BRANCH   5   8
ATOM      8  N   UNL     1      -0.317   8.571   0.065  0.00  0.00    -0.294 N 
ATOM      9  H   UNL     1       0.732   8.239   0.058  0.00  0.00    +0.163 HD
ATOM     10  H   UNL     1      -0.553   9.645   0.075  0.00  0.00    +0.163 HD
ENDBRANCH   5   8
BRANCH   6  11
ATOM     11  N   UNL     1       0.045   4.205   0.025  0.00  0.00    -0.184 NA
ATOM     12  C   UNL     1       1.175   3.564   0.011  0.00  0.00    +0.063 C 
ATOM     13  C   UNL     1       2.474   4.328   0.002  0.00  0.00    +0.068 C 
BRANCH  12  14
ATOM     14  C   UNL     1       1.185   2.090   0.002  0.00  0.00    +0.001 A 
ATOM     15  C   UNL     1       2.399   1.398  -0.013  0.00  0.00    +0.010 A 
ATOM     16  C   UNL     1       2.405   0.018  -0.021  0.00  0.00    +0.004 A 
ATOM     17  C   UNL     1       1.213  -0.683  -0.013  0.00  0.00    +0.045 A 
ATOM     18  C   UNL     1       0.002  -0.004   0.002  0.00  0.00    +0.121 A 
ATOM     19  C   UNL     1      -0.017   1.380   0.010  0.00  0.00    +0.055 A 
BRANCH  18  20
ATOM     20  O   UNL     1      -1.166  -0.699   0.009  0.00  0.00    -0.495 OA
ATOM     21  C   UNL     1      -1.072  -2.125   0.001  0.00  0.00    +0.277 C 
ENDBRANCH  18  20
ENDBRANCH  12  14
ENDBRANCH   6  11
BRANCH   1  22
ATOM     22  S   UNL     1      -3.391   9.528   0.088  0.00  0.00    -0.076 S 
BRANCH  22  23
ATOM     23  C   UNL     1      -5.175   9.200   0.104  0.00  0.00    +0.157 C 
BRANCH  23  24
ATOM     24  C   UNL     1      -5.926  10.507   0.118  0.00  0.00    +0.173 C 
ATOM     25  O   UNL     1      -5.318  11.555   0.117  0.00  0.00    -0.291 OA
BRANCH  24  30
ATOM     26  C   UNL     1     -11.675  10.517   0.175  0.00  0.00    +0.044 C 
ATOM     27  C   UNL     1     -10.168  10.514   0.160  0.00  0.00    -0.050 A 
ATOM     28  C   UNL     1      -9.477  11.714   0.159  0.00  0.00    +0.004 A 
ATOM     29  C   UNL     1      -8.098  11.720   0.146  0.00  0.00    +0.011 A 
ATOM     30  C   UNL     1      -7.398  10.509   0.133  0.00  0.00    +0.018 A 
ATOM     31  C   UNL     1      -8.103   9.302   0.128  0.00  0.00    +0.011 A 
ATOM     32  C   UNL     1      -9.482   9.312   0.147  0.00  0.00    +0.004 A 
ENDBRANCH  24  30
ENDBRANCH  23  24
ENDBRANCH  22  23
ENDBRANCH   1  22
TORSDOF 8
