REMARK  Name = ZINC58666291
REMARK  5 active torsions:
REMARK  status: ('A' for Active; 'I' for Inactive)
REMARK    1  A    between atoms: C_1  and  C_2
REMARK    2  A    between atoms: C_2  and  C_3
REMARK    3  A    between atoms: N_6  and  C_9
REMARK    4  A    between atoms: C_12  and  C_15
REMARK    5  A    between atoms: N_16  and  O_17
REMARK                            x       y       z     vdW  Elec       q    Type
REMARK                         _______ _______ _______ _____ _____    ______ ____
ROOT
ATOM      1  C   UNL     1       1.304  -2.702   4.773  0.00  0.00    +0.014 A 
ATOM      2  C   UNL     1       2.584  -2.326   5.139  0.00  0.00    +0.022 A 
ATOM      3  C   UNL     1       3.159  -2.845   6.281  0.00  0.00    +0.013 A 
ATOM      4  C   UNL     1       2.446  -3.750   7.067  0.00  0.00    +0.018 A 
ATOM      5  C   UNL     1       1.156  -4.125   6.693  0.00  0.00    +0.013 A 
ATOM      6  C   UNL     1       0.590  -3.595   5.552  0.00  0.00    +0.022 A 
ENDROOT
BRANCH   1  10
ATOM      7  C   UNL     1       0.742  -0.511   1.242  0.00  0.00    -0.008 C 
ATOM      8  C   UNL     1      -0.046  -0.133   2.499  0.00  0.00    +0.021 C 
ATOM      9  C   UNL     1       0.658  -0.711   3.728  0.00  0.00    +0.085 C 
ATOM     10  N   UNL     1       0.728  -2.172   3.615  0.00  0.00    -0.393 NA
ATOM     11  C   UNL     1       1.542  -2.543   2.451  0.00  0.00    +0.085 C 
ATOM     12  C   UNL     1       0.873  -2.035   1.172  0.00  0.00    +0.021 C 
ATOM     13  H   UNL     1      -0.203  -2.545   3.504  0.00  0.00    +0.126 HD
BRANCH   7  15
ATOM     14  C   UNL     1      -0.019   1.526   0.010  0.00  0.00    +0.004 C 
ATOM     15  C   UNL     1       0.002  -0.004   0.002  0.00  0.00    +0.000 C 
ENDBRANCH   7  15
ENDBRANCH   1  10
BRANCH   4  16
ATOM     16  C   UNL     1       3.057  -4.311   8.294  0.00  0.00    +0.162 C 
ATOM     17  N   UNL     1       4.261  -3.959   8.640  0.00  0.00    -0.072 NA
ATOM     18  N   UNL     1       2.347  -5.209   9.072  0.00  0.00    -0.340 N 
ATOM     19  H   UNL     1       1.450  -5.471   8.814  0.00  0.00    +0.144 HD
ATOM     20  H   UNL     1       2.747  -5.577   9.876  0.00  0.00    +0.144 HD
BRANCH  17  21
ATOM     21  O   UNL     1       4.845  -4.496   9.813  0.00  0.00    -0.408 OA
ATOM     22  H   UNL     1       5.740  -4.176   9.988  0.00  0.00    +0.328 HD
ENDBRANCH  17  21
ENDBRANCH   4  16
TORSDOF 4
