REMARK  Name = ZINC34683905
REMARK  7 active torsions:
REMARK  status: ('A' for Active; 'I' for Inactive)
REMARK    1  A    between atoms: C_4  and  O_32
REMARK    2  A    between atoms: C_5  and  C_7
REMARK    3  A    between atoms: C_7  and  N_8
REMARK    4  A    between atoms: C_11  and  N_14
REMARK    5  A    between atoms: N_14  and  C_15
REMARK    6  A    between atoms: N_14  and  S_22
REMARK    7  A    between atoms: S_22  and  C_25
REMARK                            x       y       z     vdW  Elec       q    Type
REMARK                         _______ _______ _______ _____ _____    ______ ____
ROOT
ATOM      1  N   UNL     1       1.228  -4.686   5.035  0.00  0.00    -0.200 N 
ENDROOT
BRANCH   1   5
ATOM      2  N   UNL     1       1.097  -1.983   1.804  0.00  0.00    +0.383 N 
ATOM      3  C   UNL     1       0.006  -1.895   2.782  0.00  0.00    -0.077 C 
ATOM      4  C   UNL     1       0.429  -2.576   4.086  0.00  0.00    +0.006 C 
ATOM      5  C   UNL     1       0.750  -4.047   3.807  0.00  0.00    +0.095 C 
ATOM      6  C   UNL     1       1.837  -4.127   2.731  0.00  0.00    +0.006 C 
ATOM      7  C   UNL     1       1.362  -3.389   1.477  0.00  0.00    -0.077 C 
ATOM      8  H   UNL     1       1.929  -1.567   2.193  0.00  0.00    -0.081 HD
BRANCH   2   9
ATOM      9  C   UNL     1       0.716  -1.261   0.582  0.00  0.00    -0.039 C 
BRANCH   9  14
ATOM     10  C   UNL     1      -0.835   2.089   1.372  0.00  0.00    +0.000 A 
ATOM     11  C   UNL     1       0.281   2.900   1.460  0.00  0.00    +0.004 A 
ATOM     12  C   UNL     1       1.541   2.367   1.265  0.00  0.00    +0.045 A 
ATOM     13  C   UNL     1       1.685   1.017   0.980  0.00  0.00    +0.118 A 
ATOM     14  C   UNL     1       0.563   0.205   0.892  0.00  0.00    -0.022 A 
ATOM     15  C   UNL     1      -0.694   0.744   1.088  0.00  0.00    +0.005 A 
BRANCH  13  16
ATOM     16  O   UNL     1       2.923   0.490   0.787  0.00  0.00    -0.507 OA
ATOM     17  H   UNL     1       3.341   0.162   1.594  0.00  0.00    +0.292 HD
ENDBRANCH  13  16
ENDBRANCH   9  14
ENDBRANCH   2   9
ENDBRANCH   1   5
BRANCH   1  18
ATOM     18  C   UNL     1       2.321  -4.148   5.722  0.00  0.00    +0.052 A 
ATOM     19  C   UNL     1       3.602  -4.275   5.200  0.00  0.00    +0.027 A 
ATOM     20  C   UNL     1       4.679  -3.743   5.880  0.00  0.00    +0.040 A 
ATOM     21  C   UNL     1       4.484  -3.084   7.082  0.00  0.00    +0.124 A 
ATOM     22  C   UNL     1       3.208  -2.957   7.605  0.00  0.00    +0.040 A 
ATOM     23  C   UNL     1       2.127  -3.482   6.926  0.00  0.00    +0.027 A 
ATOM     24  F   UNL     1       5.540  -2.565   7.747  0.00  0.00    -0.205 F 
ENDBRANCH   1  18
BRANCH   1  25
ATOM     25  S   UNL     1       0.475  -6.044   5.610  0.00  0.00    +0.075 S 
ATOM     26  O   UNL     1       0.851  -6.170   6.974  0.00  0.00    -0.150 OA
ATOM     27  O   UNL     1      -0.882  -5.960   5.198  0.00  0.00    -0.150 OA
BRANCH  25  28
ATOM     28  C   UNL     1       1.174  -7.424   4.765  0.00  0.00    +0.109 A 
ATOM     29  C   UNL     1       0.618  -7.860   3.577  0.00  0.00    +0.030 A 
ATOM     30  C   UNL     1       1.165  -8.943   2.915  0.00  0.00    +0.022 A 
ATOM     31  C   UNL     1       2.270  -9.589   3.440  0.00  0.00    +0.041 A 
ATOM     32  C   UNL     1       2.826  -9.151   4.629  0.00  0.00    +0.022 A 
ATOM     33  C   UNL     1       2.281  -8.065   5.288  0.00  0.00    +0.030 A 
ATOM     34 CL   UNL     1       2.957 -10.949   2.608  0.00  0.00    -0.084 Cl
ENDBRANCH  25  28
ENDBRANCH   1  25
TORSDOF 7
