REMARK  Name = ZINC04150017
REMARK  12 active torsions:
REMARK  status: ('A' for Active; 'I' for Inactive)
REMARK    1  A    between atoms: C_1  and  C_2
REMARK    2  A    between atoms: N_9  and  S_10
REMARK    3  A    between atoms: S_10  and  C_13
REMARK    4  A    between atoms: C_21  and  C_42
REMARK    5  A    between atoms: C_24  and  O_41
REMARK    6  A    between atoms: C_26  and  C_30
REMARK    7  A    between atoms: C_30  and  C_32
REMARK    8  A    between atoms: C_30  and  C_33
REMARK    9  A    between atoms: N_35  and  C_36
REMARK   10  A    between atoms: N_35  and  C_37
REMARK   11  A    between atoms: C_37  and  C_38
REMARK   12  A    between atoms: C_38  and  C_39
REMARK                            x       y       z     vdW  Elec       q    Type
REMARK                         _______ _______ _______ _____ _____    ______ ____
ROOT
ATOM      1  C   UNL     1      -3.074  -4.346  -3.763  0.00  0.00    +0.014 C 
ATOM      2  C   UNL     1      -3.067  -3.366  -4.938  0.00  0.00    +0.042 C 
ATOM      3  C   UNL     1      -3.431  -4.105  -6.216  0.00  0.00    +0.057 A 
ATOM      4  C   UNL     1      -2.769  -3.837  -7.370  0.00  0.00    +0.015 A 
ATOM      5  S   UNL     1      -3.554  -4.922  -8.531  0.00  0.00    -0.056 S 
ATOM      6  C   UNL     1      -4.682  -5.642  -7.421  0.00  0.00    +0.178 A 
ATOM      7  N   UNL     1      -4.390  -5.027  -6.293  0.00  0.00    -0.228 NA
ATOM      8  N   UNL     1      -5.642  -6.612  -7.661  0.00  0.00    -0.194 N 
ATOM      9  C   UNL     1      -1.660  -2.867  -7.578  0.00  0.00    +0.051 C 
ATOM     10  C   UNL     1      -1.586  -1.920  -6.364  0.00  0.00    -0.022 C 
ATOM     11  C   UNL     1      -1.668  -2.750  -5.081  0.00  0.00    +0.033 C 
ATOM     12  C   UNL     1      -1.431  -1.859  -3.857  0.00  0.00    +0.123 C 
ATOM     13  C   UNL     1      -0.072  -1.169  -3.958  0.00  0.00    +0.029 C 
ATOM     14  C   UNL     1      -0.050  -0.297  -5.217  0.00  0.00    +0.007 C 
ATOM     15  C   UNL     1      -0.239  -1.194  -6.439  0.00  0.00    +0.008 C 
ATOM     16  C   UNL     1      -2.730  -0.906  -6.420  0.00  0.00    +0.012 C 
ATOM     17  H   UNL     1      -6.208  -6.923  -6.938  0.00  0.00    +0.176 HD
ENDROOT
BRANCH   8  18
ATOM     18  S   UNL     1      -5.821  -7.242  -9.182  0.00  0.00    +0.074 S 
ATOM     19  O   UNL     1      -6.850  -8.218  -9.099  0.00  0.00    -0.150 OA
ATOM     20  O   UNL     1      -5.888  -6.137 -10.073  0.00  0.00    -0.150 OA
BRANCH  18  21
ATOM     21  C   UNL     1      -4.335  -8.108  -9.566  0.00  0.00    +0.109 A 
ATOM     22  C   UNL     1      -3.292  -7.448 -10.190  0.00  0.00    +0.030 A 
ATOM     23  C   UNL     1      -2.125  -8.126 -10.486  0.00  0.00    +0.022 A 
ATOM     24  C   UNL     1      -2.004  -9.467 -10.168  0.00  0.00    +0.041 A 
ATOM     25  C   UNL     1      -3.050 -10.128  -9.549  0.00  0.00    +0.022 A 
ATOM     26  C   UNL     1      -4.215  -9.448  -9.248  0.00  0.00    +0.030 A 
ATOM     27 CL   UNL     1      -0.540 -10.320 -10.547  0.00  0.00    -0.084 Cl
ENDBRANCH  18  21
ENDBRANCH   8  18
BRANCH  13  28
ATOM     28  C   UNL     1       0.151  -0.294  -2.723  0.00  0.00    +0.078 C 
ATOM     29  C   UNL     1      -0.876   0.839  -2.709  0.00  0.00    +0.017 C 
BRANCH  28  30
ATOM     30  C   UNL     1       1.541   0.289  -2.765  0.00  0.00    +0.219 C 
ATOM     31  O   UNL     1       2.223   0.160  -3.760  0.00  0.00    -0.275 OA
ATOM     32  N   UNL     1       2.026   0.953  -1.697  0.00  0.00    -0.303 N 
ATOM     33  C   UNL     1       1.202   1.109  -0.496  0.00  0.00    +0.132 C 
BRANCH  32  34
ATOM     34  C   UNL     1       3.376   1.519  -1.738  0.00  0.00    +0.122 C 
BRANCH  34  35
ATOM     35  C   UNL     1       4.379   0.483  -1.227  0.00  0.00    +0.137 C 
BRANCH  35  36
ATOM     36  C   UNL     1       5.736   1.052  -1.268  0.00  0.00    +0.064 C 
ATOM     37  N   UNL     1       6.784   1.491  -1.300  0.00  0.00    -0.197 NA
ENDBRANCH  35  36
ENDBRANCH  34  35
ENDBRANCH  32  34
ENDBRANCH  28  30
ENDBRANCH  13  28
BRANCH  12  38
ATOM     38  O   UNL     1      -1.469  -2.658  -2.673  0.00  0.00    -0.391 OA
ATOM     39  H   UNL     1      -1.294  -2.164  -1.860  0.00  0.00    +0.210 HD
ENDBRANCH  12  38
TORSDOF 8
