REMARK  Name = ZINC13040030
REMARK  10 active torsions:
REMARK  status: ('A' for Active; 'I' for Inactive)
REMARK    1  A    between atoms: C_1  and  N_2
REMARK    2  A    between atoms: N_2  and  S_3
REMARK    3  A    between atoms: S_3  and  C_6
REMARK    4  A    between atoms: C_9  and  N_15
REMARK    5  A    between atoms: C_10  and  N_12
REMARK    6  A    between atoms: N_15  and  C_16
REMARK    7  A    between atoms: C_16  and  C_17
REMARK    8  A    between atoms: C_17  and  C_19
REMARK    9  A    between atoms: C_17  and  N_24
REMARK   10  A    between atoms: N_27  and  C_30
REMARK                            x       y       z     vdW  Elec       q    Type
REMARK                         _______ _______ _______ _____ _____    ______ ____
ROOT
ATOM      1  N   UNL     1      -2.301  -0.752  -1.348  0.00  0.00    -0.340 N 
ATOM      2  H   UNL     1      -2.853  -1.141  -2.216  0.00  0.00    +0.146 HD
ENDROOT
BRANCH   1   6
ATOM      3  C   UNL     1       1.733   0.216  -1.712  0.00  0.00    +0.108 A 
ATOM      4  C   UNL     1       1.122   0.259  -0.472  0.00  0.00    +0.030 A 
ATOM      5  C   UNL     1      -0.216  -0.058  -0.348  0.00  0.00    +0.027 A 
ATOM      6  C   UNL     1      -0.948  -0.425  -1.471  0.00  0.00    +0.058 A 
ATOM      7  C   UNL     1      -0.333  -0.463  -2.715  0.00  0.00    +0.149 A 
ATOM      8  C   UNL     1       1.006  -0.144  -2.832  0.00  0.00    +0.063 A 
BRANCH   3   9
ATOM      9  S   UNL     1       3.441   0.621  -1.865  0.00  0.00    +0.058 S 
ATOM     10  O   UNL     1       3.641   1.032  -3.211  0.00  0.00    -0.153 OA
ATOM     11  O   UNL     1       3.762   1.452  -0.759  0.00  0.00    -0.153 OA
BRANCH   9  13
ATOM     12  C   UNL     1       4.161  -1.867  -2.643  0.00  0.00    +0.127 C 
ATOM     13  N   UNL     1       4.296  -0.783  -1.667  0.00  0.00    -0.193 NA
ATOM     14  H   UNL     1       4.832  -0.957  -0.723  0.00  0.00    +0.148 HD
ENDBRANCH   9  13
ENDBRANCH   3   9
BRANCH   7  15
ATOM     15  N   UNL     1      -1.110  -0.848  -3.915  0.00  0.00    +0.058 N 
ATOM     16  O   UNL     1      -0.602  -0.776  -5.019  0.00  0.00    -0.126 OA
ATOM     17  O   UNL     1      -2.258  -1.237  -3.797  0.00  0.00    -0.126 OA
ENDBRANCH   7  15
ENDBRANCH   1   6
BRANCH   1  18
ATOM     18  C   UNL     1      -2.983  -0.577  -0.064  0.00  0.00    +0.125 C 
BRANCH  18  19
ATOM     19  C   UNL     1      -4.409  -1.123  -0.165  0.00  0.00    +0.110 C 
BRANCH  19  20
ATOM     20  N   UNL     1      -5.094  -0.495  -1.304  0.00  0.00    -0.297 NA
ATOM     21  C   UNL     1      -5.003   0.970  -1.230  0.00  0.00    +0.066 C 
ATOM     22  C   UNL     1      -5.658   1.581  -2.471  0.00  0.00    -0.064 C 
ATOM     23  N   UNL     1      -7.059   1.146  -2.548  0.00  0.00    +0.379 N 
ATOM     24  C   UNL     1      -7.149  -0.319  -2.621  0.00  0.00    -0.064 C 
ATOM     25  C   UNL     1      -6.495  -0.930  -1.380  0.00  0.00    +0.066 C 
ATOM     26  C   UNL     1      -7.744   1.773  -3.686  0.00  0.00    -0.096 C 
ATOM     27  H   UNL     1      -7.567   1.472  -1.628  0.00  0.00    -0.082 HD
ENDBRANCH  19  20
BRANCH  19  28
ATOM     28  C   UNL     1      -4.362  -2.615  -0.368  0.00  0.00    +0.008 A 
ATOM     29  C   UNL     1      -4.538  -3.606   0.541  0.00  0.00    +0.013 A 
ATOM     30  C   UNL     1      -4.450  -4.921   0.124  0.00  0.00    +0.008 A 
ATOM     31  C   UNL     1      -4.191  -5.181  -1.181  0.00  0.00    +0.045 A 
ATOM     32  S   UNL     1      -4.069  -3.538  -1.868  0.00  0.00    -0.100 S 
ENDBRANCH  19  28
ENDBRANCH  18  19
ENDBRANCH   1  18
TORSDOF 8
