REMARK  Name = ZINC64059714
REMARK  4 active torsions:
REMARK  status: ('A' for Active; 'I' for Inactive)
REMARK    1  A    between atoms: C_7  and  C_10
REMARK    2  A    between atoms: N_13  and  C_16
REMARK    3  A    between atoms: C_16  and  C_17
REMARK    4  A    between atoms: N_22  and  C_23
REMARK                            x       y       z     vdW  Elec       q    Type
REMARK                         _______ _______ _______ _____ _____    ______ ____
ROOT
ATOM      1  C   UNL     1      -3.033  -6.366  -1.454  0.00  0.00    +0.234 C 
ATOM      2  O   UNL     1      -2.975  -5.471  -2.269  0.00  0.00    -0.274 OA
ATOM      3  N   UNL     1      -4.141  -7.127  -1.366  0.00  0.00    -0.239 N 
ATOM      4  C   UNL     1      -5.186  -6.893  -2.185  0.00  0.00    +0.310 C 
ATOM      5  O   UNL     1      -5.128  -5.996  -3.003  0.00  0.00    -0.252 OA
ATOM      6  N   UNL     1      -6.295  -7.654  -2.097  0.00  0.00    -0.269 N 
ATOM      7  H   UNL     1      -4.188  -7.843  -0.713  0.00  0.00    +0.159 HD
ATOM      8  H   UNL     1      -6.368  -8.325  -1.401  0.00  0.00    +0.156 HD
ENDROOT
BRANCH   6   9
ATOM      9  C   UNL     1      -7.341  -7.475  -3.011  0.00  0.00    +0.038 A 
ATOM     10  C   UNL     1      -8.079  -8.569  -3.444  0.00  0.00    +0.027 A 
ATOM     11  C   UNL     1      -9.112  -8.397  -4.346  0.00  0.00    +0.051 A 
ATOM     12  C   UNL     1      -9.411  -7.130  -4.817  0.00  0.00    +0.162 A 
ATOM     13  C   UNL     1      -8.676  -6.035  -4.387  0.00  0.00    +0.164 A 
ATOM     14  C   UNL     1      -7.644  -6.203  -3.480  0.00  0.00    +0.072 A 
ATOM     15  O   UNL     1      -8.981  -4.790  -4.858  0.00  0.00    -0.488 OA
ATOM     16  C   UNL     1      -8.708  -4.562  -6.242  0.00  0.00    +0.232 C 
ATOM     17  C   UNL     1      -9.860  -5.049  -7.106  0.00  0.00    +0.082 C 
ATOM     18  C   UNL     1     -10.046  -6.556  -7.026  0.00  0.00    +0.232 C 
ATOM     19  O   UNL     1     -10.430  -6.950  -5.707  0.00  0.00    -0.488 OA
ENDBRANCH   6   9
BRANCH   1  20
ATOM     20  C   UNL     1      -1.865  -6.627  -0.538  0.00  0.00    +0.181 C 
BRANCH  20  24
ATOM     21  C   UNL     1       1.218  -3.764  -0.771  0.00  0.00    -0.043 C 
ATOM     22  C   UNL     1      -0.046  -3.355  -0.682  0.00  0.00    -0.008 C 
ATOM     23  C   UNL     1      -1.197  -4.301  -0.494  0.00  0.00    +0.112 C 
ATOM     24  N   UNL     1      -0.789  -5.670  -0.830  0.00  0.00    -0.290 NA
ATOM     25  C   UNL     1       0.445  -6.027  -0.112  0.00  0.00    +0.090 C 
ATOM     26  C   UNL     1       1.602  -5.216  -0.703  0.00  0.00    +0.050 C 
BRANCH  21  33
ATOM     27  C   UNL     1       5.677  -4.152  -1.501  0.00  0.00    +0.001 A 
ATOM     28  C   UNL     1       6.336  -2.923  -1.615  0.00  0.00    +0.002 A 
ATOM     29  C   UNL     1       5.677  -1.745  -1.511  0.00  0.00    +0.026 A 
ATOM     30  C   UNL     1       4.274  -1.738  -1.281  0.00  0.00    +0.043 A 
ATOM     31  N   UNL     1       3.419  -0.748  -1.144  0.00  0.00    -0.380 N 
ATOM     32  C   UNL     1       2.078  -1.296  -0.921  0.00  0.00    +0.149 C 
ATOM     33  C   UNL     1       2.233  -2.801  -0.941  0.00  0.00    -0.016 C 
ATOM     34  C   UNL     1       3.584  -3.035  -1.163  0.00  0.00    +0.003 A 
ATOM     35  C   UNL     1       4.341  -4.224  -1.282  0.00  0.00    +0.010 A 
ATOM     36  H   UNL     1       3.641   0.196  -1.183  0.00  0.00    +0.160 HD
ENDBRANCH  21  33
ENDBRANCH  20  24
ENDBRANCH   1  20
TORSDOF 4
