REMARK  Name = ZINC45326758
REMARK  5 active torsions:
REMARK  status: ('A' for Active; 'I' for Inactive)
REMARK    1  A    between atoms: C_1  and  C_2
REMARK    2  A    between atoms: C_3  and  C_18
REMARK    3  A    between atoms: C_4  and  C_10
REMARK    4  A    between atoms: N_20  and  C_21
REMARK    5  A    between atoms: C_26  and  C_27
REMARK                            x       y       z     vdW  Elec       q    Type
REMARK                         _______ _______ _______ _____ _____    ______ ____
ROOT
ATOM      1  C   UNL     1       0.968   1.262  -0.156  0.00  0.00    +0.061 C 
ATOM      2  C   UNL     1       0.537  -0.181  -0.081  0.00  0.00    +0.017 C 
ATOM      3  C   UNL     1      -0.778  -0.479  -0.028  0.00  0.00    +0.056 C 
ATOM      4  C   UNL     1      -1.167  -1.942   0.046  0.00  0.00    +0.142 C 
ATOM      5  N   UNL     1      -0.070  -2.924   0.054  0.00  0.00    -0.315 N 
ATOM      6  C   UNL     1       1.198  -2.470  -0.004  0.00  0.00    +0.135 C 
ATOM      7  S   UNL     1       2.483  -3.601   0.005  0.00  0.00    -0.019 S 
ATOM      8  N   UNL     1       1.484  -1.164  -0.073  0.00  0.00    -0.300 N 
ATOM      9  H   UNL     1      -0.256  -3.875   0.101  0.00  0.00    +0.149 HD
ATOM     10  H   UNL     1       2.417  -0.902  -0.117  0.00  0.00    +0.154 HD
ENDROOT
BRANCH   4  11
ATOM     11  C   UNL     1      -2.054  -2.247  -1.134  0.00  0.00    +0.013 A 
ATOM     12  C   UNL     1      -1.501  -2.711  -2.313  0.00  0.00    +0.011 A 
ATOM     13  C   UNL     1      -2.313  -2.991  -3.395  0.00  0.00    +0.039 A 
ATOM     14  C   UNL     1      -3.682  -2.808  -3.300  0.00  0.00    +0.126 A 
ATOM     15  C   UNL     1      -4.237  -2.343  -2.120  0.00  0.00    +0.077 A 
ATOM     16  C   UNL     1      -3.423  -2.068  -1.035  0.00  0.00    +0.131 A 
ATOM     17  F   UNL     1      -3.964  -1.620   0.119  0.00  0.00    -0.205 F 
ATOM     18  F   UNL     1      -4.476  -3.081  -4.358  0.00  0.00    -0.205 F 
ENDBRANCH   4  11
BRANCH   3  19
ATOM     19  C   UNL     1      -1.761   0.540  -0.042  0.00  0.00    +0.248 C 
ATOM     20  O   UNL     1      -2.342   0.839   0.986  0.00  0.00    -0.270 OA
ATOM     21  N   UNL     1      -2.054   1.180  -1.191  0.00  0.00    -0.281 N 
ATOM     22  H   UNL     1      -1.633   0.903  -2.021  0.00  0.00    +0.155 HD
BRANCH  21  23
ATOM     23  C   UNL     1      -2.964   2.242  -1.189  0.00  0.00    +0.045 A 
ATOM     24  C   UNL     1      -3.713   2.513  -0.051  0.00  0.00    +0.024 A 
ATOM     25  C   UNL     1      -4.610   3.563  -0.052  0.00  0.00    +0.002 A 
ATOM     26  C   UNL     1      -4.763   4.343  -1.184  0.00  0.00    +0.001 A 
ATOM     27  C   UNL     1      -4.019   4.075  -2.318  0.00  0.00    +0.014 A 
ATOM     28  C   UNL     1      -3.115   3.030  -2.322  0.00  0.00    +0.076 A 
BRANCH  28  29
ATOM     29  C   UNL     1      -2.300   2.743  -3.556  0.00  0.00    +0.419 C 
ATOM     30  F   UNL     1      -2.550   3.726  -4.520  0.00  0.00    -0.166 F 
ATOM     31  F   UNL     1      -0.940   2.747  -3.228  0.00  0.00    -0.166 F 
ATOM     32  F   UNL     1      -2.653   1.489  -4.066  0.00  0.00    -0.166 F 
ENDBRANCH  28  29
ENDBRANCH  21  23
ENDBRANCH   3  19
TORSDOF 4
