REMARK  Name = ZINC38588332
REMARK  6 active torsions:
REMARK  status: ('A' for Active; 'I' for Inactive)
REMARK    1  A    between atoms: C_1  and  C_2
REMARK    2  A    between atoms: C_5  and  S_8
REMARK    3  A    between atoms: S_8  and  C_11
REMARK    4  A    between atoms: C_12  and  N_17
REMARK    5  A    between atoms: C_14  and  C_16
REMARK    6  A    between atoms: C_20  and  C_23
REMARK                            x       y       z     vdW  Elec       q    Type
REMARK                         _______ _______ _______ _____ _____    ______ ____
ROOT
ATOM      1  C   UNL     1       1.770  -4.956  -0.177  0.00  0.00    +0.243 A 
ATOM      2  C   UNL     1       2.436  -5.154  -1.337  0.00  0.00    +0.235 A 
ATOM      3  O   UNL     1       3.656  -5.627  -1.015  0.00  0.00    -0.424 OA
ATOM      4  C   UNL     1       3.722  -5.713   0.324  0.00  0.00    +0.197 A 
ATOM      5  N   UNL     1       2.593  -5.305   0.828  0.00  0.00    -0.193 NA
ATOM      6  C   UNL     1       4.911  -6.196   1.113  0.00  0.00    +0.109 C 
ENDROOT
BRANCH   2   7
ATOM      7  N   UNL     1       1.952  -4.913  -2.622  0.00  0.00    -0.299 N 
ATOM      8  C   UNL     1       2.161  -3.611  -3.268  0.00  0.00    +0.108 C 
ATOM      9  C   UNL     1       2.818  -3.837  -4.634  0.00  0.00    +0.022 C 
ATOM     10  C   UNL     1       1.967  -4.815  -5.448  0.00  0.00    -0.011 C 
ATOM     11  C   UNL     1       1.892  -6.158  -4.720  0.00  0.00    +0.022 C 
ATOM     12  C   UNL     1       1.230  -5.960  -3.358  0.00  0.00    +0.108 C 
ATOM     13  C   UNL     1       2.602  -5.017  -6.826  0.00  0.00    +0.007 C 
ENDBRANCH   2   7
BRANCH   1  14
ATOM     14  S   UNL     1       0.125  -4.346  -0.012  0.00  0.00    +0.047 S 
ATOM     15  O   UNL     1      -0.397  -4.906   1.185  0.00  0.00    -0.163 OA
ATOM     16  O   UNL     1      -0.503  -4.523  -1.274  0.00  0.00    -0.163 OA
BRANCH  14  21
ATOM     17  C   UNL     1       0.512   1.607   0.898  0.00  0.00    +0.044 C 
ATOM     18  C   UNL     1       0.416   0.120   0.671  0.00  0.00    -0.050 A 
ATOM     19  C   UNL     1       0.210  -0.372  -0.604  0.00  0.00    +0.005 A 
ATOM     20  C   UNL     1       0.121  -1.736  -0.813  0.00  0.00    +0.028 A 
ATOM     21  C   UNL     1       0.239  -2.607   0.254  0.00  0.00    +0.095 A 
ATOM     22  C   UNL     1       0.447  -2.115   1.529  0.00  0.00    +0.028 A 
ATOM     23  C   UNL     1       0.539  -0.752   1.737  0.00  0.00    +0.005 A 
ENDBRANCH  14  21
ENDBRANCH   1  14
TORSDOF 3
