REMARK  Name = ZINC35747129
REMARK  13 active torsions:
REMARK  status: ('A' for Active; 'I' for Inactive)
REMARK    1  A    between atoms: C_1  and  C_2
REMARK    2  A    between atoms: C_8  and  C_17
REMARK    3  A    between atoms: C_12  and  C_13
REMARK    4  A    between atoms: C_13  and  O_15
REMARK    5  A    between atoms: O_15  and  C_16
REMARK    6  A    between atoms: C_17  and  N_18
REMARK    7  A    between atoms: N_18  and  C_19
REMARK    8  A    between atoms: N_18  and  C_32
REMARK    9  A    between atoms: C_19  and  C_20
REMARK   10  A    between atoms: C_20  and  C_22
REMARK   11  A    between atoms: C_20  and  O_31
REMARK   12  A    between atoms: C_22  and  O_23
REMARK   13  A    between atoms: O_23  and  C_24
REMARK                            x       y       z     vdW  Elec       q    Type
REMARK                         _______ _______ _______ _____ _____    ______ ____
ROOT
ATOM      1  N   UNL     1       0.006  -4.665  -3.994  0.00  0.00    +0.388 N 
ATOM      2  H   UNL     1      -0.804  -4.929  -3.453  0.00  0.00    -0.081 HD
ENDROOT
BRANCH   1   3
ATOM      3  C   UNL     1       1.219  -4.869  -3.191  0.00  0.00    -0.068 C 
ATOM      4  C   UNL     1       1.051  -5.485  -1.800  0.00  0.00    -0.017 C 
ATOM      5  C   UNL     1       1.394  -4.001  -1.944  0.00  0.00    -0.017 C 
ENDBRANCH   1   3
BRANCH   1   6
ATOM      6  C   UNL     1      -0.098  -3.250  -4.374  0.00  0.00    -0.003 C 
BRANCH   6  14
ATOM      7  C   UNL     1      -5.616  -1.322  -7.552  0.00  0.00    +0.046 C 
ATOM      8  C   UNL     1      -5.118  -2.575  -6.880  0.00  0.00    -0.015 A 
ATOM      9  C   UNL     1      -3.849  -2.601  -6.298  0.00  0.00    +0.076 A 
ATOM     10  C   UNL     1      -2.833  -1.526  -6.222  0.00  0.00    +0.260 A 
ATOM     11  O   UNL     1      -3.045  -0.430  -6.708  0.00  0.00    -0.267 OA
ATOM     12  N   UNL     1      -1.667  -1.793  -5.601  0.00  0.00    -0.312 N 
ATOM     13  H   UNL     1      -0.991  -1.100  -5.543  0.00  0.00    +0.170 HD
ATOM     14  C   UNL     1      -1.420  -3.009  -5.056  0.00  0.00    +0.094 A 
ATOM     15  N   UNL     1      -2.294  -3.978  -5.106  0.00  0.00    -0.229 NA
ATOM     16  C   UNL     1      -3.473  -3.822  -5.694  0.00  0.00    +0.116 A 
ATOM     17  S   UNL     1      -4.886  -4.862  -5.961  0.00  0.00    -0.062 S 
ATOM     18  C   UNL     1      -5.909  -3.687  -6.834  0.00  0.00    +0.102 A 
BRANCH  18  19
ATOM     19  C   UNL     1      -7.259  -3.872  -7.370  0.00  0.00    +0.346 C 
ATOM     20  O   UNL     1      -7.815  -2.956  -7.946  0.00  0.00    -0.244 OA
BRANCH  19  21
ATOM     21  O   UNL     1      -7.886  -5.057  -7.224  0.00  0.00    -0.464 OA
ATOM     22  C   UNL     1      -9.202  -5.166  -7.772  0.00  0.00    +0.280 C 
ENDBRANCH  19  21
ENDBRANCH  18  19
ENDBRANCH   6  14
ENDBRANCH   1   6
BRANCH   1  23
ATOM     23  C   UNL     1       0.075  -5.494  -5.205  0.00  0.00    -0.043 C 
BRANCH  23  24
ATOM     24  C   UNL     1       0.058  -6.973  -4.813  0.00  0.00    +0.135 C 
BRANCH  24  25
ATOM     25  O   UNL     1       1.181  -7.257  -3.976  0.00  0.00    -0.390 OA
ATOM     26  H   UNL     1       2.036  -7.082  -4.392  0.00  0.00    +0.210 HD
ENDBRANCH  24  25
BRANCH  24  27
ATOM     27  C   UNL     1       0.131  -7.836  -6.074  0.00  0.00    +0.258 C 
BRANCH  27  28
ATOM     28  O   UNL     1      -0.003  -9.213  -5.717  0.00  0.00    -0.489 OA
BRANCH  28  29
ATOM     29  C   UNL     1       0.041 -10.120  -6.729  0.00  0.00    +0.121 A 
ATOM     30  C   UNL     1       0.214  -9.693  -8.037  0.00  0.00    +0.047 A 
ATOM     31  C   UNL     1       0.257 -10.616  -9.064  0.00  0.00    +0.023 A 
ATOM     32  C   UNL     1       0.128 -11.966  -8.788  0.00  0.00    +0.041 A 
ATOM     33  C   UNL     1      -0.045 -12.393  -7.484  0.00  0.00    +0.023 A 
ATOM     34  C   UNL     1      -0.083 -11.474  -6.454  0.00  0.00    +0.047 A 
ATOM     35 CL   UNL     1       0.183 -13.123 -10.081  0.00  0.00    -0.084 Cl
ENDBRANCH  28  29
ENDBRANCH  27  28
ENDBRANCH  24  27
ENDBRANCH  23  24
ENDBRANCH   1  23
TORSDOF 11
