REMARK  Name = ZINC06238212
REMARK  5 active torsions:
REMARK  status: ('A' for Active; 'I' for Inactive)
REMARK    1  A    between atoms: C_6  and  S_11
REMARK    2  A    between atoms: S_11  and  N_14
REMARK    3  A    between atoms: N_14  and  C_15
REMARK    4  A    between atoms: C_18  and  S_22
REMARK    5  A    between atoms: S_22  and  N_25
REMARK                            x       y       z     vdW  Elec       q    Type
REMARK                         _______ _______ _______ _____ _____    ______ ____
ROOT
ATOM      1  N   UNL     1       2.401   1.107  -0.015  0.00  0.00    -0.215 N 
ATOM      2  H   UNL     1       3.139   1.444   0.517  0.00  0.00    +0.174 HD
ENDROOT
BRANCH   1   3
ATOM      3  C   UNL     1       1.243   1.875  -0.169  0.00  0.00    +0.066 A 
ATOM      4  C   UNL     1       0.002   1.256  -0.234  0.00  0.00    +0.028 A 
ATOM      5  C   UNL     1      -1.140   2.017  -0.392  0.00  0.00    +0.030 A 
ATOM      6  C   UNL     1      -1.050   3.395  -0.474  0.00  0.00    +0.107 A 
ATOM      7  C   UNL     1       0.185   4.015  -0.409  0.00  0.00    +0.050 A 
ATOM      8  C   UNL     1       1.332   3.259  -0.257  0.00  0.00    +0.065 A 
ATOM      9 CL   UNL     1       2.881   4.038  -0.176  0.00  0.00    -0.082 Cl
BRANCH   6  10
ATOM     10  S   UNL     1      -2.510   4.362  -0.668  0.00  0.00    +0.056 S 
ATOM     11  O   UNL     1      -3.583   3.584  -0.154  0.00  0.00    -0.153 OA
ATOM     12  O   UNL     1      -2.206   5.660  -0.176  0.00  0.00    -0.153 OA
BRANCH  10  13
ATOM     13  N   UNL     1      -2.778   4.522  -2.294  0.00  0.00    -0.204 NA
ATOM     14  H   UNL     1      -2.170   4.112  -2.929  0.00  0.00    +0.144 HD
ATOM     15  H   UNL     1      -3.543   5.027  -2.612  0.00  0.00    +0.144 HD
ENDBRANCH  10  13
ENDBRANCH   6  10
ENDBRANCH   1   3
BRANCH   1  16
ATOM     16  S   UNL     1       2.513  -0.377  -0.742  0.00  0.00    +0.072 S 
ATOM     17  O   UNL     1       3.837  -0.841  -0.514  0.00  0.00    -0.150 OA
ATOM     18  O   UNL     1       1.367  -1.114  -0.339  0.00  0.00    -0.150 OA
BRANCH  16  24
ATOM     19  C   UNL     1       3.078   0.713  -7.338  0.00  0.00    +0.001 A 
ATOM     20  C   UNL     1       4.339   0.745  -6.747  0.00  0.00    +0.001 A 
ATOM     21  C   UNL     1       4.491   0.551  -5.409  0.00  0.00    +0.008 A 
ATOM     22  C   UNL     1       3.361   0.314  -4.608  0.00  0.00    -0.016 A 
ATOM     23  C   UNL     1       3.478   0.109  -3.223  0.00  0.00    +0.037 A 
ATOM     24  C   UNL     1       2.362  -0.119  -2.479  0.00  0.00    +0.109 A 
ATOM     25  C   UNL     1       1.100  -0.157  -3.071  0.00  0.00    +0.029 A 
ATOM     26  C   UNL     1       0.948   0.043  -4.408  0.00  0.00    +0.010 A 
ATOM     27  C   UNL     1       2.078   0.281  -5.209  0.00  0.00    -0.018 A 
ATOM     28  C   UNL     1       1.961   0.485  -6.594  0.00  0.00    +0.008 A 
ENDBRANCH  16  24
ENDBRANCH   1  16
TORSDOF 5
