REMARK  Name = ZINC08995138
REMARK  3 active torsions:
REMARK  status: ('A' for Active; 'I' for Inactive)
REMARK    1  A    between atoms: C_7  and  C_11
REMARK    2  A    between atoms: C_11  and  C_12
REMARK    3  A    between atoms: N_20  and  C_23
REMARK                            x       y       z     vdW  Elec       q    Type
REMARK                         _______ _______ _______ _____ _____    ______ ____
ROOT
ATOM      1  C   UNL     1      -0.019   1.526   0.010  0.00  0.00    -0.053 C 
ATOM      2  C   UNL     1       1.401   2.085  -0.000  0.00  0.00    +0.074 C 
ATOM      3  C   UNL     1       1.752   1.757   1.503  0.00  0.00    +0.088 C 
ATOM      4  C   UNL     1       3.192   1.883   1.497  0.00  0.00    +0.229 C 
ATOM      5  O   UNL     1       3.901   2.288   2.393  0.00  0.00    -0.275 OA
ATOM      6  N   UNL     1       3.580   1.442   0.257  0.00  0.00    -0.210 N 
ATOM      7  C   UNL     1       2.532   1.323  -0.613  0.00  0.00    +0.228 C 
ATOM      8  O   UNL     1       2.522   0.722  -1.666  0.00  0.00    -0.275 OA
ATOM      9  C   UNL     1       0.582   2.259   2.231  0.00  0.00    +0.050 C 
ATOM     10  C   UNL     1       0.311   1.559   3.538  0.00  0.00    -0.025 A 
ATOM     11  C   UNL     1       0.137   0.237   3.879  0.00  0.00    +0.043 A 
ATOM     12  C   UNL     1      -0.104  -0.112   5.198  0.00  0.00    +0.124 A 
ATOM     13  C   UNL     1      -0.168   0.874   6.169  0.00  0.00    +0.040 A 
ATOM     14  C   UNL     1       0.008   2.199   5.829  0.00  0.00    +0.026 A 
ATOM     15  C   UNL     1       0.249   2.556   4.505  0.00  0.00    +0.036 A 
ATOM     16  N   UNL     1       0.456   3.808   3.920  0.00  0.00    -0.286 N 
ATOM     17  C   UNL     1       0.657   3.723   2.593  0.00  0.00    +0.211 C 
ATOM     18  O   UNL     1       0.860   4.646   1.833  0.00  0.00    -0.277 OA
ATOM     19  F   UNL     1      -0.277  -1.408   5.536  0.00  0.00    -0.205 F 
ATOM     20  H   UNL     1       0.454   4.643   4.415  0.00  0.00    +0.155 HD
ATOM     21  N   UNL     1      -0.559   2.040   1.303  0.00  0.00    +0.394 N 
ATOM     22  H   UNL     1      -1.207   1.353   1.706  0.00  0.00    -0.083 HD
ATOM     23  H   UNL     1      -1.054   2.925   1.145  0.00  0.00    -0.083 HD
ENDROOT
BRANCH   6  24
ATOM     24  C   UNL     1       4.909   1.147  -0.082  0.00  0.00    +0.044 A 
ATOM     25  C   UNL     1       5.917   1.300   0.859  0.00  0.00    +0.027 A 
ATOM     26  C   UNL     1       7.223   1.003   0.526  0.00  0.00    +0.040 A 
ATOM     27  C   UNL     1       7.530   0.563  -0.751  0.00  0.00    +0.124 A 
ATOM     28  C   UNL     1       6.526   0.415  -1.694  0.00  0.00    +0.040 A 
ATOM     29  C   UNL     1       5.218   0.706  -1.362  0.00  0.00    +0.027 A 
ATOM     30  F   UNL     1       8.809   0.278  -1.078  0.00  0.00    -0.205 F 
ENDBRANCH   6  24
BRANCH   1  31
ATOM     31  C   UNL     1       0.002  -0.004   0.002  0.00  0.00    +0.022 C 
BRANCH  31  38
ATOM     32  C   UNL     1      -2.836  -0.812  -3.641  0.00  0.00    +0.001 A 
ATOM     33  C   UNL     1      -4.076  -1.305  -3.261  0.00  0.00    +0.002 A 
ATOM     34  C   UNL     1      -4.374  -1.510  -1.931  0.00  0.00    +0.026 A 
ATOM     35  C   UNL     1      -3.423  -1.222  -0.958  0.00  0.00    +0.047 A 
ATOM     36  C   UNL     1      -2.167  -0.722  -1.348  0.00  0.00    +0.003 A 
ATOM     37  C   UNL     1      -1.887  -0.521  -2.701  0.00  0.00    +0.010 A 
ATOM     38  C   UNL     1      -1.407  -0.525  -0.111  0.00  0.00    -0.024 A 
ATOM     39  C   UNL     1      -2.203  -0.902   0.902  0.00  0.00    +0.087 A 
ATOM     40  N   UNL     1      -3.413  -1.316   0.416  0.00  0.00    -0.360 N 
ATOM     41  H   UNL     1      -4.153  -1.632   0.958  0.00  0.00    +0.165 HD
ENDBRANCH  31  38
ENDBRANCH   1  31
TORSDOF 3
