REMARK  Name = ZINC19113735
REMARK  10 active torsions:
REMARK  status: ('A' for Active; 'I' for Inactive)
REMARK    1  A    between atoms: C_1  and  N_2
REMARK    2  A    between atoms: N_2  and  C_3
REMARK    3  A    between atoms: C_9  and  C_11
REMARK    4  A    between atoms: C_14  and  C_31
REMARK    5  A    between atoms: C_16  and  N_17
REMARK    6  A    between atoms: C_20  and  N_82
REMARK    7  A    between atoms: C_26  and  C_29
REMARK    8  A    between atoms: C_29  and  O_30
REMARK    9  A    between atoms: C_34  and  S_37
REMARK   10  A    between atoms: S_37  and  C_38
REMARK                            x       y       z     vdW  Elec       q    Type
REMARK                         _______ _______ _______ _____ _____    ______ ____
ROOT
ATOM      1  C   UNL     1       4.606  -0.085  -0.141  0.00  0.00    +0.077 A 
ATOM      2  C   UNL     1       4.436   1.290   0.074  0.00  0.00    +0.018 A 
ATOM      3  C   UNL     1       3.189   1.747   0.449  0.00  0.00    +0.029 A 
ATOM      4  C   UNL     1       2.145   0.835   0.612  0.00  0.00    +0.073 A 
ATOM      5  N   UNL     1       2.331  -0.462   0.402  0.00  0.00    -0.231 NA
ATOM      6  C   UNL     1       3.508  -0.944   0.036  0.00  0.00    +0.134 A 
ENDROOT
BRANCH   6   7
ATOM      7  N   UNL     1       3.658  -2.303  -0.172  0.00  0.00    -0.315 N 
ATOM      8  C   UNL     1       3.961  -2.997   1.086  0.00  0.00    +0.105 C 
ATOM      9  C   UNL     1       4.264  -4.470   0.797  0.00  0.00    +0.004 C 
ATOM     10  C   UNL     1       3.051  -5.111   0.117  0.00  0.00    -0.066 C 
ATOM     11  C   UNL     1       2.727  -4.339  -1.165  0.00  0.00    +0.004 C 
ATOM     12  C   UNL     1       2.469  -2.871  -0.819  0.00  0.00    +0.105 C 
BRANCH  10  18
ATOM     13  C   UNL     1       4.444  -6.591  -1.197  0.00  0.00    -0.078 C 
ATOM     14  C   UNL     1       4.636  -8.047  -1.628  0.00  0.00    -0.018 C 
ATOM     15  C   UNL     1       4.967  -8.899  -0.399  0.00  0.00    +0.002 C 
ATOM     16  C   UNL     1       3.840  -8.757   0.629  0.00  0.00    -0.002 C 
ATOM     17  C   UNL     1       3.672  -7.281   0.994  0.00  0.00    -0.073 C 
ATOM     18  N   UNL     1       3.331  -6.520  -0.227  0.00  0.00    +0.382 N 
ATOM     19  H   UNL     1       2.492  -6.932  -0.652  0.00  0.00    -0.081 HD
BRANCH  16  20
ATOM     20  C   UNL     1       4.190  -9.557   1.885  0.00  0.00    +0.157 C 
BRANCH  20  21
ATOM     21  O   UNL     1       4.233 -10.950   1.566  0.00  0.00    -0.395 OA
ATOM     22  H   UNL     1       4.450 -11.519   2.318  0.00  0.00    +0.209 HD
ENDBRANCH  20  21
ENDBRANCH  16  20
ENDBRANCH  10  18
ENDBRANCH   6   7
BRANCH   4  23
ATOM     23  C   UNL     1       0.808   1.323   1.020  0.00  0.00    +0.000 A 
ATOM     24  C   UNL     1      -0.246   0.422   1.181  0.00  0.00    +0.011 A 
ATOM     25  C   UNL     1      -1.490   0.878   1.555  0.00  0.00    +0.015 A 
ATOM     26  C   UNL     1      -1.695   2.236   1.783  0.00  0.00    +0.008 A 
ATOM     27  C   UNL     1      -0.646   3.136   1.623  0.00  0.00    +0.015 A 
ATOM     28  C   UNL     1       0.599   2.685   1.244  0.00  0.00    +0.011 A 
BRANCH  26  29
ATOM     29  S   UNL     1      -3.286   2.817   2.267  0.00  0.00    -0.129 S 
ATOM     30  C   UNL     1      -4.298   1.313   2.342  0.00  0.00    +0.090 C 
ENDBRANCH  26  29
ENDBRANCH   4  23
BRANCH   1  33
ATOM     31  C   UNL     1       5.994   1.061  -2.311  0.00  0.00    +0.132 C 
ATOM     32  N   UNL     1       6.553  -0.103  -1.618  0.00  0.00    -0.297 N 
ATOM     33  C   UNL     1       5.916  -0.620  -0.549  0.00  0.00    +0.250 C 
ATOM     34  O   UNL     1       6.423  -1.530   0.080  0.00  0.00    -0.270 OA
BRANCH  32  35
ATOM     35  C   UNL     1       7.803  -0.704  -2.088  0.00  0.00    +0.076 C 
ATOM     36  C   UNL     1       8.924   0.336  -2.026  0.00  0.00    +0.022 C 
ATOM     37  C   UNL     1      10.230  -0.293  -2.516  0.00  0.00    +0.002 C 
ATOM     38  C   UNL     1      10.056  -0.770  -3.959  0.00  0.00    +0.000 C 
ATOM     39  C   UNL     1       8.935  -1.810  -4.021  0.00  0.00    +0.002 C 
ATOM     40  C   UNL     1       7.629  -1.182  -3.531  0.00  0.00    +0.022 C 
ENDBRANCH  32  35
ENDBRANCH   1  33
TORSDOF 8
