REMARK  Name = ZINC26332059
REMARK  11 active torsions:
REMARK  status: ('A' for Active; 'I' for Inactive)
REMARK    1  A    between atoms: C_1  and  C_2
REMARK    2  A    between atoms: C_2  and  C_3
REMARK    3  A    between atoms: C_2  and  C_4
REMARK    4  A    between atoms: C_2  and  N_5
REMARK    5  A    between atoms: C_6  and  C_8
REMARK    6  A    between atoms: C_8  and  C_10
REMARK    7  A    between atoms: C_8  and  N_15
REMARK    8  A    between atoms: N_15  and  C_16
REMARK    9  A    between atoms: C_16  and  C_17
REMARK   10  A    between atoms: C_24  and  C_26
REMARK   11  A    between atoms: C_26  and  N_27
REMARK                            x       y       z     vdW  Elec       q    Type
REMARK                         _______ _______ _______ _____ _____    ______ ____
ROOT
ATOM      1  N   UNL     1      -5.837   4.140  -1.881  0.00  0.00    -0.280 N 
ATOM      2  C   UNL     1      -4.529   4.423  -2.040  0.00  0.00    +0.238 C 
ATOM      3  O   UNL     1      -4.147   4.981  -3.047  0.00  0.00    -0.274 OA
ENDROOT
BRANCH   1   4
ATOM      4  C   UNL     1      -6.297   3.466  -0.664  0.00  0.00    +0.193 C 
BRANCH   4   5
ATOM      5  C   UNL     1      -5.807   2.041  -0.664  0.00  0.00    -0.011 A 
ATOM      6  C   UNL     1      -5.483   1.411   0.523  0.00  0.00    +0.013 A 
ATOM      7  C   UNL     1      -5.050   0.127   0.489  0.00  0.00    +0.045 A 
ATOM      8  S   UNL     1      -5.078  -0.226  -1.260  0.00  0.00    -0.105 S 
ATOM      9  C   UNL     1      -5.672   1.359  -1.828  0.00  0.00    +0.051 A 
ENDBRANCH   4   5
BRANCH   4  11
ATOM     10  N   UNL     1      -8.444   3.967   0.458  0.00  0.00    -0.309 N 
ATOM     11  C   UNL     1      -7.804   3.478  -0.623  0.00  0.00    +0.239 C 
ATOM     12  O   UNL     1      -8.440   3.049  -1.562  0.00  0.00    -0.273 OA
ATOM     13  H   UNL     1      -7.867   4.357   1.309  0.00  0.00    +0.149 HD
BRANCH  10  15
ATOM     14  C   UNL     1     -10.434   2.548   0.373  0.00  0.00    +0.031 C 
ATOM     15  C   UNL     1      -9.908   3.980   0.498  0.00  0.00    +0.026 C 
ATOM     16  C   UNL     1     -10.377   4.581   1.824  0.00  0.00    +0.031 C 
ATOM     17  C   UNL     1     -10.444   4.822  -0.662  0.00  0.00    +0.031 C 
ENDBRANCH  10  15
ENDBRANCH   4  11
ENDBRANCH   1   4
BRANCH   1  18
ATOM     18  C   UNL     1      -6.798   4.507  -2.924  0.00  0.00    +0.144 C 
BRANCH  18  19
ATOM     19  C   UNL     1      -6.745   3.491  -4.035  0.00  0.00    -0.030 A 
ATOM     20  C   UNL     1      -5.769   3.583  -5.010  0.00  0.00    +0.008 A 
ATOM     21  C   UNL     1      -5.717   2.649  -6.027  0.00  0.00    +0.038 A 
ATOM     22  C   UNL     1      -6.649   1.626  -6.075  0.00  0.00    +0.123 A 
ATOM     23  C   UNL     1      -7.629   1.538  -5.102  0.00  0.00    +0.038 A 
ATOM     24  C   UNL     1      -7.676   2.470  -4.082  0.00  0.00    +0.008 A 
ATOM     25  F   UNL     1      -6.602   0.715  -7.072  0.00  0.00    -0.205 F 
ENDBRANCH  18  19
ENDBRANCH   1  18
BRANCH   2  26
ATOM     26  C   UNL     1      -3.540   4.046  -0.967  0.00  0.00    +0.241 C 
BRANCH  26  27
ATOM     27  N   UNL     1      -2.195   4.458  -1.375  0.00  0.00    -0.235 N 
ATOM     28  C   UNL     1      -1.287   3.712  -2.089  0.00  0.00    +0.090 A 
ATOM     29  C   UNL     1      -1.303   2.433  -2.634  0.00  0.00    +0.029 A 
ATOM     30  C   UNL     1      -0.207   1.966  -3.304  0.00  0.00    +0.002 A 
ATOM     31  C   UNL     1       0.921   2.761  -3.454  0.00  0.00    +0.002 A 
ATOM     32  C   UNL     1       0.960   4.022  -2.933  0.00  0.00    +0.032 A 
ATOM     33  C   UNL     1      -0.148   4.523  -2.238  0.00  0.00    +0.113 A 
ATOM     34  N   UNL     1      -0.399   5.697  -1.627  0.00  0.00    -0.129 NA
ATOM     35  N   UNL     1      -1.580   5.692  -1.116  0.00  0.00    -0.064 NA
ENDBRANCH  26  27
ENDBRANCH   2  26
TORSDOF 8
