REMARK  Name = ZINC36006141
REMARK  7 active torsions:
REMARK  status: ('A' for Active; 'I' for Inactive)
REMARK    1  A    between atoms: C_1  and  C_2
REMARK    2  A    between atoms: C_2  and  C_3
REMARK    3  A    between atoms: C_7  and  C_18
REMARK    4  A    between atoms: N_9  and  C_12
REMARK    5  A    between atoms: N_19  and  C_20
REMARK    6  A    between atoms: C_23  and  N_26
REMARK    7  A    between atoms: C_27  and  C_29
REMARK                            x       y       z     vdW  Elec       q    Type
REMARK                         _______ _______ _______ _____ _____    ______ ____
ROOT
ATOM      1  C   UNL     1       0.831  -0.041   1.579  0.00  0.00    +0.133 A 
ATOM      2  N   UNL     1       2.147  -0.156   1.579  0.00  0.00    -0.217 NA
ATOM      3  C   UNL     1       2.787  -0.739   2.587  0.00  0.00    +0.134 A 
ATOM      4  C   UNL     1       2.027  -1.234   3.664  0.00  0.00    +0.082 A 
ATOM      5  C   UNL     1       2.333  -1.893   4.875  0.00  0.00    +0.073 A 
ATOM      6  N   UNL     1       1.221  -2.127   5.511  0.00  0.00    -0.169 NA
ATOM      7  N   UNL     1       0.139  -1.643   4.765  0.00  0.00    -0.214 N 
ATOM      8  C   UNL     1       0.627  -1.086   3.617  0.00  0.00    +0.169 A 
ATOM      9  N   UNL     1       0.080  -0.483   2.564  0.00  0.00    -0.212 NA
ATOM     10  C   UNL     1       3.714  -2.263   5.351  0.00  0.00    +0.068 C 
ATOM     11  N   UNL     1       4.163  -0.856   2.579  0.00  0.00    -0.326 N 
ATOM     12  H   UNL     1       4.624  -1.213   3.354  0.00  0.00    +0.148 HD
ENDROOT
BRANCH   7  13
ATOM     13  C   UNL     1      -1.211  -1.716   5.133  0.00  0.00    +0.068 A 
ATOM     14  C   UNL     1      -2.081  -0.689   4.794  0.00  0.00    +0.028 A 
ATOM     15  C   UNL     1      -3.411  -0.764   5.157  0.00  0.00    +0.002 A 
ATOM     16  C   UNL     1      -3.877  -1.862   5.858  0.00  0.00    +0.000 A 
ATOM     17  C   UNL     1      -3.012  -2.887   6.197  0.00  0.00    +0.002 A 
ATOM     18  C   UNL     1      -1.682  -2.820   5.831  0.00  0.00    +0.028 A 
ENDBRANCH   7  13
BRANCH  11  19
ATOM     19  C   UNL     1       4.926  -0.441   1.399  0.00  0.00    +0.072 C 
ATOM     20  C   UNL     1       4.969  -1.589   0.389  0.00  0.00    +0.024 C 
ATOM     21  C   UNL     1       5.766  -1.156  -0.843  0.00  0.00    +0.024 C 
ATOM     22  C   UNL     1       7.192  -0.791  -0.425  0.00  0.00    +0.073 C 
ATOM     23  C   UNL     1       7.149   0.358   0.585  0.00  0.00    +0.024 C 
ATOM     24  C   UNL     1       6.352  -0.076   1.817  0.00  0.00    +0.024 C 
BRANCH  22  25
ATOM     25  N   UNL     1       7.955  -0.376  -1.605  0.00  0.00    -0.312 N 
ATOM     26  C   UNL     1       9.298  -0.490  -1.613  0.00  0.00    +0.216 C 
ATOM     27  O   UNL     1       9.874  -0.937  -0.644  0.00  0.00    -0.276 OA
ATOM     28  H   UNL     1       7.494  -0.019  -2.380  0.00  0.00    +0.149 HD
BRANCH  26  29
ATOM     29  C   UNL     1      10.083  -0.063  -2.826  0.00  0.00    +0.075 C 
ATOM     30  C   UNL     1       9.692  -0.930  -4.041  0.00  0.00    +0.013 C 
ATOM     31  C   UNL     1      11.022  -1.129  -4.809  0.00  0.00    +0.001 C 
ATOM     32  C   UNL     1      12.056  -1.290  -3.667  0.00  0.00    +0.001 C 
ATOM     33  C   UNL     1      11.586  -0.292  -2.589  0.00  0.00    +0.013 C 
ENDBRANCH  26  29
ENDBRANCH  22  25
ENDBRANCH  11  19
BRANCH   1  35
ATOM     34  C   UNL     1       0.056   2.134   0.673  0.00  0.00    +0.012 C 
ATOM     35  C   UNL     1       0.164   0.631   0.406  0.00  0.00    +0.073 C 
ENDBRANCH   1  35
TORSDOF 5
