REMARK  Name = ZINC63281826
REMARK  10 active torsions:
REMARK  status: ('A' for Active; 'I' for Inactive)
REMARK    1  A    between atoms: C_1  and  O_2
REMARK    2  A    between atoms: O_2  and  C_3
REMARK    3  A    between atoms: C_6  and  O_32
REMARK    4  A    between atoms: C_9  and  C_13
REMARK    5  A    between atoms: N_15  and  C_16
REMARK    6  A    between atoms: C_16  and  C_17
REMARK    7  A    between atoms: C_17  and  C_18
REMARK    8  A    between atoms: C_18  and  C_19
REMARK    9  A    between atoms: C_19  and  N_21
REMARK   10  A    between atoms: O_32  and  C_33
REMARK                            x       y       z     vdW  Elec       q    Type
REMARK                         _______ _______ _______ _____ _____    ______ ____
ROOT
ATOM      1  C   UNL     1      -0.620  -5.137   1.263  0.00  0.00    +0.239 C 
ATOM      2  O   UNL     1      -0.878  -5.409   2.417  0.00  0.00    -0.273 OA
ATOM      3  N   UNL     1      -1.420  -5.578   0.272  0.00  0.00    -0.313 N 
ATOM      4  H   UNL     1      -1.215  -5.359  -0.651  0.00  0.00    +0.149 HD
ENDROOT
BRANCH   1  11
ATOM      5  C   UNL     1       0.542  -0.554   1.063  0.00  0.00    +0.129 A 
ATOM      6  C   UNL     1       1.099   0.186   2.055  0.00  0.00    +0.050 A 
ATOM      7  C   UNL     1       1.757  -0.397   3.142  0.00  0.00    +0.051 A 
ATOM      8  C   UNL     1       1.886  -1.739   3.286  0.00  0.00    +0.144 A 
ATOM      9  C   UNL     1       1.321  -2.637   2.273  0.00  0.00    +0.089 A 
ATOM     10  N   UNL     1       1.304  -3.944   2.170  0.00  0.00    -0.367 N 
ATOM     11  C   UNL     1       0.593  -4.305   0.938  0.00  0.00    +0.190 C 
ATOM     12  C   UNL     1       0.176  -2.998   0.302  0.00  0.00    +0.020 C 
ATOM     13  C   UNL     1       0.619  -2.022   1.123  0.00  0.00    +0.042 A 
ATOM     14  H   UNL     1       1.696  -4.568   2.802  0.00  0.00    +0.161 HD
BRANCH   5  16
ATOM     15  C   UNL     1      -0.121   1.484   0.038  0.00  0.00    +0.277 C 
ATOM     16  O   UNL     1      -0.087   0.056   0.026  0.00  0.00    -0.494 OA
ENDBRANCH   5  16
BRANCH   8  17
ATOM     17  O   UNL     1       2.537  -2.251   4.366  0.00  0.00    -0.493 OA
ATOM     18  C   UNL     1       3.061  -1.316   5.311  0.00  0.00    +0.277 C 
ENDBRANCH   8  17
ENDBRANCH   1  11
BRANCH   3  19
ATOM     19  C   UNL     1      -2.600  -6.386   0.588  0.00  0.00    +0.104 C 
BRANCH  19  20
ATOM     20  C   UNL     1      -3.329  -6.753  -0.707  0.00  0.00    +0.028 C 
BRANCH  20  21
ATOM     21  C   UNL     1      -4.561  -7.598  -0.377  0.00  0.00    +0.099 C 
BRANCH  21  22
ATOM     22  C   UNL     1      -5.279  -7.959  -1.651  0.00  0.00    +0.238 C 
ATOM     23  O   UNL     1      -4.846  -7.577  -2.722  0.00  0.00    -0.274 OA
BRANCH  22  24
ATOM     24  N   UNL     1      -6.385  -8.694  -1.606  0.00  0.00    -0.157 NA
ATOM     25  C   UNL     1      -7.076  -8.926  -2.720  0.00  0.00    +0.164 A 
ATOM     26  N   UNL     1      -6.743  -8.588  -3.991  0.00  0.00    -0.335 N 
ATOM     27  H   UNL     1      -5.912  -8.121  -4.169  0.00  0.00    +0.168 HD
ATOM     28  C   UNL     1      -7.591  -8.914  -5.033  0.00  0.00    +0.055 A 
ATOM     29  C   UNL     1      -7.445  -8.664  -6.405  0.00  0.00    +0.027 A 
ATOM     30  C   UNL     1      -8.409  -9.069  -7.298  0.00  0.00    +0.002 A 
ATOM     31  C   UNL     1      -9.548  -9.733  -6.871  0.00  0.00    +0.001 A 
ATOM     32  C   UNL     1      -9.716  -9.992  -5.522  0.00  0.00    +0.017 A 
ATOM     33  C   UNL     1      -8.752  -9.587  -4.629  0.00  0.00    +0.039 A 
ATOM     34  S   UNL     1      -8.556  -9.709  -2.870  0.00  0.00    -0.052 S 
ENDBRANCH  22  24
ENDBRANCH  21  22
ENDBRANCH  20  21
ENDBRANCH  19  20
ENDBRANCH   3  19
TORSDOF 8
