REMARK  Name = ZINC66667121
REMARK  10 active torsions:
REMARK  status: ('A' for Active; 'I' for Inactive)
REMARK    1  A    between atoms: C_1  and  C_2
REMARK    2  A    between atoms: C_7  and  N_8
REMARK    3  A    between atoms: C_14  and  C_17
REMARK    4  A    between atoms: C_14  and  N_18
REMARK    5  A    between atoms: N_18  and  C_19
REMARK    6  A    between atoms: C_20  and  O_22
REMARK    7  A    between atoms: O_22  and  C_23
REMARK    8  A    between atoms: C_23  and  C_24
REMARK    9  A    between atoms: C_23  and  C_25
REMARK   10  A    between atoms: C_23  and  C_26
REMARK                            x       y       z     vdW  Elec       q    Type
REMARK                         _______ _______ _______ _____ _____    ______ ____
ROOT
ATOM      1  N   UNL     1      -0.178   0.431   2.291  0.00  0.00    -0.269 N 
ATOM      2  C   UNL     1      -0.169  -0.343   3.394  0.00  0.00    +0.306 C 
ATOM      3  O   UNL     1      -0.100  -1.553   3.287  0.00  0.00    -0.252 OA
ATOM      4  N   UNL     1      -0.236   0.222   4.616  0.00  0.00    -0.285 N 
ATOM      5  C   UNL     1      -0.432   1.671   4.760  0.00  0.00    +0.111 C 
ATOM      6  C   UNL     1      -1.637   1.916   5.675  0.00  0.00    +0.045 C 
ATOM      7  C   UNL     1      -1.427   1.176   6.997  0.00  0.00    +0.040 C 
ATOM      8  C   UNL     1      -1.321  -0.328   6.731  0.00  0.00    +0.045 C 
ATOM      9  C   UNL     1      -0.119  -0.599   5.828  0.00  0.00    +0.111 C 
ATOM     10  C   UNL     1      -2.612   1.446   7.927  0.00  0.00    +0.032 C 
ATOM     11  H   UNL     1      -0.176   1.398   2.377  0.00  0.00    +0.156 HD
ENDROOT
BRANCH   1  18
ATOM     12  C   UNL     1      -0.683   2.098   0.042  0.00  0.00    +0.045 C 
ATOM     13  C   UNL     1      -0.432   0.619  -0.103  0.00  0.00    -0.029 A 
ATOM     14  C   UNL     1      -0.437   0.036  -1.356  0.00  0.00    +0.008 A 
ATOM     15  C   UNL     1      -0.207  -1.320  -1.490  0.00  0.00    +0.039 A 
ATOM     16  C   UNL     1       0.030  -2.099  -0.370  0.00  0.00    +0.125 A 
ATOM     17  C   UNL     1       0.037  -1.521   0.886  0.00  0.00    +0.062 A 
ATOM     18  C   UNL     1      -0.189  -0.158   1.022  0.00  0.00    +0.040 A 
ATOM     19  F   UNL     1       0.254  -3.425  -0.505  0.00  0.00    -0.205 F 
ENDBRANCH   1  18
BRANCH   7  20
ATOM     20  N   UNL     1      -0.193   1.647   7.630  0.00  0.00    -0.265 N 
ATOM     21  C   UNL     1       0.787   0.682   8.135  0.00  0.00    +0.136 C 
ATOM     22  C   UNL     1       0.042   2.969   7.748  0.00  0.00    +0.404 C 
ATOM     23  O   UNL     1      -0.771   3.770   7.329  0.00  0.00    -0.226 OA
BRANCH  22  24
ATOM     24  O   UNL     1       1.176   3.403   8.330  0.00  0.00    -0.445 OA
BRANCH  24  25
ATOM     25  C   UNL     1       1.359   4.817   8.421  0.00  0.00    +0.107 C 
ATOM     26  C   UNL     1       0.218   5.427   9.238  0.00  0.00    +0.055 C 
ATOM     27  C   UNL     1       2.694   5.115   9.106  0.00  0.00    +0.055 C 
ATOM     28  C   UNL     1       1.360   5.423   7.016  0.00  0.00    +0.055 C 
ENDBRANCH  24  25
ENDBRANCH  22  24
ENDBRANCH   7  20
TORSDOF 4
