REMARK  Name = ZINC35142291
REMARK  15 active torsions:
REMARK  status: ('A' for Active; 'I' for Inactive)
REMARK    1  A    between atoms: C_1  and  C_2
REMARK    2  A    between atoms: C_6  and  N_8
REMARK    3  A    between atoms: C_9  and  N_17
REMARK    4  A    between atoms: C_11  and  C_13
REMARK    5  A    between atoms: C_13  and  C_14
REMARK    6  A    between atoms: C_13  and  C_15
REMARK    7  A    between atoms: C_13  and  C_16
REMARK    8  A    between atoms: C_18  and  C_20
REMARK    9  A    between atoms: C_20  and  N_21
REMARK   10  A    between atoms: N_21  and  C_22
REMARK   11  A    between atoms: C_22  and  C_23
REMARK   12  A    between atoms: C_23  and  C_24
REMARK   13  A    between atoms: C_24  and  O_25
REMARK   14  A    between atoms: O_25  and  C_26
REMARK   15  A    between atoms: C_27  and  C_29
REMARK                            x       y       z     vdW  Elec       q    Type
REMARK                         _______ _______ _______ _____ _____    ______ ____
ROOT
ATOM      1  N   UNL     1      -2.231  -4.857   0.128  0.00  0.00    -0.269 N 
ATOM      2  C   UNL     1      -2.554  -5.904   0.913  0.00  0.00    +0.236 C 
ATOM      3  O   UNL     1      -2.406  -5.830   2.114  0.00  0.00    -0.274 OA
ATOM      4  H   UNL     1      -2.349  -4.916  -0.833  0.00  0.00    +0.156 HD
ENDROOT
BRANCH   1   6
ATOM      5  N   UNL     1      -1.361  -2.560   0.030  0.00  0.00    -0.218 N 
ATOM      6  C   UNL     1      -1.727  -3.688   0.697  0.00  0.00    +0.129 A 
ATOM      7  C   UNL     1      -1.510  -3.467   2.023  0.00  0.00    +0.069 A 
ATOM      8  C   UNL     1      -1.001  -2.173   2.164  0.00  0.00    +0.071 A 
ATOM      9  N   UNL     1      -0.905  -1.633   0.976  0.00  0.00    -0.169 NA
BRANCH   5  15
ATOM     10  C   UNL     1      -2.126   0.441  -3.791  0.00  0.00    +0.044 C 
ATOM     11  C   UNL     1      -1.792  -0.919  -3.234  0.00  0.00    -0.048 A 
ATOM     12  C   UNL     1      -1.548  -1.976  -4.093  0.00  0.00    +0.003 A 
ATOM     13  C   UNL     1      -1.241  -3.225  -3.586  0.00  0.00    +0.002 A 
ATOM     14  C   UNL     1      -1.179  -3.422  -2.221  0.00  0.00    +0.028 A 
ATOM     15  C   UNL     1      -1.423  -2.363  -1.356  0.00  0.00    +0.068 A 
ATOM     16  C   UNL     1      -1.726  -1.108  -1.868  0.00  0.00    +0.031 A 
ENDBRANCH   5  15
BRANCH   8  17
ATOM     17  C   UNL     1      -0.619  -1.514   3.464  0.00  0.00    +0.006 C 
ATOM     18  C   UNL     1       0.706  -2.095   3.961  0.00  0.00    +0.017 C 
ATOM     19  C   UNL     1      -0.466  -0.007   3.246  0.00  0.00    +0.017 C 
ATOM     20  C   UNL     1      -1.711  -1.770   4.505  0.00  0.00    +0.017 C 
ENDBRANCH   8  17
ENDBRANCH   1   6
BRANCH   2  21
ATOM     21  C   UNL     1      -3.099  -7.167   0.297  0.00  0.00    +0.204 C 
BRANCH  21  22
ATOM     22  N   UNL     1      -3.369  -8.147   1.352  0.00  0.00    -0.289 N 
ATOM     23  C   UNL     1      -2.458  -9.099   1.637  0.00  0.00    +0.247 C 
ATOM     24  O   UNL     1      -2.711  -9.954   2.463  0.00  0.00    -0.270 OA
BRANCH  23  25
ATOM     25  C   UNL     1      -1.153  -9.104   0.944  0.00  0.00    +0.038 A 
ATOM     26  C   UNL     1      -0.385  -7.926   0.894  0.00  0.00    +0.013 A 
ATOM     27  C   UNL     1       0.816  -7.906   0.263  0.00  0.00    +0.009 A 
ATOM     28  C   UNL     1       1.309  -9.072  -0.351  0.00  0.00    -0.018 A 
ATOM     29  C   UNL     1       2.550  -9.074  -1.009  0.00  0.00    +0.008 A 
ATOM     30  C   UNL     1       3.002 -10.218  -1.595  0.00  0.00    +0.001 A 
ATOM     31  C   UNL     1       2.250 -11.391  -1.552  0.00  0.00    +0.001 A 
ATOM     32  C   UNL     1       1.043 -11.427  -0.924  0.00  0.00    +0.008 A 
ATOM     33  C   UNL     1       0.545 -10.265  -0.308  0.00  0.00    -0.017 A 
ATOM     34  C   UNL     1      -0.693 -10.269   0.354  0.00  0.00    +0.021 A 
ENDBRANCH  23  25
BRANCH  22  35
ATOM     35  C   UNL     1      -4.629  -8.093   2.097  0.00  0.00    +0.111 C 
BRANCH  35  36
ATOM     36  C   UNL     1      -5.640  -9.048   1.460  0.00  0.00    +0.047 C 
BRANCH  36  37
ATOM     37  C   UNL     1      -6.956  -8.991   2.239  0.00  0.00    +0.161 C 
BRANCH  37  38
ATOM     38  O   UNL     1      -7.901  -9.883   1.644  0.00  0.00    -0.383 OA
ATOM     39  C   UNL     1      -9.171  -9.906   2.299  0.00  0.00    +0.193 C 
ENDBRANCH  37  38
ENDBRANCH  36  37
ENDBRANCH  35  36
ENDBRANCH  22  35
ENDBRANCH  21  22
ENDBRANCH   2  21
TORSDOF 10
