REMARK  Name = ZINC12863037
REMARK  9 active torsions:
REMARK  status: ('A' for Active; 'I' for Inactive)
REMARK    1  A    between atoms: C_1  and  C_2
REMARK    2  A    between atoms: C_8  and  C_12
REMARK    3  A    between atoms: C_12  and  C_13
REMARK    4  A    between atoms: C_13  and  N_14
REMARK    5  A    between atoms: C_16  and  C_21
REMARK    6  A    between atoms: C_27  and  C_29
REMARK    7  A    between atoms: C_29  and  C_30
REMARK    8  A    between atoms: C_33  and  O_36
REMARK    9  A    between atoms: O_36  and  C_37
REMARK                            x       y       z     vdW  Elec       q    Type
REMARK                         _______ _______ _______ _____ _____    ______ ____
ROOT
ATOM      1  N   UNL     1      -2.858  -2.005  -1.420  0.00  0.00    -0.300 N 
ATOM      2  C   UNL     1      -2.787  -3.466  -1.540  0.00  0.00    +0.121 C 
ATOM      3  C   UNL     1      -4.213  -3.921  -1.917  0.00  0.00    +0.101 C 
ATOM      4  C   UNL     1      -5.073  -2.768  -1.349  0.00  0.00    +0.110 C 
ATOM      5  C   UNL     1      -4.130  -1.586  -1.309  0.00  0.00    +0.216 C 
ATOM      6  O   UNL     1      -4.472  -0.428  -1.194  0.00  0.00    -0.276 OA
ENDROOT
BRANCH   3   7
ATOM      7  C   UNL     1      -4.559  -5.229  -1.253  0.00  0.00    +0.224 C 
ATOM      8  O   UNL     1      -3.716  -5.830  -0.622  0.00  0.00    -0.275 OA
ATOM      9  N   UNL     1      -5.805  -5.730  -1.362  0.00  0.00    -0.263 N 
ATOM     10  C   UNL     1      -6.125  -6.938  -0.750  0.00  0.00    +0.188 A 
ATOM     11  N   UNL     1      -5.366  -7.742  -0.025  0.00  0.00    -0.126 NA
ATOM     12  N   UNL     1      -5.811  -8.815   0.467  0.00  0.00    -0.144 NA
ATOM     13  C   UNL     1      -7.064  -9.175   0.271  0.00  0.00    +0.108 A 
ATOM     14  S   UNL     1      -7.635  -7.801  -0.722  0.00  0.00    -0.035 S 
ATOM     15  H   UNL     1      -6.479  -5.249  -1.867  0.00  0.00    +0.157 HD
BRANCH  13  16
ATOM     16  C   UNL     1      -7.807 -10.395   0.752  0.00  0.00    +0.100 C 
BRANCH  16  17
ATOM     17  C   UNL     1      -8.438 -10.104   2.089  0.00  0.00    -0.041 A 
ATOM     18  C   UNL     1      -7.739 -10.361   3.253  0.00  0.00    +0.007 A 
ATOM     19  C   UNL     1      -8.313 -10.090   4.480  0.00  0.00    +0.046 A 
ATOM     20  C   UNL     1      -9.598  -9.569   4.543  0.00  0.00    +0.120 A 
ATOM     21  C   UNL     1     -10.300  -9.317   3.373  0.00  0.00    +0.046 A 
ATOM     22  C   UNL     1      -9.719  -9.585   2.149  0.00  0.00    +0.007 A 
BRANCH  20  23
ATOM     23  O   UNL     1     -10.168  -9.308   5.749  0.00  0.00    -0.495 OA
ATOM     24  C   UNL     1      -9.386  -9.592   6.911  0.00  0.00    +0.277 C 
ENDBRANCH  20  23
ENDBRANCH  16  17
ENDBRANCH  13  16
ENDBRANCH   3   7
BRANCH   1  25
ATOM     25  C   UNL     1      -1.692  -1.118  -1.425  0.00  0.00    +0.112 C 
BRANCH  25  26
ATOM     26  C   UNL     1      -1.197  -0.917   0.008  0.00  0.00    +0.056 C 
BRANCH  26  34
ATOM     27  C   UNL     1      -1.814   4.778   0.046  0.00  0.00    +0.044 C 
ATOM     28  C   UNL     1      -0.716   3.746   0.030  0.00  0.00    -0.050 A 
ATOM     29  C   UNL     1       0.611   4.153   0.019  0.00  0.00    +0.005 A 
ATOM     30  C   UNL     1       1.630   3.226   0.004  0.00  0.00    +0.026 A 
ATOM     31  C   UNL     1       1.329   1.868  -0.001  0.00  0.00    +0.047 A 
ATOM     32  C   UNL     1      -0.018   1.461   0.010  0.00  0.00    +0.003 A 
ATOM     33  C   UNL     1      -1.035   2.417   0.030  0.00  0.00    +0.013 A 
ATOM     34  C   UNL     1       0.002  -0.004   0.002  0.00  0.00    -0.021 A 
ATOM     35  C   UNL     1       1.291  -0.379  -0.012  0.00  0.00    +0.087 A 
ATOM     36  N   UNL     1       2.098   0.726  -0.014  0.00  0.00    -0.360 N 
ATOM     37  H   UNL     1       3.068   0.708  -0.024  0.00  0.00    +0.165 HD
ENDBRANCH  26  34
ENDBRANCH  25  26
ENDBRANCH   1  25
TORSDOF 7
