REMARK  Name = ZINC20935832
REMARK  9 active torsions:
REMARK  status: ('A' for Active; 'I' for Inactive)
REMARK    1  A    between atoms: C_1  and  C_2
REMARK    2  A    between atoms: C_5  and  C_8
REMARK    3  A    between atoms: C_8  and  N_9
REMARK    4  A    between atoms: C_11  and  C_15
REMARK    5  A    between atoms: C_12  and  C_14
REMARK    6  A    between atoms: N_17  and  C_18
REMARK    7  A    between atoms: C_18  and  C_19
REMARK    8  A    between atoms: C_19  and  C_21
REMARK    9  A    between atoms: C_19  and  N_26
REMARK                            x       y       z     vdW  Elec       q    Type
REMARK                         _______ _______ _______ _____ _____    ______ ____
ROOT
ATOM      1  C   UNL     1       1.077   3.160  -0.353  0.00  0.00    +0.249 C 
ATOM      2  O   UNL     1       1.095   3.682   0.746  0.00  0.00    -0.270 OA
ATOM      3  N   UNL     1       1.623   3.793  -1.409  0.00  0.00    -0.312 N 
ATOM      4  H   UNL     1       1.607   3.321  -2.403  0.00  0.00    +0.149 HD
ENDROOT
BRANCH   1   7
ATOM      5  N   UNL     1       0.170  -0.340  -0.647  0.00  0.00    -0.248 N 
ATOM      6  C   UNL     1       1.090   0.611  -0.411  0.00  0.00    +0.140 A 
ATOM      7  C   UNL     1       0.457   1.835  -0.528  0.00  0.00    +0.096 A 
ATOM      8  C   UNL     1      -0.895   1.576  -0.847  0.00  0.00    +0.074 A 
ATOM      9  N   UNL     1      -1.054   0.284  -0.915  0.00  0.00    -0.174 NA
ATOM     10  C   UNL     1      -1.965   2.613  -1.075  0.00  0.00    +0.068 C 
ATOM     11 CL   UNL     1       2.763   0.350  -0.031  0.00  0.00    -0.062 Cl
BRANCH   5  12
ATOM     12  C   UNL     1       0.408  -1.785  -0.628  0.00  0.00    +0.180 C 
BRANCH  12  17
ATOM     13  C   UNL     1       1.949  -3.554  -5.909  0.00  0.00    +0.044 C 
ATOM     14  C   UNL     1       1.547  -3.093  -4.532  0.00  0.00    -0.050 A 
ATOM     15  C   UNL     1       2.513  -2.688  -3.630  0.00  0.00    +0.004 A 
ATOM     16  C   UNL     1       2.144  -2.265  -2.366  0.00  0.00    +0.006 A 
ATOM     17  C   UNL     1       0.810  -2.246  -2.005  0.00  0.00    -0.026 A 
ATOM     18  C   UNL     1      -0.155  -2.657  -2.905  0.00  0.00    +0.006 A 
ATOM     19  C   UNL     1       0.213  -3.076  -4.170  0.00  0.00    +0.004 A 
ENDBRANCH  12  17
ENDBRANCH   5  12
ENDBRANCH   1   7
BRANCH   3  20
ATOM     20  C   UNL     1       2.239   5.111  -1.235  0.00  0.00    +0.097 C 
BRANCH  20  21
ATOM     21  C   UNL     1       2.664   5.660  -2.599  0.00  0.00    +0.016 C 
BRANCH  21  22
ATOM     22  N   UNL     1       3.524   4.679  -3.275  0.00  0.00    +0.387 N 
ATOM     23  C   UNL     1       4.715   4.380  -2.470  0.00  0.00    -0.078 C 
ATOM     24  C   UNL     1       5.511   3.253  -3.133  0.00  0.00    -0.019 C 
ATOM     25  C   UNL     1       5.920   3.685  -4.544  0.00  0.00    -0.004 C 
ATOM     26  C   UNL     1       4.663   4.036  -5.346  0.00  0.00    -0.019 C 
ATOM     27  C   UNL     1       3.893   5.141  -4.619  0.00  0.00    -0.078 C 
ATOM     28  H   UNL     1       2.952   3.746  -3.386  0.00  0.00    -0.081 HD
ENDBRANCH  21  22
BRANCH  21  29
ATOM     29  C   UNL     1       1.441   5.919  -3.439  0.00  0.00    +0.093 A 
ATOM     30  C   UNL     1       0.856   7.116  -3.629  0.00  0.00    +0.043 A 
ATOM     31  C   UNL     1      -0.251   6.900  -4.482  0.00  0.00    +0.041 A 
ATOM     32  C   UNL     1      -0.281   5.584  -4.755  0.00  0.00    +0.195 A 
ATOM     33  O   UNL     1       0.746   4.995  -4.121  0.00  0.00    -0.469 OA
ENDBRANCH  21  29
ENDBRANCH  20  21
ENDBRANCH   3  20
TORSDOF 7
