REMARK  Name = ZINC32973345
REMARK  13 active torsions:
REMARK  status: ('A' for Active; 'I' for Inactive)
REMARK    1  A    between atoms: C_1  and  C_2
REMARK    2  A    between atoms: C_2  and  N_3
REMARK    3  A    between atoms: C_4  and  C_34
REMARK    4  A    between atoms: C_5  and  C_9
REMARK    5  A    between atoms: C_6  and  C_8
REMARK    6  A    between atoms: C_9  and  C_10
REMARK    7  A    between atoms: C_10  and  N_11
REMARK    8  A    between atoms: N_13  and  C_14
REMARK    9  A    between atoms: C_18  and  C_20
REMARK   10  A    between atoms: C_20  and  O_22
REMARK   11  A    between atoms: O_22  and  C_23
REMARK   12  A    between atoms: N_24  and  C_25
REMARK   13  A    between atoms: C_25  and  C_27
REMARK                            x       y       z     vdW  Elec       q    Type
REMARK                         _______ _______ _______ _____ _____    ______ ____
ROOT
ATOM      1  N   UNL     1      -6.374  -0.759   2.677  0.00  0.00    -0.357 N 
ATOM      2  C   UNL     1      -7.407   0.041   3.068  0.00  0.00    +0.194 C 
ATOM      3  N   UNL     1      -8.373  -0.450   3.898  0.00  0.00    -0.328 N 
ATOM      4  N   UNL     1      -7.474   1.293   2.642  0.00  0.00    -0.143 NA
ATOM      5  H   UNL     1      -5.645  -0.388   2.154  0.00  0.00    +0.162 HD
ATOM      6  H   UNL     1      -8.284  -1.340   4.273  0.00  0.00    +0.169 HD
ENDROOT
BRANCH   3   7
ATOM      7  C   UNL     1      -9.492   0.331   4.209  0.00  0.00    +0.042 A 
ATOM      8  C   UNL     1     -10.032   1.183   3.252  0.00  0.00    +0.026 A 
ATOM      9  C   UNL     1     -11.137   1.957   3.554  0.00  0.00    +0.003 A 
ATOM     10  C   UNL     1     -11.711   1.889   4.807  0.00  0.00    +0.015 A 
ATOM     11  C   UNL     1     -11.176   1.036   5.775  0.00  0.00    +0.061 A 
ATOM     12  C   UNL     1     -10.065   0.251   5.468  0.00  0.00    +0.040 A 
BRANCH  11  13
ATOM     13  C   UNL     1     -11.789   0.963   7.118  0.00  0.00    +0.339 C 
ATOM     14  O   UNL     1     -11.322   0.220   7.958  0.00  0.00    -0.245 OA
BRANCH  13  15
ATOM     15  O   UNL     1     -12.865   1.719   7.410  0.00  0.00    -0.464 OA
ATOM     16  C   UNL     1     -13.405   1.597   8.727  0.00  0.00    +0.280 C 
ENDBRANCH  13  15
ENDBRANCH  11  13
ENDBRANCH   3   7
BRANCH   4  17
ATOM     17  C   UNL     1      -6.473   1.808   1.915  0.00  0.00    +0.270 C 
ATOM     18  O   UNL     1      -5.552   1.096   1.557  0.00  0.00    -0.268 OA
BRANCH  17  19
ATOM     19  C   UNL     1      -6.486   3.242   1.548  0.00  0.00    +0.039 A 
ATOM     20  C   UNL     1      -7.537   4.061   1.962  0.00  0.00    +0.014 A 
ATOM     21  C   UNL     1      -7.545   5.396   1.617  0.00  0.00    +0.021 A 
ATOM     22  C   UNL     1      -6.511   5.924   0.861  0.00  0.00    +0.041 A 
ATOM     23  C   UNL     1      -5.465   5.116   0.448  0.00  0.00    +0.021 A 
ATOM     24  C   UNL     1      -5.445   3.781   0.792  0.00  0.00    +0.014 A 
ATOM     25 CL   UNL     1      -6.527   7.606   0.429  0.00  0.00    -0.084 Cl
ENDBRANCH  17  19
ENDBRANCH   4  17
BRANCH   1  26
ATOM     26  C   UNL     1      -6.363  -2.176   3.046  0.00  0.00    +0.120 C 
BRANCH  26  27
ATOM     27  C   UNL     1      -5.170  -2.867   2.384  0.00  0.00    +0.060 C 
BRANCH  27  30
ATOM     28  N   UNL     1      -5.523  -6.478   2.753  0.00  0.00    -0.268 N 
ATOM     29  C   UNL     1      -5.771  -5.328   2.092  0.00  0.00    +0.040 A 
ATOM     30  C   UNL     1      -5.159  -4.325   2.764  0.00  0.00    -0.002 A 
ATOM     31  C   UNL     1      -4.513  -4.882   3.873  0.00  0.00    +0.063 A 
ATOM     32  N   UNL     1      -4.736  -6.171   3.871  0.00  0.00    -0.176 NA
ATOM     33  C   UNL     1      -3.707  -4.126   4.898  0.00  0.00    +0.068 C 
ATOM     34  C   UNL     1      -6.585  -5.185   0.832  0.00  0.00    +0.065 C 
BRANCH  28  36
ATOM     35  C   UNL     1      -7.355  -8.075   3.025  0.00  0.00    +0.029 C 
ATOM     36  C   UNL     1      -5.997  -7.811   2.372  0.00  0.00    +0.140 C 
ENDBRANCH  28  36
ENDBRANCH  27  30
ENDBRANCH  26  27
ENDBRANCH   1  26
TORSDOF 9
