REMARK  Name = ZINC03125339
REMARK  2 active torsions:
REMARK  status: ('A' for Active; 'I' for Inactive)
REMARK    1  A    between atoms: C_6  and  S_7
REMARK    2  A    between atoms: S_7  and  C_9
REMARK                            x       y       z     vdW  Elec       q    Type
REMARK                         _______ _______ _______ _____ _____    ______ ____
ROOT
ATOM      1  C   UNL     1       0.002  -0.004   0.002  0.00  0.00    +0.018 A 
ATOM      2  C   UNL     1      -0.017   1.378   0.010  0.00  0.00    +0.016 A 
ATOM      3  C   UNL     1       1.172   2.086   0.002  0.00  0.00    +0.018 A 
ATOM      4  C   UNL     1       2.379   1.410  -0.013  0.00  0.00    +0.016 A 
ATOM      5  C   UNL     1       2.396   0.028  -0.020  0.00  0.00    +0.018 A 
ATOM      6  C   UNL     1       1.208  -0.679  -0.013  0.00  0.00    +0.044 A 
ATOM      7 BR   UNL     1       1.147   3.976   0.013  0.00  0.00    -0.050 Br
ENDROOT
BRANCH   6   8
ATOM      8  S   UNL     1       1.232  -2.441  -0.022  0.00  0.00    +0.095 S 
ATOM      9  O   UNL     1       2.547  -2.770   0.404  0.00  0.00    -0.246 OA
BRANCH   8  10
ATOM     10  C   UNL     1       1.221  -2.858  -1.734  0.00  0.00    +0.120 A 
ATOM     11  C   UNL     1       2.267  -3.050  -2.584  0.00  0.00    +0.161 A 
ATOM     12  N   UNL     1       1.909  -3.356  -3.814  0.00  0.00    -0.148 NA
ATOM     13  N   UNL     1       0.666  -3.451  -4.122  0.00  0.00    -0.109 NA
ATOM     14  S   UNL     1      -0.122  -3.145  -2.789  0.00  0.00    +0.046 S 
ENDBRANCH   8  10
ENDBRANCH   6   8
TORSDOF 2
