REMARK  Name = ZINC07078638
REMARK  5 active torsions:
REMARK  status: ('A' for Active; 'I' for Inactive)
REMARK    1  A    between atoms: C_4  and  C_7
REMARK    2  A    between atoms: C_8  and  C_27
REMARK    3  A    between atoms: C_9  and  C_21
REMARK    4  A    between atoms: N_10  and  N_20
REMARK    5  A    between atoms: C_13  and  C_14
REMARK                            x       y       z     vdW  Elec       q    Type
REMARK                         _______ _______ _______ _____ _____    ______ ____
ROOT
ATOM      1  C   UNL     1       2.348   5.688  -0.045  0.00  0.00    +0.005 A 
ATOM      2  C   UNL     1       2.380   4.289   0.174  0.00  0.00    +0.016 A 
ATOM      3  C   UNL     1       1.188   3.579   0.228  0.00  0.00    +0.080 A 
ATOM      4  N   UNL     1      -0.011   4.219   0.083  0.00  0.00    -0.232 N 
ATOM      5  C   UNL     1      -0.073   5.547  -0.122  0.00  0.00    +0.277 A 
ATOM      6  O   UNL     1      -1.159   6.090  -0.248  0.00  0.00    -0.265 OA
ATOM      7  C   UNL     1       1.109   6.319  -0.191  0.00  0.00    +0.056 A 
ENDROOT
BRANCH   1  11
ATOM      8  C   UNL     1       5.952   7.929  -0.241  0.00  0.00    +0.000 A 
ATOM      9  C   UNL     1       5.201   7.731  -1.386  0.00  0.00    +0.001 A 
ATOM     10  C   UNL     1       4.030   7.004  -1.329  0.00  0.00    +0.008 A 
ATOM     11  C   UNL     1       3.603   6.468  -0.114  0.00  0.00    -0.016 A 
ATOM     12  C   UNL     1       4.362   6.677   1.039  0.00  0.00    +0.008 A 
ATOM     13  C   UNL     1       5.534   7.401   0.968  0.00  0.00    +0.001 A 
ENDBRANCH   1  11
BRANCH   7  14
ATOM     14  C   UNL     1       1.035   7.779  -0.417  0.00  0.00    -0.012 A 
ATOM     15  C   UNL     1       1.411   8.664   0.595  0.00  0.00    +0.009 A 
ATOM     16  C   UNL     1       1.347  10.025   0.376  0.00  0.00    +0.001 A 
ATOM     17  C   UNL     1       0.899  10.513  -0.839  0.00  0.00    +0.000 A 
ATOM     18  C   UNL     1       0.519   9.641  -1.844  0.00  0.00    +0.001 A 
ATOM     19  C   UNL     1       0.585   8.278  -1.640  0.00  0.00    +0.009 A 
ENDBRANCH   7  14
BRANCH   3  20
ATOM     20  C   UNL     1       1.216   2.121   0.451  0.00  0.00    +0.001 A 
ATOM     21  C   UNL     1       1.890   1.592   1.555  0.00  0.00    +0.010 A 
ATOM     22  C   UNL     1       1.911   0.228   1.757  0.00  0.00    +0.001 A 
ATOM     23  C   UNL     1       1.267  -0.616   0.870  0.00  0.00    +0.000 A 
ATOM     24  C   UNL     1       0.597  -0.100  -0.226  0.00  0.00    +0.001 A 
ATOM     25  C   UNL     1       0.568   1.262  -0.441  0.00  0.00    +0.010 A 
ENDBRANCH   3  20
BRANCH   2  26
ATOM     26  C   UNL     1       3.674   3.588   0.340  0.00  0.00    -0.015 A 
ATOM     27  C   UNL     1       4.435   3.786   1.492  0.00  0.00    +0.008 A 
ATOM     28  C   UNL     1       5.638   3.127   1.642  0.00  0.00    +0.001 A 
ATOM     29  C   UNL     1       6.094   2.280   0.648  0.00  0.00    +0.000 A 
ATOM     30  C   UNL     1       5.347   2.083  -0.499  0.00  0.00    +0.001 A 
ATOM     31  C   UNL     1       4.140   2.733  -0.659  0.00  0.00    +0.008 A 
ENDBRANCH   2  26
BRANCH   4  32
ATOM     32  N   UNL     1      -1.168   3.496   0.145  0.00  0.00    -0.295 N 
ATOM     33  H   UNL     1      -1.975   4.101   0.109  0.00  0.00    +0.163 HD
ATOM     34  H   UNL     1      -1.202   2.804  -0.588  0.00  0.00    +0.163 HD
ENDBRANCH   4  32
TORSDOF 5
