REMARK  Name = ZINC59890480
REMARK  11 active torsions:
REMARK  status: ('A' for Active; 'I' for Inactive)
REMARK    1  A    between atoms: C_1  and  C_2
REMARK    2  A    between atoms: C_3  and  C_24
REMARK    3  A    between atoms: C_4  and  C_23
REMARK    4  A    between atoms: C_7  and  C_8
REMARK    5  A    between atoms: N_10  and  C_11
REMARK    6  A    between atoms: C_11  and  C_12
REMARK    7  A    between atoms: C_12  and  N_20
REMARK    8  A    between atoms: C_16  and  C_19
REMARK    9  A    between atoms: N_20  and  C_21
REMARK   10  A    between atoms: N_20  and  C_22
REMARK   11  A    between atoms: C_24  and  C_26
REMARK                            x       y       z     vdW  Elec       q    Type
REMARK                         _______ _______ _______ _____ _____    ______ ____
ROOT
ATOM      1  C   UNL     1       1.692   0.975   4.266  0.00  0.00    +0.261 C 
ATOM      2  O   UNL     1       0.837   1.420   3.524  0.00  0.00    -0.269 OA
ATOM      3  N   UNL     1       1.450  -0.143   4.979  0.00  0.00    -0.311 N 
ATOM      4  H   UNL     1       2.132  -0.498   5.571  0.00  0.00    +0.149 HD
ENDROOT
BRANCH   1  11
ATOM      5  C   UNL     1       2.520   3.565   2.740  0.00  0.00    +0.047 C 
ATOM      6  C   UNL     1       3.358   2.786   3.721  0.00  0.00    -0.010 A 
ATOM      7  C   UNL     1       4.677   3.095   4.134  0.00  0.00    +0.041 A 
ATOM      8  C   UNL     1       5.056   2.117   5.040  0.00  0.00    +0.024 A 
ATOM      9  N   UNL     1       4.039   1.255   5.181  0.00  0.00    -0.354 N 
ATOM     10  H   UNL     1       4.041   0.474   5.758  0.00  0.00    +0.166 HD
ATOM     11  C   UNL     1       2.988   1.655   4.384  0.00  0.00    +0.106 A 
ATOM     12  C   UNL     1       6.386   2.036   5.745  0.00  0.00    +0.064 C 
BRANCH   7  13
ATOM     13  C   UNL     1       5.487   4.233   3.688  0.00  0.00    +0.162 C 
ATOM     14  O   UNL     1       6.266   4.099   2.768  0.00  0.00    -0.292 OA
ATOM     15  C   UNL     1       5.351   5.569   4.373  0.00  0.00    +0.091 C 
ENDBRANCH   7  13
ENDBRANCH   1  11
BRANCH   3  16
ATOM     16  C   UNL     1       0.157  -0.821   4.861  0.00  0.00    +0.092 C 
BRANCH  16  17
ATOM     17  C   UNL     1       0.100  -1.986   5.851  0.00  0.00    -0.050 C 
ATOM     18  C   UNL     1      -1.199  -2.768   5.645  0.00  0.00    -0.010 C 
ATOM     19  C   UNL     1      -2.394  -1.842   5.877  0.00  0.00    -0.001 C 
ATOM     20  C   UNL     1      -2.348  -1.299   7.307  0.00  0.00    +0.003 C 
ATOM     21  C   UNL     1      -1.049  -0.517   7.514  0.00  0.00    -0.015 C 
ATOM     22  C   UNL     1       0.146  -1.443   7.281  0.00  0.00    -0.007 C 
ATOM     23  C   UNL     1      -1.003   0.026   8.943  0.00  0.00    +0.007 C 
BRANCH  17  24
ATOM     24  N   UNL     1       1.248  -2.875   5.628  0.00  0.00    +0.381 N 
ATOM     25  C   UNL     1       1.141  -4.043   6.512  0.00  0.00    -0.096 C 
ATOM     26  C   UNL     1       1.257  -3.320   4.228  0.00  0.00    -0.096 C 
ATOM     27  H   UNL     1       2.102  -2.378   5.828  0.00  0.00    -0.082 HD
ENDBRANCH  17  24
ENDBRANCH  16  17
ENDBRANCH   3  16
TORSDOF 5
