REMARK  Name = ZINC22242470
REMARK  8 active torsions:
REMARK  status: ('A' for Active; 'I' for Inactive)
REMARK    1  A    between atoms: C_1  and  C_2
REMARK    2  A    between atoms: C_2  and  C_3
REMARK    3  A    between atoms: C_3  and  C_4
REMARK    4  A    between atoms: C_4  and  C_5
REMARK    5  A    between atoms: C_5  and  C_7
REMARK    6  A    between atoms: C_5  and  N_22
REMARK    7  A    between atoms: C_12  and  C_15
REMARK    8  A    between atoms: C_15  and  C_16
REMARK                            x       y       z     vdW  Elec       q    Type
REMARK                         _______ _______ _______ _____ _____    ______ ____
ROOT
ATOM      1  C   UNL     1       5.940   2.892  -0.051  0.00  0.00    +0.158 C 
ENDROOT
BRANCH   1   2
ATOM      2  N   UNL     1       4.911   1.879  -0.298  0.00  0.00    -0.316 N 
ATOM      3  C   UNL     1       3.588   2.249  -0.393  0.00  0.00    +0.150 C 
ATOM      4  N   UNL     1       3.244   3.491  -0.263  0.00  0.00    -0.113 NA
ATOM      5  S   UNL     1       1.580   3.526  -0.439  0.00  0.00    +0.101 S 
ATOM      6  O   UNL     1       1.020   3.880   0.818  0.00  0.00    -0.146 OA
ATOM      7  O   UNL     1       1.287   4.211  -1.648  0.00  0.00    -0.146 OA
ATOM      8  C   UNL     1       1.266   1.802  -0.704  0.00  0.00    +0.123 A 
ATOM      9  C   UNL     1       2.548   1.238  -0.640  0.00  0.00    +0.043 A 
ATOM     10  C   UNL     1       2.651  -0.150  -0.814  0.00  0.00    +0.013 A 
ATOM     11  C   UNL     1       1.524  -0.909  -1.037  0.00  0.00    +0.001 A 
ATOM     12  C   UNL     1       0.272  -0.323  -1.094  0.00  0.00    +0.002 A 
ATOM     13  C   UNL     1       0.151   1.049  -0.924  0.00  0.00    +0.030 A 
ATOM     14  H   UNL     1       5.196   0.822  -0.409  0.00  0.00    +0.148 HD
ENDBRANCH   1   2
BRANCH   1  15
ATOM     15  C   UNL     1       7.263   2.405  -0.582  0.00  0.00    +0.236 C 
ATOM     16  O   UNL     1       7.407   1.236  -0.872  0.00  0.00    -0.274 OA
ATOM     17  N   UNL     1       8.287   3.268  -0.735  0.00  0.00    -0.300 N 
ATOM     18  C   UNL     1       8.166   4.660  -0.282  0.00  0.00    +0.108 C 
ATOM     19  C   UNL     1       8.512   5.593  -1.441  0.00  0.00    +0.023 C 
ATOM     20  C   UNL     1       9.892   5.229  -1.992  0.00  0.00    -0.004 C 
ATOM     21  C   UNL     1       9.870   3.791  -2.517  0.00  0.00    +0.023 C 
ATOM     22  C   UNL     1       9.543   2.836  -1.364  0.00  0.00    +0.108 C 
BRANCH  20  23
ATOM     23  C   UNL     1      10.253   6.182  -3.134  0.00  0.00    +0.038 C 
BRANCH  23  24
ATOM     24  C   UNL     1      10.394   7.582  -2.593  0.00  0.00    -0.047 A 
ATOM     25  C   UNL     1       9.297   8.422  -2.554  0.00  0.00    +0.003 A 
ATOM     26  C   UNL     1       9.427   9.704  -2.054  0.00  0.00    +0.000 A 
ATOM     27  C   UNL     1      10.655  10.149  -1.602  0.00  0.00    +0.000 A 
ATOM     28  C   UNL     1      11.753   9.311  -1.646  0.00  0.00    +0.000 A 
ATOM     29  C   UNL     1      11.623   8.027  -2.142  0.00  0.00    +0.003 A 
ENDBRANCH  23  24
ENDBRANCH  20  23
ENDBRANCH   1  15
BRANCH   1  30
ATOM     30  C   UNL     1       6.056   3.145   1.453  0.00  0.00    +0.032 C 
BRANCH  30  31
ATOM     31  C   UNL     1       4.756   3.767   1.968  0.00  0.00    +0.002 C 
BRANCH  31  33
ATOM     32  C   UNL     1       3.572   4.641   3.986  0.00  0.00    +0.004 C 
ATOM     33  C   UNL     1       4.872   4.020   3.472  0.00  0.00    -0.003 C 
ENDBRANCH  31  33
ENDBRANCH  30  31
ENDBRANCH   1  30
TORSDOF 7
