REMARK  Name = ZINC21201366
REMARK  10 active torsions:
REMARK  status: ('A' for Active; 'I' for Inactive)
REMARK    1  A    between atoms: C_1  and  C_2
REMARK    2  A    between atoms: N_5  and  S_11
REMARK    3  A    between atoms: C_7  and  C_10
REMARK    4  A    between atoms: S_11  and  C_14
REMARK    5  A    between atoms: C_16  and  C_21
REMARK    6  A    between atoms: N_23  and  C_24
REMARK    7  A    between atoms: C_24  and  C_25
REMARK    8  A    between atoms: C_25  and  N_32
REMARK    9  A    between atoms: N_32  and  C_33
REMARK   10  A    between atoms: N_32  and  C_34
REMARK                            x       y       z     vdW  Elec       q    Type
REMARK                         _______ _______ _______ _____ _____    ______ ____
ROOT
ATOM      1  C   UNL     1       0.417  -1.160   8.037  0.00  0.00    +0.124 A 
ATOM      2  C   UNL     1      -0.128  -0.593   6.904  0.00  0.00    +0.043 A 
ATOM      3  C   UNL     1       0.361  -0.947   5.645  0.00  0.00    +0.039 A 
ATOM      4  C   UNL     1       1.407  -1.867   5.542  0.00  0.00    +0.014 A 
ATOM      5  C   UNL     1       1.946  -2.423   6.682  0.00  0.00    +0.023 A 
ATOM      6  C   UNL     1       1.453  -2.072   7.928  0.00  0.00    +0.067 A 
ATOM      7 CL   UNL     1       2.138  -2.777   9.359  0.00  0.00    -0.082 Cl
ENDROOT
BRANCH   3   8
ATOM      8  C   UNL     1      -0.221  -0.346   4.427  0.00  0.00    +0.244 C 
ATOM      9  O   UNL     1      -1.131   0.455   4.519  0.00  0.00    -0.270 OA
ATOM     10  N   UNL     1       0.257  -0.685   3.213  0.00  0.00    -0.313 N 
ATOM     11  H   UNL     1       1.080  -1.410   3.129  0.00  0.00    +0.149 HD
BRANCH  10  12
ATOM     12  C   UNL     1      -0.321  -0.090   2.006  0.00  0.00    +0.092 C 
BRANCH  12  13
ATOM     13  C   UNL     1       0.333  -0.709   0.769  0.00  0.00    -0.050 C 
ATOM     14  C   UNL     1      -0.617  -1.754   0.149  0.00  0.00    -0.010 C 
ATOM     15  C   UNL     1      -2.007  -1.321   0.170  0.00  0.00    -0.001 C 
ATOM     16  C   UNL     1      -2.236  -0.038  -0.656  0.00  0.00    -0.000 C 
ATOM     17  C   UNL     1      -1.806   1.144   0.170  0.00  0.00    -0.000 C 
ATOM     18  C   UNL     1      -0.350   1.563  -0.114  0.00  0.00    -0.001 C 
ATOM     19  C   UNL     1       0.601   0.360  -0.255  0.00  0.00    -0.010 C 
BRANCH  13  20
ATOM     20  N   UNL     1       1.596  -1.356   1.150  0.00  0.00    +0.381 N 
ATOM     21  C   UNL     1       2.176  -2.087   0.015  0.00  0.00    -0.096 C 
ATOM     22  C   UNL     1       2.549  -0.375   1.687  0.00  0.00    -0.096 C 
ATOM     23  H   UNL     1       1.377  -2.084   1.944  0.00  0.00    -0.082 HD
ENDBRANCH  13  20
ENDBRANCH  12  13
ENDBRANCH  10  12
ENDBRANCH   3   8
BRANCH   1  24
ATOM     24  S   UNL     1      -0.203  -0.718   9.626  0.00  0.00    +0.062 S 
ATOM     25  O   UNL     1       0.929  -0.469  10.448  0.00  0.00    -0.153 OA
ATOM     26  O   UNL     1      -1.217   0.253   9.411  0.00  0.00    -0.153 OA
BRANCH  24  30
ATOM     27  C   UNL     1       0.147  -5.364  11.720  0.00  0.00    +0.039 C 
ATOM     28  C   UNL     1      -0.404  -4.393  10.674  0.00  0.00    +0.131 C 
ATOM     29  C   UNL     1      -0.252  -2.954  11.180  0.00  0.00    +0.140 C 
ATOM     30  N   UNL     1      -0.953  -2.057  10.248  0.00  0.00    -0.172 NA
ATOM     31  C   UNL     1      -2.343  -2.382   9.889  0.00  0.00    +0.140 C 
ATOM     32  C   UNL     1      -2.392  -3.851   9.442  0.00  0.00    +0.131 C 
ATOM     33  O   UNL     1      -1.789  -4.668  10.448  0.00  0.00    -0.371 OA
ATOM     34  C   UNL     1      -1.628  -4.015   8.126  0.00  0.00    +0.039 C 
ENDBRANCH  24  30
ENDBRANCH   1  24
TORSDOF 6
