REMARK  Name = ZINC39940973
REMARK  6 active torsions:
REMARK  status: ('A' for Active; 'I' for Inactive)
REMARK    1  A    between atoms: C_1  and  C_2
REMARK    2  A    between atoms: N_10  and  N_11
REMARK    3  A    between atoms: C_12  and  C_13
REMARK    4  A    between atoms: C_14  and  C_29
REMARK    5  A    between atoms: N_16  and  C_20
REMARK    6  A    between atoms: C_20  and  C_21
REMARK                            x       y       z     vdW  Elec       q    Type
REMARK                         _______ _______ _______ _____ _____    ______ ____
ROOT
ATOM      1  C   UNL     1       5.590  -3.964  -2.313  0.00  0.00    +0.023 C 
ATOM      2  C   UNL     1       5.194  -3.679  -3.567  0.00  0.00    +0.023 C 
ATOM      3  N   UNL     1       6.012  -4.262  -4.494  0.00  0.00    -0.280 N 
ATOM      4  N   UNL     1       7.011  -4.978  -3.901  0.00  0.00    -0.203 NA
ATOM      5  C   UNL     1       6.821  -4.837  -2.443  0.00  0.00    +0.200 C 
ATOM      6 CL   UNL     1       6.535  -6.449  -1.689  0.00  0.00    -0.098 Cl
ATOM      7  C   UNL     1       4.000  -2.824  -3.906  0.00  0.00    +0.062 C 
ATOM      8  H   UNL     1       5.897  -4.178  -5.454  0.00  0.00    +0.166 HD
ENDROOT
BRANCH   1  10
ATOM      9  N   UNL     1       3.916  -2.777  -1.154  0.00  0.00    -0.188 NA
ATOM     10  C   UNL     1       4.980  -3.531  -1.111  0.00  0.00    +0.138 C 
BRANCH   9  19
ATOM     11  C   UNL     1      -0.019   1.526   0.010  0.00  0.00    +0.044 C 
ATOM     12  C   UNL     1       0.002  -0.004   0.002  0.00  0.00    +0.210 C 
ATOM     13  C   UNL     1       0.641  -0.458  -1.297  0.00  0.00    +0.265 C 
ATOM     14  O   UNL     1       0.186  -0.137  -2.377  0.00  0.00    -0.271 OA
ATOM     15  N   UNL     1       1.731  -1.229  -1.195  0.00  0.00    -0.145 NA
ATOM     16  C   UNL     1       2.205  -1.563  -0.009  0.00  0.00    +0.221 C 
ATOM     17  N   UNL     1       1.654  -1.172   1.169  0.00  0.00    -0.253 N 
ATOM     18  N   UNL     1       0.646  -0.458   1.246  0.00  0.00    -0.197 NA
ATOM     19  N   UNL     1       3.313  -2.348   0.036  0.00  0.00    -0.207 N 
ATOM     20  H   UNL     1       3.686  -2.611   0.891  0.00  0.00    +0.177 HD
ATOM     21  H   UNL     1       2.072  -1.467   1.993  0.00  0.00    +0.191 HD
ENDBRANCH   9  19
ENDBRANCH   1  10
BRANCH   4  22
ATOM     22  C   UNL     1       8.331  -4.475  -4.305  0.00  0.00    +0.145 C 
BRANCH  22  23
ATOM     23  C   UNL     1       8.523  -4.701  -5.782  0.00  0.00    +0.005 A 
ATOM     24  C   UNL     1       9.085  -5.882  -6.234  0.00  0.00    +0.047 A 
ATOM     25  C   UNL     1       9.262  -6.088  -7.591  0.00  0.00    +0.020 A 
ATOM     26  C   UNL     1       8.877  -5.116  -8.494  0.00  0.00    +0.003 A 
ATOM     27  C   UNL     1       8.316  -3.936  -8.043  0.00  0.00    +0.020 A 
ATOM     28  C   UNL     1       8.133  -3.731  -6.687  0.00  0.00    +0.047 A 
ATOM     29 CL   UNL     1       7.421  -2.252  -6.121  0.00  0.00    -0.083 Cl
ATOM     30 CL   UNL     1       9.569  -7.103  -5.100  0.00  0.00    -0.083 Cl
ENDBRANCH  22  23
ENDBRANCH   4  22
TORSDOF 4
