REMARK  Name = ZINC43147578
REMARK  8 active torsions:
REMARK  status: ('A' for Active; 'I' for Inactive)
REMARK    1  A    between atoms: C_1  and  C_2
REMARK    2  A    between atoms: C_10  and  C_11
REMARK    3  A    between atoms: N_13  and  N_14
REMARK    4  A    between atoms: N_17  and  C_18
REMARK    5  A    between atoms: C_18  and  C_19
REMARK    6  A    between atoms: C_19  and  N_24
REMARK    7  A    between atoms: N_24  and  C_25
REMARK    8  A    between atoms: N_24  and  C_26
REMARK                            x       y       z     vdW  Elec       q    Type
REMARK                         _______ _______ _______ _____ _____    ______ ____
ROOT
ATOM      1  N   UNL     1       0.541  -0.850   5.032  0.00  0.00    -0.218 N 
ATOM      2  C   UNL     1       0.387  -1.793   5.983  0.00  0.00    +0.316 C 
ATOM      3  O   UNL     1       0.301  -1.469   7.152  0.00  0.00    -0.251 OA
ATOM      4  N   UNL     1       0.327  -3.094   5.638  0.00  0.00    -0.300 N 
ATOM      5  H   UNL     1       0.584   0.086   5.280  0.00  0.00    +0.174 HD
ATOM      6  H   UNL     1       0.395  -3.353   4.706  0.00  0.00    +0.150 HD
ENDROOT
BRANCH   1   9
ATOM      7  C   UNL     1       0.793  -0.281   2.735  0.00  0.00    +0.296 C 
ATOM      8  O   UNL     1       0.847   0.894   3.046  0.00  0.00    -0.265 OA
ATOM      9  N   UNL     1       0.639  -1.223   3.686  0.00  0.00    -0.227 N 
ATOM     10  H   UNL     1       0.596  -2.160   3.437  0.00  0.00    +0.173 HD
BRANCH   7  20
ATOM     11  C   UNL     1       1.152   1.690   0.355  0.00  0.00    +0.048 C 
ATOM     12  C   UNL     1       1.053   0.188   0.282  0.00  0.00    +0.008 A 
ATOM     13  C   UNL     1       1.113  -0.640  -0.922  0.00  0.00    +0.024 A 
ATOM     14  C   UNL     1       1.265  -0.368  -2.284  0.00  0.00    +0.012 A 
ATOM     15  C   UNL     1       1.281  -1.397  -3.183  0.00  0.00    +0.001 A 
ATOM     16  C   UNL     1       1.146  -2.710  -2.751  0.00  0.00    +0.004 A 
ATOM     17  C   UNL     1       0.994  -2.999  -1.412  0.00  0.00    +0.047 A 
ATOM     18  C   UNL     1       0.975  -1.968  -0.479  0.00  0.00    +0.136 A 
ATOM     19  O   UNL     1       0.846  -1.940   0.861  0.00  0.00    -0.450 OA
ATOM     20  C   UNL     1       0.896  -0.672   1.322  0.00  0.00    +0.195 A 
ENDBRANCH   7  20
ENDBRANCH   1   9
BRANCH   4  21
ATOM     21  C   UNL     1       0.160  -4.119   6.672  0.00  0.00    +0.094 C 
BRANCH  21  22
ATOM     22  C   UNL     1       0.010  -5.491   6.011  0.00  0.00    -0.050 C 
ATOM     23  C   UNL     1      -1.278  -5.531   5.162  0.00  0.00    -0.010 C 
ATOM     24  C   UNL     1      -1.820  -6.968   5.362  0.00  0.00    -0.001 C 
ATOM     25  C   UNL     1      -1.511  -7.245   6.854  0.00  0.00    -0.001 C 
ATOM     26  C   UNL     1      -0.138  -6.581   7.086  0.00  0.00    -0.010 C 
BRANCH  22  27
ATOM     27  N   UNL     1       1.179  -5.772   5.167  0.00  0.00    +0.381 N 
ATOM     28  C   UNL     1       2.388  -5.803   6.000  0.00  0.00    -0.096 C 
ATOM     29  C   UNL     1       1.005  -7.073   4.507  0.00  0.00    -0.096 C 
ATOM     30  H   UNL     1       1.270  -5.051   4.467  0.00  0.00    -0.082 HD
ENDBRANCH  22  27
ENDBRANCH  21  22
ENDBRANCH   4  21
TORSDOF 5
