REMARK  Name = ZINC11783312
REMARK  7 active torsions:
REMARK  status: ('A' for Active; 'I' for Inactive)
REMARK    1  A    between atoms: C_1  and  C_2
REMARK    2  A    between atoms: C_13  and  C_14
REMARK    3  A    between atoms: C_13  and  N_52
REMARK    4  A    between atoms: N_16  and  C_17
REMARK    5  A    between atoms: C_17  and  C_19
REMARK    6  A    between atoms: C_17  and  C_26
REMARK    7  A    between atoms: C_19  and  C_20
REMARK                            x       y       z     vdW  Elec       q    Type
REMARK                         _______ _______ _______ _____ _____    ______ ____
ROOT
ATOM      1  C   UNL     1      -4.056   2.292   1.196  0.00  0.00    +0.197 C 
ATOM      2  O   UNL     1      -3.526   1.969   2.239  0.00  0.00    -0.278 OA
ATOM      3  N   UNL     1      -3.608   1.789   0.029  0.00  0.00    -0.305 N 
ATOM      4  H   UNL     1      -4.032   2.048  -0.805  0.00  0.00    +0.149 HD
ENDROOT
BRANCH   1   5
ATOM      5  C   UNL     1      -5.215   3.256   1.207  0.00  0.00    +0.019 C 
BRANCH   5  17
ATOM      6  C   UNL     1      -6.928   1.573   5.445  0.00  0.00    +0.050 C 
ATOM      7  C   UNL     1      -6.483   2.854   4.736  0.00  0.00    +0.154 C 
ATOM      8  C   UNL     1      -5.854   2.494   3.407  0.00  0.00    -0.033 C 
ATOM      9  C   UNL     1      -4.401   4.432   3.159  0.00  0.00    -0.038 C 
ATOM     10  C   UNL     1      -4.959   5.395   4.189  0.00  0.00    -0.022 A 
ATOM     11  C   UNL     1      -4.940   6.753   3.951  0.00  0.00    +0.005 A 
ATOM     12  C   UNL     1      -5.434   7.623   4.908  0.00  0.00    +0.000 A 
ATOM     13  C   UNL     1      -5.943   7.131   6.096  0.00  0.00    +0.004 A 
ATOM     14  C   UNL     1      -5.969   5.770   6.331  0.00  0.00    +0.046 A 
ATOM     15  C   UNL     1      -5.482   4.897   5.368  0.00  0.00    +0.122 A 
ATOM     16  O   UNL     1      -5.548   3.552   5.567  0.00  0.00    -0.491 OA
ATOM     17  N   UNL     1      -5.538   3.678   2.580  0.00  0.00    +0.391 N 
ATOM     18  H   UNL     1      -6.361   4.292   2.553  0.00  0.00    -0.081 HD
ENDBRANCH   5  17
ENDBRANCH   1   5
BRANCH   3  19
ATOM     19  C   UNL     1      -2.482   0.853   0.018  0.00  0.00    +0.163 C 
BRANCH  19  20
ATOM     20  C   UNL     1      -1.187   1.624   0.017  0.00  0.00    +0.231 C 
ATOM     21  O   UNL     1      -1.204   2.837   0.023  0.00  0.00    -0.274 OA
ATOM     22  N   UNL     1      -0.011   0.966   0.007  0.00  0.00    -0.328 N 
ATOM     23  H   UNL     1       0.002  -0.004   0.002  0.00  0.00    +0.145 HD
ATOM     24  H   UNL     1       0.822   1.462   0.002  0.00  0.00    +0.145 HD
ENDBRANCH  19  20
BRANCH  19  25
ATOM     25  C   UNL     1      -2.557  -0.021  -1.235  0.00  0.00    +0.067 C 
BRANCH  25  26
ATOM     26  C   UNL     1      -3.792  -0.883  -1.174  0.00  0.00    -0.045 A 
ATOM     27  C   UNL     1      -3.732  -2.136  -0.592  0.00  0.00    +0.004 A 
ATOM     28  C   UNL     1      -4.866  -2.924  -0.532  0.00  0.00    +0.000 A 
ATOM     29  C   UNL     1      -6.057  -2.464  -1.062  0.00  0.00    +0.000 A 
ATOM     30  C   UNL     1      -6.115  -1.214  -1.648  0.00  0.00    +0.000 A 
ATOM     31  C   UNL     1      -4.983  -0.423  -1.704  0.00  0.00    +0.004 A 
ENDBRANCH  25  26
ENDBRANCH  19  25
ENDBRANCH   3  19
TORSDOF 6
