REMARK  Name = ZINC09034310
REMARK  7 active torsions:
REMARK  status: ('A' for Active; 'I' for Inactive)
REMARK    1  A    between atoms: C_6  and  C_7
REMARK    2  A    between atoms: C_7  and  N_8
REMARK    3  A    between atoms: C_10  and  C_15
REMARK    4  A    between atoms: C_15  and  N_16
REMARK    5  A    between atoms: C_17  and  C_19
REMARK    6  A    between atoms: C_19  and  C_20
REMARK    7  A    between atoms: C_20  and  C_21
REMARK                            x       y       z     vdW  Elec       q    Type
REMARK                         _______ _______ _______ _____ _____    ______ ____
ROOT
ATOM      1  N   UNL     1       1.390   1.951  -0.001  0.00  0.00    -0.297 N 
ATOM      2  C   UNL     1      -0.019   1.541   0.011  0.00  0.00    +0.113 C 
ATOM      3  C   UNL     1       0.002  -0.004   0.002  0.00  0.00    +0.032 C 
ATOM      4  C   UNL     1       1.367  -0.297  -0.662  0.00  0.00    +0.102 C 
ATOM      5  C   UNL     1       2.190   0.940  -0.380  0.00  0.00    +0.216 C 
ATOM      6  O   UNL     1       3.397   1.010  -0.482  0.00  0.00    -0.276 OA
ENDROOT
BRANCH   1   7
ATOM      7  C   UNL     1       1.863   3.291   0.356  0.00  0.00    +0.142 C 
BRANCH   7  13
ATOM      8  C   UNL     1       1.162   3.716   2.720  0.00  0.00    +0.008 A 
ATOM      9  C   UNL     1       1.427   3.760   4.076  0.00  0.00    +0.038 A 
ATOM     10  C   UNL     1       2.690   3.441   4.545  0.00  0.00    +0.123 A 
ATOM     11  C   UNL     1       3.685   3.074   3.655  0.00  0.00    +0.038 A 
ATOM     12  C   UNL     1       3.417   3.026   2.300  0.00  0.00    +0.008 A 
ATOM     13  C   UNL     1       2.155   3.344   1.833  0.00  0.00    -0.030 A 
ATOM     14  F   UNL     1       2.951   3.488   5.870  0.00  0.00    -0.205 F 
ENDBRANCH   7  13
ENDBRANCH   1   7
BRANCH   3  15
ATOM     15  C   UNL     1      -0.044  -0.560   1.427  0.00  0.00    +0.109 C 
BRANCH  15  16
ATOM     16  N   UNL     1      -0.143  -2.021   1.378  0.00  0.00    -0.315 N 
ATOM     17  C   UNL     1      -0.199  -2.731   2.522  0.00  0.00    +0.213 C 
ATOM     18  O   UNL     1      -0.166  -2.161   3.592  0.00  0.00    -0.276 OA
ATOM     19  H   UNL     1      -0.169  -2.477   0.522  0.00  0.00    +0.149 HD
BRANCH  17  20
ATOM     20  C   UNL     1      -0.300  -4.234   2.471  0.00  0.00    +0.096 C 
BRANCH  20  21
ATOM     21  C   UNL     1      -0.347  -4.790   3.896  0.00  0.00    +0.013 C 
BRANCH  21  22
ATOM     22  C   UNL     1      -0.450  -6.316   3.845  0.00  0.00    -0.011 C 
ATOM     23  C   UNL     1      -1.784  -6.715   3.211  0.00  0.00    +0.003 C 
ATOM     24  C   UNL     1      -1.888  -8.241   3.160  0.00  0.00    +0.000 C 
ATOM     25  C   UNL     1      -1.808  -8.806   4.580  0.00  0.00    +0.000 C 
ATOM     26  C   UNL     1      -0.475  -8.406   5.213  0.00  0.00    +0.000 C 
ATOM     27  C   UNL     1      -0.371  -6.880   5.265  0.00  0.00    +0.003 C 
ENDBRANCH  21  22
ENDBRANCH  20  21
ENDBRANCH  17  20
ENDBRANCH  15  16
ENDBRANCH   3  15
TORSDOF 7
