REMARK  Name = ZINC04525605
REMARK  6 active torsions:
REMARK  status: ('A' for Active; 'I' for Inactive)
REMARK    1  A    between atoms: C_1  and  C_2
REMARK    2  A    between atoms: C_14  and  C_17
REMARK    3  A    between atoms: C_20  and  O_25
REMARK    4  A    between atoms: C_22  and  O_23
REMARK    5  A    between atoms: O_23  and  C_24
REMARK    6  A    between atoms: O_25  and  C_26
REMARK                            x       y       z     vdW  Elec       q    Type
REMARK                         _______ _______ _______ _____ _____    ______ ____
ROOT
ATOM      1  C   UNL     1      -0.019   1.526   0.010  0.00  0.00    +0.008 C 
ATOM      2  C   UNL     1       0.002  -0.004   0.002  0.00  0.00    -0.009 C 
ATOM      3  C   UNL     1       0.724  -0.500  -1.254  0.00  0.00    +0.008 C 
ATOM      4  C   UNL     1       0.537  -2.012  -1.398  0.00  0.00    +0.037 C 
ATOM      5  C   UNL     1       0.940  -2.681  -0.091  0.00  0.00    -0.023 A 
ATOM      6  C   UNL     1       1.024  -1.976   1.058  0.00  0.00    -0.004 A 
ATOM      7  S   UNL     1       1.519  -3.159   2.281  0.00  0.00    -0.078 S 
ATOM      8  C   UNL     1       1.617  -4.515   1.330  0.00  0.00    +0.080 A 
ATOM      9  C   UNL     1       1.263  -4.092   0.041  0.00  0.00    +0.068 A 
ATOM     10  C   UNL     1       1.247  -5.108  -1.037  0.00  0.00    +0.248 C 
ATOM     11  O   UNL     1       0.781  -4.862  -2.134  0.00  0.00    -0.270 OA
ATOM     12  N   UNL     1       1.770  -6.319  -0.751  0.00  0.00    -0.289 N 
ATOM     13  C   UNL     1       2.479  -6.618   0.489  0.00  0.00    +0.194 C 
ATOM     14  N   UNL     1       1.961  -5.815   1.610  0.00  0.00    -0.316 N 
ATOM     15  C   UNL     1       0.750  -0.515   1.242  0.00  0.00    +0.046 C 
ATOM     16  H   UNL     1       1.668  -7.029  -1.404  0.00  0.00    +0.151 HD
ATOM     17  H   UNL     1       1.867  -6.185   2.502  0.00  0.00    +0.149 HD
ENDROOT
BRANCH  13  18
ATOM     18  C   UNL     1       3.944  -6.316   0.303  0.00  0.00    +0.032 A 
ATOM     19  C   UNL     1       4.686  -5.820   1.359  0.00  0.00    +0.014 A 
ATOM     20  C   UNL     1       6.029  -5.542   1.192  0.00  0.00    +0.046 A 
ATOM     21  C   UNL     1       6.636  -5.761  -0.036  0.00  0.00    +0.124 A 
ATOM     22  C   UNL     1       5.895  -6.259  -1.097  0.00  0.00    +0.091 A 
ATOM     23  C   UNL     1       4.548  -6.542  -0.925  0.00  0.00    +0.130 A 
BRANCH  23  24
ATOM     24  O   UNL     1       3.820  -7.036  -1.961  0.00  0.00    -0.495 OA
ATOM     25  C   UNL     1       4.507  -7.244  -3.196  0.00  0.00    +0.277 C 
ENDBRANCH  23  24
BRANCH  21  26
ATOM     26  O   UNL     1       7.958  -5.488  -0.200  0.00  0.00    -0.495 OA
ATOM     27  C   UNL     1       8.660  -4.977   0.935  0.00  0.00    +0.277 C 
ENDBRANCH  21  26
ENDBRANCH  13  18
TORSDOF 3
