REMARK  Name = ZINC19745653
REMARK  8 active torsions:
REMARK  status: ('A' for Active; 'I' for Inactive)
REMARK    1  A    between atoms: C_1  and  O_2
REMARK    2  A    between atoms: O_2  and  C_3
REMARK    3  A    between atoms: C_3  and  C_5
REMARK    4  A    between atoms: C_6  and  N_27
REMARK    5  A    between atoms: C_10  and  C_14
REMARK    6  A    between atoms: C_14  and  N_15
REMARK    7  A    between atoms: C_18  and  N_21
REMARK    8  A    between atoms: C_28  and  C_30
REMARK                            x       y       z     vdW  Elec       q    Type
REMARK                         _______ _______ _______ _____ _____    ______ ____
ROOT
ATOM      1  C   UNL     1       5.911   2.815   1.316  0.00  0.00    +0.120 A 
ATOM      2  C   UNL     1       5.350   3.418   0.212  0.00  0.00    +0.064 A 
ATOM      3  C   UNL     1       3.909   3.612   0.188  0.00  0.00    +0.030 A 
ATOM      4  C   UNL     1       3.112   4.201  -0.825  0.00  0.00    +0.014 A 
ATOM      5  C   UNL     1       1.752   4.284  -0.640  0.00  0.00    +0.022 A 
ATOM      6  C   UNL     1       1.172   3.797   0.522  0.00  0.00    +0.026 A 
ATOM      7  N   UNL     1       1.917   3.255   1.465  0.00  0.00    -0.246 NA
ATOM      8  C   UNL     1       3.222   3.148   1.333  0.00  0.00    +0.111 A 
ATOM      9  S   UNL     1       4.507   2.488   2.364  0.00  0.00    -0.060 S 
ENDROOT
BRANCH   2  10
ATOM     10  N   UNL     1       6.143   3.831  -0.854  0.00  0.00    -0.282 N 
ATOM     11  C   UNL     1       5.742   3.601  -2.120  0.00  0.00    +0.246 C 
ATOM     12  O   UNL     1       4.649   3.122  -2.333  0.00  0.00    -0.273 OA
ATOM     13  H   UNL     1       7.096   4.345  -0.664  0.00  0.00    +0.155 HD
BRANCH  11  14
ATOM     14  C   UNL     1       6.653   3.940  -3.272  0.00  0.00    +0.204 C 
ATOM     15  C   UNL     1       7.908   3.047  -3.228  0.00  0.00    +0.043 C 
ATOM     16  C   UNL     1       7.895   2.307  -4.588  0.00  0.00    +0.031 C 
ATOM     17  C   UNL     1       6.992   3.226  -5.449  0.00  0.00    +0.161 C 
ATOM     18  O   UNL     1       5.984   3.680  -4.518  0.00  0.00    -0.367 OA
ENDBRANCH  11  14
ENDBRANCH   2  10
BRANCH   1  19
ATOM     19  C   UNL     1       7.277   2.524   1.560  0.00  0.00    +0.348 C 
ATOM     20  O   UNL     1       8.106   2.727   0.693  0.00  0.00    -0.244 OA
BRANCH  19  22
ATOM     21  C   UNL     1       9.049   1.752   2.930  0.00  0.00    +0.280 C 
ATOM     22  O   UNL     1       7.657   2.022   2.753  0.00  0.00    -0.464 OA
ENDBRANCH  19  22
ENDBRANCH   1  19
BRANCH   6  23
ATOM     23  C   UNL     1      -0.320   3.894   0.711  0.00  0.00    -0.022 C 
BRANCH  23  24
ATOM     24  N   UNL     1      -0.951   2.638   0.285  0.00  0.00    +0.383 N 
ATOM     25  C   UNL     1      -0.226   1.478   0.819  0.00  0.00    -0.077 C 
ATOM     26  C   UNL     1      -0.820   0.192   0.239  0.00  0.00    +0.000 C 
ATOM     27  C   UNL     1      -2.302   0.107   0.613  0.00  0.00    +0.053 C 
ATOM     28  C   UNL     1      -3.025   1.350   0.087  0.00  0.00    +0.000 C 
ATOM     29  C   UNL     1      -2.367   2.602   0.671  0.00  0.00    -0.077 C 
ATOM     30  H   UNL     1      -0.901   2.588  -0.813  0.00  0.00    -0.081 HD
BRANCH  27  31
ATOM     31  N   UNL     1      -2.892  -1.096   0.010  0.00  0.00    -0.295 NA
ATOM     32  C   UNL     1      -4.338  -1.161   0.270  0.00  0.00    +0.113 C 
ATOM     33  C   UNL     1      -4.920  -2.394  -0.425  0.00  0.00    +0.175 C 
ATOM     34  O   UNL     1      -4.235  -3.562   0.034  0.00  0.00    -0.377 OA
ATOM     35  C   UNL     1      -2.825  -3.533  -0.203  0.00  0.00    +0.175 C 
ATOM     36  C   UNL     1      -2.221  -2.311   0.493  0.00  0.00    +0.113 C 
ENDBRANCH  27  31
ENDBRANCH  23  24
ENDBRANCH   6  23
TORSDOF 7
