REMARK  Name = ZINC07659501
REMARK  14 active torsions:
REMARK  status: ('A' for Active; 'I' for Inactive)
REMARK    1  A    between atoms: C_1  and  C_2
REMARK    2  A    between atoms: C_9  and  N_15
REMARK    3  A    between atoms: C_10  and  C_11
REMARK    4  A    between atoms: C_11  and  O_13
REMARK    5  A    between atoms: O_13  and  C_14
REMARK    6  A    between atoms: C_16  and  C_18
REMARK    7  A    between atoms: C_18  and  N_59
REMARK    8  A    between atoms: C_19  and  N_59
REMARK    9  A    between atoms: C_20  and  C_21
REMARK   10  A    between atoms: C_20  and  N_59
REMARK   11  A    between atoms: N_23  and  C_24
REMARK   12  A    between atoms: C_24  and  C_25
REMARK   13  A    between atoms: C_24  and  C_26
REMARK   14  A    between atoms: C_24  and  C_27
REMARK                            x       y       z     vdW  Elec       q    Type
REMARK                         _______ _______ _______ _____ _____    ______ ____
ROOT
ATOM      1  N   UNL     1      -1.191   1.867   0.018  0.00  0.00    -0.281 N 
ATOM      2  C   UNL     1      -0.014   1.209   0.009  0.00  0.00    +0.201 C 
ATOM      3  O   UNL     1       0.002  -0.004   0.002  0.00  0.00    -0.278 OA
ATOM      4  H   UNL     1      -1.204   2.836   0.023  0.00  0.00    +0.155 HD
ENDROOT
BRANCH   1  12
ATOM      5  C   UNL     1      -7.677  -2.505   0.120  0.00  0.00    +0.008 C 
ATOM      6  C   UNL     1      -6.688  -1.372   0.405  0.00  0.00    -0.009 C 
ATOM      7  C   UNL     1      -7.063  -0.140  -0.423  0.00  0.00    +0.008 C 
ATOM      8  C   UNL     1      -6.240   1.065   0.036  0.00  0.00    +0.037 C 
ATOM      9  C   UNL     1      -4.765   0.683   0.028  0.00  0.00    -0.021 A 
ATOM     10  C   UNL     1      -4.381  -0.611   0.019  0.00  0.00    -0.004 A 
ATOM     11  S   UNL     1      -2.612  -0.560   0.004  0.00  0.00    -0.077 S 
ATOM     12  C   UNL     1      -2.381   1.157   0.020  0.00  0.00    +0.086 A 
ATOM     13  C   UNL     1      -3.680   1.651   0.029  0.00  0.00    +0.091 A 
ATOM     14  C   UNL     1      -5.271  -1.817   0.017  0.00  0.00    +0.046 C 
BRANCH  13  15
ATOM     15  C   UNL     1      -3.945   3.091   0.037  0.00  0.00    +0.342 C 
ATOM     16  O   UNL     1      -4.060   3.694  -1.012  0.00  0.00    -0.245 OA
BRANCH  15  17
ATOM     17  O   UNL     1      -4.062   3.747   1.210  0.00  0.00    -0.464 OA
ATOM     18  C   UNL     1      -4.326   5.174   1.143  0.00  0.00    +0.280 C 
ENDBRANCH  15  17
ENDBRANCH  13  15
ENDBRANCH   1  12
BRANCH   2  19
ATOM     19  C   UNL     1       1.280   1.980   0.001  0.00  0.00    +0.019 C 
BRANCH  19  21
ATOM     20  C   UNL     1       2.470   0.269   1.233  0.00  0.00    -0.095 C 
ATOM     21  N   UNL     1       2.405   1.022  -0.037  0.00  0.00    +0.389 N 
ATOM     22  H   UNL     1       2.256   0.362  -0.809  0.00  0.00    -0.081 HD
BRANCH  21  23
ATOM     23  C   UNL     1       3.676   1.744  -0.262  0.00  0.00    +0.019 C 
BRANCH  23  24
ATOM     24  C   UNL     1       4.768   0.737  -0.515  0.00  0.00    +0.197 C 
ATOM     25  O   UNL     1       4.517  -0.449  -0.492  0.00  0.00    -0.278 OA
ATOM     26  N   UNL     1       6.025   1.155  -0.767  0.00  0.00    -0.312 N 
ATOM     27  H   UNL     1       6.226   2.104  -0.785  0.00  0.00    +0.149 HD
BRANCH  26  28
ATOM     28  C   UNL     1       7.087   0.176  -1.013  0.00  0.00    +0.026 C 
ATOM     29  C   UNL     1       6.727  -0.670  -2.236  0.00  0.00    +0.031 C 
ATOM     30  C   UNL     1       8.405   0.909  -1.270  0.00  0.00    +0.031 C 
ATOM     31  C   UNL     1       7.237  -0.731   0.210  0.00  0.00    +0.031 C 
ENDBRANCH  26  28
ENDBRANCH  23  24
ENDBRANCH  21  23
ENDBRANCH  19  21
ENDBRANCH   2  19
TORSDOF 8
