REMARK  Name = ZINC32124906
REMARK  9 active torsions:
REMARK  status: ('A' for Active; 'I' for Inactive)
REMARK    1  A    between atoms: C_4  and  C_7
REMARK    2  A    between atoms: C_7  and  N_8
REMARK    3  A    between atoms: C_9  and  C_11
REMARK    4  A    between atoms: C_15  and  N_16
REMARK    5  A    between atoms: C_17  and  C_19
REMARK    6  A    between atoms: C_19  and  O_20
REMARK    7  A    between atoms: O_20  and  C_21
REMARK    8  A    between atoms: C_21  and  C_23
REMARK    9  A    between atoms: C_26  and  N_29
REMARK                            x       y       z     vdW  Elec       q    Type
REMARK                         _______ _______ _______ _____ _____    ______ ____
ROOT
ATOM      1  C   UNL     1       7.245   2.103  -0.050  0.00  0.00    +0.069 A 
ATOM      2  C   UNL     1       8.194   3.202  -0.059  0.00  0.00    -0.023 A 
ATOM      3  C   UNL     1       7.645   4.436  -0.047  0.00  0.00    -0.004 A 
ATOM      4  S   UNL     1       5.897   4.154  -0.031  0.00  0.00    -0.077 S 
ATOM      5  C   UNL     1       5.894   2.421  -0.041  0.00  0.00    +0.084 A 
ATOM      6  C   UNL     1       8.369   5.747  -0.046  0.00  0.00    +0.043 C 
ATOM      7  C   UNL     1       9.839   5.488   0.317  0.00  0.00    +0.005 C 
ATOM      8  C   UNL     1      10.358   4.324  -0.532  0.00  0.00    +0.005 C 
ATOM      9  C   UNL     1       9.706   3.017  -0.076  0.00  0.00    +0.037 C 
ENDROOT
BRANCH   1  11
ATOM     10  N   UNL     1       7.912   0.066   1.111  0.00  0.00    -0.307 N 
ATOM     11  C   UNL     1       7.697   0.708  -0.054  0.00  0.00    +0.247 C 
ATOM     12  O   UNL     1       7.878   0.130  -1.110  0.00  0.00    -0.270 OA
ATOM     13  H   UNL     1       7.748   0.588   2.065  0.00  0.00    +0.149 HD
BRANCH  10  14
ATOM     14  C   UNL     1       8.363  -1.328   1.107  0.00  0.00    +0.139 C 
BRANCH  14  18
ATOM     15  C   UNL     1       8.827  -2.686   5.130  0.00  0.00    +0.000 A 
ATOM     16  C   UNL     1       7.613  -2.836   4.486  0.00  0.00    +0.000 A 
ATOM     17  C   UNL     1       7.463  -2.396   3.184  0.00  0.00    +0.005 A 
ATOM     18  C   UNL     1       8.527  -1.807   2.527  0.00  0.00    -0.030 A 
ATOM     19  C   UNL     1       9.742  -1.663   3.169  0.00  0.00    +0.005 A 
ATOM     20  C   UNL     1       9.890  -2.098   4.473  0.00  0.00    +0.000 A 
ENDBRANCH  14  18
ENDBRANCH  10  14
ENDBRANCH   1  11
BRANCH   5  21
ATOM     21  N   UNL     1       4.806   1.562  -0.035  0.00  0.00    -0.277 N 
ATOM     22  C   UNL     1       3.554   2.060  -0.021  0.00  0.00    +0.255 C 
ATOM     23  O   UNL     1       3.379   3.260  -0.013  0.00  0.00    -0.272 OA
ATOM     24  H   UNL     1       4.965   0.473  -0.043  0.00  0.00    +0.155 HD
BRANCH  22  25
ATOM     25  C   UNL     1       2.371   1.126  -0.015  0.00  0.00    +0.328 C 
BRANCH  25  26
ATOM     26  O   UNL     1       1.143   1.900   0.001  0.00  0.00    -0.452 OA
BRANCH  26  27
ATOM     27  C   UNL     1      -0.014   1.210   0.009  0.00  0.00    +0.340 C 
ATOM     28  O   UNL     1       0.002  -0.004   0.002  0.00  0.00    -0.245 OA
BRANCH  27  29
ATOM     29  C   UNL     1      -1.304   1.932   0.019  0.00  0.00    +0.059 A 
ATOM     30  C   UNL     1      -1.326   3.328   0.032  0.00  0.00    +0.017 A 
ATOM     31  C   UNL     1      -2.534   3.995   0.036  0.00  0.00    +0.033 A 
ATOM     32  C   UNL     1      -3.720   3.284   0.038  0.00  0.00    +0.126 A 
ATOM     33  C   UNL     1      -3.705   1.900   0.030  0.00  0.00    +0.033 A 
ATOM     34  C   UNL     1      -2.505   1.220   0.021  0.00  0.00    +0.017 A 
BRANCH  32  35
ATOM     35  N   UNL     1      -5.012   4.006   0.049  0.00  0.00    +0.056 N 
ATOM     36  O   UNL     1      -6.059   3.383   0.051  0.00  0.00    -0.126 OA
ATOM     37  O   UNL     1      -5.029   5.224   0.056  0.00  0.00    -0.126 OA
ENDBRANCH  32  35
ENDBRANCH  27  29
ENDBRANCH  26  27
ENDBRANCH  25  26
ENDBRANCH  22  25
ENDBRANCH   5  21
TORSDOF 9
