REMARK  Name = ZINC65623770
REMARK  8 active torsions:
REMARK  status: ('A' for Active; 'I' for Inactive)
REMARK    1  A    between atoms: C_1  and  C_2
REMARK    2  A    between atoms: C_5  and  C_12
REMARK    3  A    between atoms: C_7  and  S_8
REMARK    4  A    between atoms: S_8  and  N_11
REMARK    5  A    between atoms: N_14  and  N_15
REMARK    6  A    between atoms: N_18  and  C_19
REMARK    7  A    between atoms: C_19  and  C_20
REMARK    8  A    between atoms: C_20  and  C_21
REMARK                            x       y       z     vdW  Elec       q    Type
REMARK                         _______ _______ _______ _____ _____    ______ ____
ROOT
ATOM      1  C   UNL     1       0.059  -4.251  -0.021  0.00  0.00    +0.260 C 
ATOM      2  O   UNL     1       0.072  -4.865   1.028  0.00  0.00    -0.269 OA
ATOM      3  N   UNL     1       0.062  -4.919  -1.192  0.00  0.00    -0.229 N 
ATOM      4  H   UNL     1       0.052  -4.429  -2.030  0.00  0.00    +0.173 HD
ENDROOT
BRANCH   1   9
ATOM      5  C   UNL     1      -0.018   1.503   0.010  0.00  0.00    +0.046 C 
ATOM      6  C   UNL     1       0.002  -0.004   0.002  0.00  0.00    -0.024 A 
ATOM      7  C   UNL     1       0.006  -0.686  -1.202  0.00  0.00    +0.006 A 
ATOM      8  C   UNL     1       0.024  -2.066  -1.216  0.00  0.00    +0.013 A 
ATOM      9  C   UNL     1       0.040  -2.773  -0.013  0.00  0.00    +0.040 A 
ATOM     10  C   UNL     1       0.036  -2.079   1.197  0.00  0.00    +0.042 A 
ATOM     11  C   UNL     1       0.023  -0.699   1.198  0.00  0.00    +0.109 A 
BRANCH  11  12
ATOM     12  S   UNL     1       0.025   0.179   2.725  0.00  0.00    +0.056 S 
ATOM     13  O   UNL     1      -1.014   1.145   2.640  0.00  0.00    -0.153 OA
ATOM     14  O   UNL     1       0.075  -0.798   3.756  0.00  0.00    -0.153 OA
BRANCH  12  15
ATOM     15  N   UNL     1       1.449   1.023   2.803  0.00  0.00    -0.204 NA
ATOM     16  H   UNL     1       1.489   1.862   3.287  0.00  0.00    +0.144 HD
ATOM     17  H   UNL     1       2.242   0.677   2.364  0.00  0.00    +0.144 HD
ENDBRANCH  12  15
ENDBRANCH  11  12
ENDBRANCH   1   9
BRANCH   3  18
ATOM     18  N   UNL     1       0.081  -6.320  -1.200  0.00  0.00    -0.218 N 
ATOM     19  C   UNL     1       0.084  -6.987  -2.371  0.00  0.00    +0.316 C 
ATOM     20  O   UNL     1       0.100  -8.203  -2.378  0.00  0.00    -0.251 OA
ATOM     21  N   UNL     1       0.069  -6.307  -3.534  0.00  0.00    -0.298 N 
ATOM     22  H   UNL     1       0.091  -6.809  -0.363  0.00  0.00    +0.174 HD
ATOM     23  H   UNL     1       0.056  -5.337  -3.529  0.00  0.00    +0.150 HD
BRANCH  21  24
ATOM     24  C   UNL     1       0.072  -7.032  -4.807  0.00  0.00    +0.111 C 
BRANCH  24  25
ATOM     25  C   UNL     1       0.054  -6.032  -5.965  0.00  0.00    +0.061 C 
BRANCH  25  26
ATOM     26  C   UNL     1       0.057  -6.778  -7.274  0.00  0.00    -0.009 A 
ATOM     27  C   UNL     1      -0.994  -7.210  -8.013  0.00  0.00    +0.011 A 
ATOM     28  C   UNL     1      -0.750  -7.881  -9.196  0.00  0.00    +0.008 A 
ATOM     29  C   UNL     1       0.532  -8.088  -9.583  0.00  0.00    +0.045 A 
ATOM     30  S   UNL     1       1.446  -7.316  -8.258  0.00  0.00    -0.102 S 
ENDBRANCH  25  26
ENDBRANCH  24  25
ENDBRANCH  21  24
ENDBRANCH   3  18
TORSDOF 7
