REMARK  Name = ZINC61594645
REMARK  7 active torsions:
REMARK  status: ('A' for Active; 'I' for Inactive)
REMARK    1  A    between atoms: C_1  and  C_2
REMARK    2  A    between atoms: C_2  and  C_4
REMARK    3  A    between atoms: C_2  and  N_24
REMARK    4  A    between atoms: C_4  and  C_6
REMARK    5  A    between atoms: C_4  and  S_13
REMARK    6  A    between atoms: S_13  and  C_14
REMARK    7  A    between atoms: N_20  and  C_21
REMARK                            x       y       z     vdW  Elec       q    Type
REMARK                         _______ _______ _______ _____ _____    ______ ____
ROOT
ATOM      1  C   UNL     1       0.721  -0.571   1.160  0.00  0.00    +0.069 C 
ENDROOT
BRANCH   1   2
ATOM      2  C   UNL     1       1.023  -2.020   0.877  0.00  0.00    -0.036 A 
ATOM      3  C   UNL     1       1.728  -2.369  -0.260  0.00  0.00    +0.006 A 
ATOM      4  C   UNL     1       2.006  -3.697  -0.521  0.00  0.00    +0.015 A 
ATOM      5  C   UNL     1       1.579  -4.678   0.356  0.00  0.00    +0.018 A 
ATOM      6  C   UNL     1       0.873  -4.328   1.494  0.00  0.00    +0.015 A 
ATOM      7  C   UNL     1       0.600  -2.999   1.756  0.00  0.00    +0.006 A 
ATOM      8 BR   UNL     1       1.958  -6.496   0.001  0.00  0.00    -0.050 Br
ENDBRANCH   1   2
BRANCH   1  10
ATOM      9  C   UNL     1       0.024  -0.172  -1.206  0.00  0.00    -0.013 C 
ATOM     10  C   UNL     1      -0.421  -0.102   0.256  0.00  0.00    -0.060 C 
BRANCH  10  11
ATOM     11  N   UNL     1      -1.590  -0.969   0.454  0.00  0.00    +0.381 N 
ATOM     12  H   UNL     1      -1.924  -0.873   1.401  0.00  0.00    -0.090 HD
ATOM     13  H   UNL     1      -2.321  -0.701  -0.188  0.00  0.00    -0.090 HD
ATOM     14  H   UNL     1      -1.329  -1.929   0.284  0.00  0.00    -0.090 HD
ENDBRANCH  10  11
ENDBRANCH   1  10
BRANCH   1  15
ATOM     15  S   UNL     1       2.199   0.430   0.837  0.00  0.00    -0.080 S 
BRANCH  15  16
ATOM     16  C   UNL     1       1.768   2.031   1.433  0.00  0.00    +0.193 A 
ATOM     17  N   UNL     1       0.670   2.337   2.062  0.00  0.00    -0.145 NA
ATOM     18  N   UNL     1       0.711   3.705   2.365  0.00  0.00    -0.226 N 
ATOM     19  H   UNL     1       0.027   4.210   2.832  0.00  0.00    +0.194 HD
ATOM     20  C   UNL     1       1.877   4.189   1.890  0.00  0.00    +0.345 A 
ATOM     21  O   UNL     1       2.262   5.342   1.968  0.00  0.00    -0.245 OA
ATOM     22  N   UNL     1       2.540   3.165   1.318  0.00  0.00    -0.268 N 
BRANCH  22  23
ATOM     23  C   UNL     1       3.856   3.245   0.679  0.00  0.00    +0.094 C 
ATOM     24  C   UNL     1       4.637   4.552   0.833  0.00  0.00    +0.027 C 
ATOM     25  C   UNL     1       4.005   4.192  -0.514  0.00  0.00    +0.027 C 
ENDBRANCH  22  23
ENDBRANCH  15  16
ENDBRANCH   1  15
TORSDOF 6
