REMARK  Name = ZINC36027395
REMARK  11 active torsions:
REMARK  status: ('A' for Active; 'I' for Inactive)
REMARK    1  A    between atoms: C_1  and  C_2
REMARK    2  A    between atoms: C_2  and  C_3
REMARK    3  A    between atoms: C_3  and  C_5
REMARK    4  A    between atoms: C_3  and  C_6
REMARK    5  A    between atoms: C_6  and  N_7
REMARK    6  A    between atoms: C_10  and  C_30
REMARK    7  A    between atoms: N_16  and  S_19
REMARK    8  A    between atoms: S_19  and  C_22
REMARK    9  A    between atoms: C_25  and  O_28
REMARK   10  A    between atoms: O_28  and  C_29
REMARK   11  A    between atoms: C_30  and  C_31
REMARK                            x       y       z     vdW  Elec       q    Type
REMARK                         _______ _______ _______ _____ _____    ______ ____
ROOT
ATOM      1  N   UNL     1       1.348  -2.481  -2.463  0.00  0.00    -0.313 N 
ATOM      2  C   UNL     1       0.861  -2.735  -3.696  0.00  0.00    +0.201 C 
ATOM      3  O   UNL     1      -0.294  -2.607  -4.042  0.00  0.00    -0.277 OA
ATOM      4  C   UNL     1       2.000  -3.208  -4.574  0.00  0.00    +0.023 C 
ATOM      5  N   UNL     1       3.229  -2.807  -3.847  0.00  0.00    +0.401 N 
ATOM      6  C   UNL     1       2.787  -2.758  -2.439  0.00  0.00    +0.006 C 
ATOM      7  C   UNL     1       3.527  -1.643  -1.703  0.00  0.00    +0.023 C 
ATOM      8  C   UNL     1       3.035  -1.578  -0.253  0.00  0.00    +0.109 C 
ATOM      9  N   UNL     1       3.174  -2.909   0.353  0.00  0.00    -0.177 NA
ATOM     10  C   UNL     1       2.559  -4.060  -0.321  0.00  0.00    +0.109 C 
ATOM     11  C   UNL     1       3.055  -4.105  -1.770  0.00  0.00    +0.023 C 
ATOM     12  H   UNL     1       3.956  -3.495  -3.970  0.00  0.00    -0.082 HD
ATOM     13  H   UNL     1       3.542  -1.897  -4.150  0.00  0.00    -0.082 HD
ENDROOT
BRANCH   9  14
ATOM     14  S   UNL     1       4.007  -3.108   1.770  0.00  0.00    +0.061 S 
ATOM     15  O   UNL     1       4.441  -4.461   1.799  0.00  0.00    -0.153 OA
ATOM     16  O   UNL     1       4.911  -2.016   1.866  0.00  0.00    -0.153 OA
BRANCH  14  17
ATOM     17  C   UNL     1       2.850  -2.922   3.086  0.00  0.00    +0.106 A 
ATOM     18  C   UNL     1       2.619  -1.672   3.630  0.00  0.00    +0.032 A 
ATOM     19  C   UNL     1       1.713  -1.524   4.662  0.00  0.00    +0.047 A 
ATOM     20  C   UNL     1       1.034  -2.630   5.152  0.00  0.00    +0.120 A 
ATOM     21  C   UNL     1       1.268  -3.883   4.605  0.00  0.00    +0.047 A 
ATOM     22  C   UNL     1       2.171  -4.025   3.569  0.00  0.00    +0.032 A 
BRANCH  20  23
ATOM     23  O   UNL     1       0.143  -2.486   6.168  0.00  0.00    -0.495 OA
ATOM     24  C   UNL     1      -0.519  -3.669   6.622  0.00  0.00    +0.277 C 
ENDBRANCH  20  23
ENDBRANCH  14  17
ENDBRANCH   9  14
BRANCH   1  25
ATOM     25  C   UNL     1       0.560  -1.998  -1.327  0.00  0.00    +0.109 C 
BRANCH  25  26
ATOM     26  C   UNL     1       0.523  -0.468  -1.345  0.00  0.00    +0.003 C 
ATOM     27  C   UNL     1      -0.240   0.008  -2.583  0.00  0.00    +0.009 C 
BRANCH  26  29
ATOM     28  C   UNL     1      -0.107   1.568  -0.042  0.00  0.00    +0.004 C 
ATOM     29  C   UNL     1      -0.180   0.040  -0.085  0.00  0.00    +0.001 C 
ENDBRANCH  26  29
ENDBRANCH  25  26
ENDBRANCH   1  25
BRANCH   4  30
ATOM     30  C   UNL     1       1.948  -4.728  -4.741  0.00  0.00    +0.028 C 
BRANCH  30  31
ATOM     31  C   UNL     1       3.010  -5.162  -5.718  0.00  0.00    -0.048 A 
ATOM     32  C   UNL     1       2.720  -5.230  -7.068  0.00  0.00    +0.003 A 
ATOM     33  C   UNL     1       3.693  -5.628  -7.965  0.00  0.00    +0.000 A 
ATOM     34  C   UNL     1       4.957  -5.958  -7.512  0.00  0.00    +0.000 A 
ATOM     35  C   UNL     1       5.248  -5.888  -6.163  0.00  0.00    +0.000 A 
ATOM     36  C   UNL     1       4.275  -5.486  -5.266  0.00  0.00    +0.003 A 
ENDBRANCH  30  31
ENDBRANCH   4  30
TORSDOF 8
