REMARK  Name = ZINC39533248
REMARK  10 active torsions:
REMARK  status: ('A' for Active; 'I' for Inactive)
REMARK    1  A    between atoms: C_1  and  C_2
REMARK    2  A    between atoms: C_2  and  C_3
REMARK    3  A    between atoms: C_3  and  C_4
REMARK    4  A    between atoms: C_7  and  C_10
REMARK    5  A    between atoms: C_10  and  C_12
REMARK    6  A    between atoms: C_10  and  N_15
REMARK    7  A    between atoms: C_12  and  N_13
REMARK    8  A    between atoms: C_19  and  S_22
REMARK    9  A    between atoms: S_22  and  O_25
REMARK   10  A    between atoms: O_25  and  C_26
REMARK                            x       y       z     vdW  Elec       q    Type
REMARK                         _______ _______ _______ _____ _____    ______ ____
ROOT
ATOM      1  N   UNL     1       0.201  -6.752  -2.545  0.00  0.00    -0.296 NA
ATOM      2  C   UNL     1      -1.160  -6.225  -2.715  0.00  0.00    +0.066 C 
ATOM      3  C   UNL     1      -1.721  -6.695  -4.059  0.00  0.00    -0.064 C 
ATOM      4  N   UNL     1      -1.738  -8.163  -4.097  0.00  0.00    +0.398 N 
ATOM      5  C   UNL     1      -0.368  -8.673  -3.950  0.00  0.00    +0.130 C 
ATOM      6  C   UNL     1       0.204  -8.220  -2.605  0.00  0.00    +0.095 C 
ATOM      7  H   UNL     1      -2.309  -8.512  -3.342  0.00  0.00    -0.083 HD
ATOM      8  H   UNL     1      -2.119  -8.472  -4.978  0.00  0.00    -0.083 HD
ENDROOT
BRANCH   5   9
ATOM      9  S   UNL     1      -0.388 -10.486  -4.019  0.00  0.00    +0.109 S 
ATOM     10  O   UNL     1       0.941 -10.989  -4.058  0.00  0.00    -0.138 OA
ATOM     11  O   UNL     1      -1.330 -11.001  -3.088  0.00  0.00    -0.138 OA
BRANCH   9  12
ATOM     12  O   UNL     1      -0.970 -10.819  -5.385  0.00  0.00    -0.347 OA
BRANCH  12  13
ATOM     13  C   UNL     1      -0.107 -10.621  -6.417  0.00  0.00    +0.156 A 
ATOM     14  C   UNL     1      -0.053  -9.387  -7.050  0.00  0.00    +0.048 A 
ATOM     15  C   UNL     1       0.825  -9.188  -8.098  0.00  0.00    +0.004 A 
ATOM     16  C   UNL     1       1.649 -10.217  -8.516  0.00  0.00    +0.000 A 
ATOM     17  C   UNL     1       1.596 -11.447  -7.887  0.00  0.00    +0.004 A 
ATOM     18  C   UNL     1       0.724 -11.650  -6.835  0.00  0.00    +0.048 A 
ENDBRANCH  12  13
ENDBRANCH   9  12
ENDBRANCH   5   9
BRANCH   1  19
ATOM     19  C   UNL     1       0.797  -6.276  -1.289  0.00  0.00    +0.102 C 
BRANCH  19  23
ATOM     20  C   UNL     1       1.994  -2.200  -1.737  0.00  0.00    -0.047 A 
ATOM     21  C   UNL     1       2.325  -2.895  -0.590  0.00  0.00    +0.004 A 
ATOM     22  C   UNL     1       1.938  -4.214  -0.444  0.00  0.00    +0.005 A 
ATOM     23  C   UNL     1       1.218  -4.837  -1.447  0.00  0.00    -0.029 A 
ATOM     24  C   UNL     1       0.886  -4.141  -2.594  0.00  0.00    +0.005 A 
ATOM     25  C   UNL     1       1.270  -2.821  -2.737  0.00  0.00    +0.004 A 
BRANCH  20  26
ATOM     26  C   UNL     1       2.416  -0.762  -1.895  0.00  0.00    +0.035 C 
BRANCH  26  28
ATOM     27  C   UNL     1       1.760   1.614  -1.487  0.00  0.00    +0.004 C 
ATOM     28  C   UNL     1       1.331   0.154  -1.326  0.00  0.00    +0.001 C 
ENDBRANCH  26  28
ENDBRANCH  20  26
ENDBRANCH  19  23
BRANCH  19  29
ATOM     29  C   UNL     1      -0.233  -6.385  -0.163  0.00  0.00    +0.122 C 
BRANCH  29  30
ATOM     30  N   UNL     1      -0.668  -7.781  -0.031  0.00  0.00    -0.231 NA
ATOM     31 CL   UNL     1      -1.822  -7.948   1.220  0.00  0.00    -0.024 Cl
ATOM     32  H   UNL     1       0.119  -8.393   0.120  0.00  0.00    +0.141 HD
ENDBRANCH  29  30
ENDBRANCH  19  29
ENDBRANCH   1  19
TORSDOF 9
