REMARK  Name = ZINC33331897
REMARK  11 active torsions:
REMARK  status: ('A' for Active; 'I' for Inactive)
REMARK    1  A    between atoms: C_1  and  C_2
REMARK    2  A    between atoms: C_11  and  C_27
REMARK    3  A    between atoms: C_11  and  C_28
REMARK    4  A    between atoms: N_12  and  C_15
REMARK    5  A    between atoms: C_15  and  C_16
REMARK    6  A    between atoms: C_16  and  C_17
REMARK    7  A    between atoms: C_17  and  N_18
REMARK    8  A    between atoms: N_18  and  C_19
REMARK    9  A    between atoms: N_18  and  C_20
REMARK   10  A    between atoms: C_20  and  C_21
REMARK   11  A    between atoms: N_30  and  C_31
REMARK                            x       y       z     vdW  Elec       q    Type
REMARK                         _______ _______ _______ _____ _____    ______ ____
ROOT
ATOM      1  C   UNL     1      -5.862   1.643 -10.120  0.00  0.00    +0.086 C 
ATOM      2  C   UNL     1      -5.425   1.042  -8.809  0.00  0.00    +0.105 A 
ATOM      3  C   UNL     1      -5.300   1.712  -7.651  0.00  0.00    +0.071 A 
ATOM      4  C   UNL     1      -4.869   0.784  -6.673  0.00  0.00    +0.088 A 
ATOM      5  C   UNL     1      -4.757  -0.443  -7.326  0.00  0.00    +0.154 A 
ATOM      6  O   UNL     1      -5.098  -0.247  -8.618  0.00  0.00    -0.458 OA
ATOM      7  C   UNL     1      -4.333  -1.390  -6.382  0.00  0.00    +0.079 A 
ATOM      8  C   UNL     1      -4.209  -0.748  -5.186  0.00  0.00    +0.109 A 
ATOM      9  N   UNL     1      -4.519   0.598  -5.370  0.00  0.00    -0.331 N 
ATOM     10  C   UNL     1      -4.436   1.562  -4.269  0.00  0.00    +0.157 C 
ATOM     11  C   UNL     1      -4.725   0.839  -2.949  0.00  0.00    +0.128 C 
ATOM     12  N   UNL     1      -3.975  -0.405  -2.822  0.00  0.00    -0.281 N 
ATOM     13  C   UNL     1      -3.808  -1.251  -3.866  0.00  0.00    +0.264 C 
ATOM     14  O   UNL     1      -3.349  -2.368  -3.718  0.00  0.00    -0.268 OA
ATOM     15  C   UNL     1      -4.352   1.762  -1.787  0.00  0.00    +0.043 C 
ENDROOT
BRANCH  11  16
ATOM     16  C   UNL     1      -6.198   0.531  -2.870  0.00  0.00    +0.238 C 
ATOM     17  O   UNL     1      -6.953   1.314  -2.334  0.00  0.00    -0.273 OA
ATOM     18  N   UNL     1      -6.675  -0.616  -3.393  0.00  0.00    -0.311 N 
ATOM     19  H   UNL     1      -5.990  -1.326  -3.879  0.00  0.00    +0.149 HD
BRANCH  18  20
ATOM     20  C   UNL     1      -8.107  -0.916  -3.316  0.00  0.00    +0.073 C 
ATOM     21  C   UNL     1      -8.418  -1.573  -1.970  0.00  0.00    +0.022 C 
ATOM     22  C   UNL     1      -9.914  -1.886  -1.889  0.00  0.00    +0.002 C 
ATOM     23  C   UNL     1     -10.297  -2.840  -3.023  0.00  0.00    +0.000 C 
ATOM     24  C   UNL     1      -9.986  -2.183  -4.369  0.00  0.00    +0.002 C 
ATOM     25  C   UNL     1      -8.490  -1.869  -4.450  0.00  0.00    +0.022 C 
ENDBRANCH  18  20
ENDBRANCH  11  16
BRANCH  12  26
ATOM     26  C   UNL     1      -3.389  -0.752  -1.525  0.00  0.00    +0.107 C 
BRANCH  26  27
ATOM     27  C   UNL     1      -1.971  -0.185  -1.437  0.00  0.00    +0.000 C 
BRANCH  27  28
ATOM     28  C   UNL     1      -1.360  -0.549  -0.083  0.00  0.00    -0.077 C 
BRANCH  28  29
ATOM     29  N   UNL     1       0.002  -0.004   0.002  0.00  0.00    +0.381 N 
ATOM     30  C   UNL     1      -0.018   1.465   0.010  0.00  0.00    -0.096 C 
ATOM     31  H   UNL     1       0.552  -0.330  -0.893  0.00  0.00    -0.082 HD
BRANCH  29  32
ATOM     32  C   UNL     1       0.706  -0.527   1.180  0.00  0.00    -0.043 C 
BRANCH  32  33
ATOM     33  C   UNL     1       2.163  -0.149   1.104  0.00  0.00    -0.064 A 
ATOM     34  C   UNL     1       3.065  -0.993   0.484  0.00  0.00    +0.002 A 
ATOM     35  C   UNL     1       4.400  -0.643   0.411  0.00  0.00    +0.000 A 
ATOM     36  C   UNL     1       4.835   0.546   0.966  0.00  0.00    +0.000 A 
ATOM     37  C   UNL     1       3.934   1.387   1.590  0.00  0.00    +0.000 A 
ATOM     38  C   UNL     1       2.598   1.040   1.660  0.00  0.00    +0.002 A 
ENDBRANCH  32  33
ENDBRANCH  29  32
ENDBRANCH  28  29
ENDBRANCH  27  28
ENDBRANCH  26  27
ENDBRANCH  12  26
TORSDOF 8
