REMARK  Name = ZINC11730283
REMARK  0 active torsions:
REMARK  status: ('A' for Active; 'I' for Inactive)
REMARK                            x       y       z     vdW  Elec       q    Type
REMARK                         _______ _______ _______ _____ _____    ______ ____
ROOT
ATOM      1  C   UNL     1      -2.160   5.897  -0.137  0.00  0.00    +0.017 A 
ATOM      2  C   UNL     1      -2.580   7.215  -0.129  0.00  0.00    +0.050 A 
ATOM      3  C   UNL     1      -3.920   7.517   0.081  0.00  0.00    +0.166 A 
ATOM      4  C   UNL     1      -4.843   6.503   0.306  0.00  0.00    +0.205 A 
ATOM      5  C   UNL     1      -4.430   5.175   0.315  0.00  0.00    +0.176 A 
ATOM      6  C   UNL     1      -3.084   4.886   0.061  0.00  0.00    +0.047 A 
ATOM      7  C   UNL     1      -2.687   3.442   0.037  0.00  0.00    +0.091 A 
ATOM      8  C   UNL     1      -3.726   2.536   0.034  0.00  0.00    +0.062 A 
ATOM      9  S   UNL     1      -2.885   0.984   0.021  0.00  0.00    -0.053 S 
ATOM     10  C   UNL     1      -1.220   1.642   0.017  0.00  0.00    +0.156 A 
ATOM     11  N   UNL     1      -1.449   2.944   0.031  0.00  0.00    -0.225 NA
ATOM     12  N   UNL     1      -0.011   0.966   0.007  0.00  0.00    -0.337 N 
ATOM     13  C   UNL     1      -5.170   2.894   0.033  0.00  0.00    +0.144 C 
ATOM     14  O   UNL     1      -5.324   4.197   0.612  0.00  0.00    -0.476 OA
ATOM     15  C   UNL     1      -5.966   1.883   0.863  0.00  0.00    +0.053 C 
ATOM     16  C   UNL     1      -7.439   2.295   0.890  0.00  0.00    +0.004 C 
ATOM     17  C   UNL     1      -7.987   2.320  -0.538  0.00  0.00    +0.000 C 
ATOM     18  C   UNL     1      -7.191   3.325  -1.372  0.00  0.00    +0.004 C 
ATOM     19  C   UNL     1      -5.717   2.916  -1.396  0.00  0.00    +0.053 C 
ATOM     20  O   UNL     1      -6.158   6.789   0.516  0.00  0.00    -0.482 OA
ATOM     21  C   UNL     1      -6.473   8.139   0.875  0.00  0.00    +0.270 C 
ATOM     22  C   UNL     1      -5.713   9.075  -0.075  0.00  0.00    +0.270 C 
ATOM     23  O   UNL     1      -4.312   8.822   0.072  0.00  0.00    -0.485 OA
ATOM     24  H   UNL     1       0.002  -0.004   0.002  0.00  0.00    +0.144 HD
ATOM     25  H   UNL     1       0.822   1.462   0.002  0.00  0.00    +0.144 HD
ENDROOT
TORSDOF 0
