REMARK  Name = ZINC22066159
REMARK  7 active torsions:
REMARK  status: ('A' for Active; 'I' for Inactive)
REMARK    1  A    between atoms: C_1  and  C_2
REMARK    2  A    between atoms: C_13  and  C_15
REMARK    3  A    between atoms: C_15  and  O_16
REMARK    4  A    between atoms: O_16  and  C_17
REMARK    5  A    between atoms: C_17  and  C_19
REMARK    6  A    between atoms: C_23  and  N_24
REMARK    7  A    between atoms: C_25  and  C_27
REMARK                            x       y       z     vdW  Elec       q    Type
REMARK                         _______ _______ _______ _____ _____    ______ ____
ROOT
ATOM      1  C   UNL     1      -6.650   4.544  -0.977  0.00  0.00    +0.342 C 
ATOM      2  O   UNL     1      -6.186   4.856  -2.057  0.00  0.00    -0.245 OA
ENDROOT
BRANCH   1   3
ATOM      3  C   UNL     1      -7.932   5.101  -0.542  0.00  0.00    +0.091 A 
ATOM      4  C   UNL     1      -7.999   6.347   0.222  0.00  0.00    -0.021 A 
ATOM      5  C   UNL     1      -9.239   6.749   0.551  0.00  0.00    -0.004 A 
ATOM      6  S   UNL     1     -10.312   5.502  -0.117  0.00  0.00    -0.077 S 
ATOM      7  C   UNL     1      -9.128   4.463  -0.834  0.00  0.00    +0.087 A 
ATOM      8  C   UNL     1      -9.227   8.041   1.324  0.00  0.00    +0.043 C 
ATOM      9  C   UNL     1      -7.825   8.636   1.065  0.00  0.00    +0.010 C 
ATOM     10  C   UNL     1      -6.998   7.370   0.760  0.00  0.00    +0.037 C 
BRANCH   7  11
ATOM     11  N   UNL     1      -9.326   3.283  -1.529  0.00  0.00    -0.273 N 
ATOM     12  C   UNL     1     -10.575   2.812  -1.716  0.00  0.00    +0.284 C 
ATOM     13  O   UNL     1     -11.529   3.426  -1.273  0.00  0.00    -0.266 OA
ATOM     14  H   UNL     1      -8.464   2.728  -1.928  0.00  0.00    +0.156 HD
BRANCH  12  15
ATOM     15  C   UNL     1     -10.786   1.562  -2.451  0.00  0.00    +0.189 A 
ATOM     16  C   UNL     1     -11.992   0.976  -2.711  0.00  0.00    +0.054 A 
ATOM     17  C   UNL     1     -11.724  -0.195  -3.436  0.00  0.00    +0.042 A 
ATOM     18  C   UNL     1     -10.383  -0.273  -3.586  0.00  0.00    +0.196 A 
ATOM     19  O   UNL     1      -9.822   0.791  -2.996  0.00  0.00    -0.458 OA
ENDBRANCH  12  15
ENDBRANCH   7  11
ENDBRANCH   1   3
BRANCH   1  20
ATOM     20  O   UNL     1      -5.982   3.686  -0.179  0.00  0.00    -0.452 OA
BRANCH  20  21
ATOM     21  C   UNL     1      -4.716   3.174  -0.674  0.00  0.00    +0.328 C 
BRANCH  21  33
ATOM     22  C   UNL     1      -3.143   2.388  -2.179  0.00  0.00    +0.028 C 
ATOM     23  C   UNL     1      -2.151   1.984  -1.086  0.00  0.00    +0.079 C 
ATOM     24  C   UNL     1      -1.471   0.662  -1.464  0.00  0.00    +0.027 C 
ATOM     25  C   UNL     1      -0.436   0.314  -0.395  0.00  0.00    +0.039 C 
ATOM     26  C   UNL     1      -1.056   0.371   0.977  0.00  0.00    -0.026 A 
ATOM     27  C   UNL     1      -0.444  -0.308   2.017  0.00  0.00    +0.005 A 
ATOM     28  C   UNL     1      -0.987  -0.273   3.287  0.00  0.00    +0.000 A 
ATOM     29  C   UNL     1      -2.146   0.442   3.527  0.00  0.00    +0.002 A 
ATOM     30  C   UNL     1      -2.762   1.121   2.496  0.00  0.00    +0.024 A 
ATOM     31  C   UNL     1      -2.219   1.085   1.216  0.00  0.00    +0.040 A 
ATOM     32  N   UNL     1      -2.865   1.775   0.181  0.00  0.00    -0.266 N 
ATOM     33  C   UNL     1      -4.120   2.238   0.344  0.00  0.00    +0.258 C 
ATOM     34  O   UNL     1      -4.769   1.900   1.312  0.00  0.00    -0.272 OA
ENDBRANCH  21  33
ENDBRANCH  20  21
ENDBRANCH   1  20
TORSDOF 6
