REMARK  Name = ZINC12104067
REMARK  8 active torsions:
REMARK  status: ('A' for Active; 'I' for Inactive)
REMARK    1  A    between atoms: C_1  and  C_2
REMARK    2  A    between atoms: C_5  and  N_24
REMARK    3  A    between atoms: C_6  and  N_9
REMARK    4  A    between atoms: C_7  and  C_8
REMARK    5  A    between atoms: C_10  and  C_12
REMARK    6  A    between atoms: C_12  and  S_13
REMARK    7  A    between atoms: S_13  and  C_14
REMARK    8  A    between atoms: C_16  and  C_19
REMARK                            x       y       z     vdW  Elec       q    Type
REMARK                         _______ _______ _______ _____ _____    ______ ____
ROOT
ATOM      1  N   UNL     1       1.413   1.813   2.388  0.00  0.00    -0.283 N 
ATOM      2  C   UNL     1       2.121   2.244   3.451  0.00  0.00    +0.228 C 
ATOM      3  O   UNL     1       1.558   2.804   4.368  0.00  0.00    -0.275 OA
ATOM      4  H   UNL     1       1.930   1.356   1.532  0.00  0.00    +0.155 HD
ENDROOT
BRANCH   1  10
ATOM      5  C   UNL     1      -2.942   0.971   4.509  0.00  0.00    +0.044 C 
ATOM      6  C   UNL     1      -2.115   1.550   3.390  0.00  0.00    -0.046 A 
ATOM      7  C   UNL     1      -2.734   2.216   2.347  0.00  0.00    +0.006 A 
ATOM      8  C   UNL     1      -1.979   2.743   1.315  0.00  0.00    +0.035 A 
ATOM      9  C   UNL     1      -0.604   2.611   1.326  0.00  0.00    +0.148 A 
ATOM     10  C   UNL     1       0.020   1.948   2.374  0.00  0.00    +0.067 A 
ATOM     11  C   UNL     1      -0.741   1.420   3.409  0.00  0.00    -0.024 A 
ATOM     12  C   UNL     1      -0.067   0.700   4.549  0.00  0.00    +0.046 C 
BRANCH   9  13
ATOM     13  N   UNL     1       0.203   3.176   0.222  0.00  0.00    +0.058 N 
ATOM     14  O   UNL     1      -0.333   3.844  -0.645  0.00  0.00    -0.126 OA
ATOM     15  O   UNL     1       1.403   2.974   0.179  0.00  0.00    -0.126 OA
ENDBRANCH   9  13
ENDBRANCH   1  10
BRANCH   2  16
ATOM     16  C   UNL     1       3.612   2.031   3.500  0.00  0.00    +0.173 C 
BRANCH  16  17
ATOM     17  S   UNL     1       4.269   2.715   5.041  0.00  0.00    -0.077 S 
BRANCH  17  18
ATOM     18  C   UNL     1       5.979   2.338   4.839  0.00  0.00    +0.185 A 
ATOM     19  N   UNL     1       6.983   2.627   5.717  0.00  0.00    -0.205 NA
ATOM     20  C   UNL     1       8.128   2.148   5.141  0.00  0.00    +0.155 A 
ATOM     21  N   UNL     1       7.796   1.625   3.995  0.00  0.00    -0.157 NA
ATOM     22  N   UNL     1       6.527   1.726   3.815  0.00  0.00    -0.254 N 
ATOM     23  H   UNL     1       6.068   1.325   2.899  0.00  0.00    +0.191 HD
BRANCH  20  24
ATOM     24  C   UNL     1       9.516   2.214   5.724  0.00  0.00    +0.059 C 
ATOM     25  C   UNL     1       9.448   2.122   7.263  0.00  0.00    +0.011 C 
ATOM     26  C   UNL     1      10.560   3.085   7.750  0.00  0.00    +0.001 C 
ATOM     27  C   UNL     1      10.466   4.256   6.740  0.00  0.00    +0.001 C 
ATOM     28  C   UNL     1      10.163   3.570   5.392  0.00  0.00    +0.011 C 
ENDBRANCH  20  24
ENDBRANCH  17  18
ENDBRANCH  16  17
ENDBRANCH   2  16
TORSDOF 6
