REMARK  Name = ZINC03407396
REMARK  8 active torsions:
REMARK  status: ('A' for Active; 'I' for Inactive)
REMARK    1  A    between atoms: C_1  and  C_2
REMARK    2  A    between atoms: C_7  and  N_8
REMARK    3  A    between atoms: C_11  and  C_16
REMARK    4  A    between atoms: C_16  and  S_17
REMARK    5  A    between atoms: S_17  and  C_18
REMARK    6  A    between atoms: C_21  and  C_30
REMARK    7  A    between atoms: N_22  and  C_23
REMARK    8  A    between atoms: C_23  and  C_24
REMARK                            x       y       z     vdW  Elec       q    Type
REMARK                         _______ _______ _______ _____ _____    ______ ____
ROOT
ATOM      1  N   UNL     1      -9.166  -1.666  -6.743  0.00  0.00    -0.283 N 
ATOM      2  C   UNL     1      -7.966  -2.249  -6.386  0.00  0.00    +0.224 A 
ATOM      3  N   UNL     1      -7.261  -1.757  -5.370  0.00  0.00    -0.198 NA
ATOM      4  C   UNL     1      -6.110  -2.311  -5.032  0.00  0.00    +0.146 A 
ATOM      5  N   UNL     1      -5.659  -3.362  -5.694  0.00  0.00    -0.199 NA
ATOM      6  C   UNL     1      -6.360  -3.863  -6.708  0.00  0.00    +0.217 A 
ATOM      7  N   UNL     1      -7.516  -3.306  -7.054  0.00  0.00    -0.181 NA
ATOM      8  N   UNL     1      -5.888  -4.960  -7.399  0.00  0.00    -0.327 N 
ATOM      9  H   UNL     1      -9.536  -0.950  -6.203  0.00  0.00    +0.155 HD
ATOM     10  H   UNL     1      -5.045  -5.367  -7.146  0.00  0.00    +0.145 HD
ATOM     11  H   UNL     1      -6.400  -5.325  -8.138  0.00  0.00    +0.145 HD
ENDROOT
BRANCH   1  18
ATOM     12  C   UNL     1     -11.980  -1.262  -6.865  0.00  0.00    +0.045 C 
ATOM     13  C   UNL     1     -11.221  -1.931  -7.982  0.00  0.00    -0.029 A 
ATOM     14  C   UNL     1     -11.891  -2.368  -9.108  0.00  0.00    +0.005 A 
ATOM     15  C   UNL     1     -11.196  -2.981 -10.134  0.00  0.00    +0.000 A 
ATOM     16  C   UNL     1      -9.828  -3.158 -10.037  0.00  0.00    +0.002 A 
ATOM     17  C   UNL     1      -9.151  -2.719  -8.916  0.00  0.00    +0.023 A 
ATOM     18  C   UNL     1      -9.848  -2.108  -7.881  0.00  0.00    +0.036 A 
ENDBRANCH   1  18
BRANCH   4  19
ATOM     19  C   UNL     1      -5.313  -1.746  -3.885  0.00  0.00    +0.153 C 
BRANCH  19  20
ATOM     20  S   UNL     1      -4.171  -0.486  -4.505  0.00  0.00    -0.078 S 
BRANCH  20  21
ATOM     21  C   UNL     1      -3.391  -0.011  -2.999  0.00  0.00    +0.192 A 
ATOM     22  N   UNL     1      -3.639  -0.496  -1.804  0.00  0.00    -0.122 NA
ATOM     23  N   UNL     1      -2.883   0.074  -0.935  0.00  0.00    -0.133 NA
ATOM     24  C   UNL     1      -2.121   0.957  -1.517  0.00  0.00    +0.137 A 
ATOM     25  N   UNL     1      -2.414   0.931  -2.852  0.00  0.00    -0.301 N 
BRANCH  24  26
ATOM     26  C   UNL     1      -1.100   1.838  -0.843  0.00  0.00    +0.057 C 
ATOM     27  C   UNL     1       0.041   1.149  -0.092  0.00  0.00    +0.012 C 
ATOM     28  C   UNL     1      -1.075   1.848   0.687  0.00  0.00    +0.012 C 
ENDBRANCH  24  26
BRANCH  25  29
ATOM     29  C   UNL     1      -1.806   1.747  -3.907  0.00  0.00    +0.160 C 
BRANCH  29  30
ATOM     30  C   UNL     1      -0.606   1.029  -4.468  0.00  0.00    -0.028 A 
ATOM     31  C   UNL     1       0.644   1.237  -3.914  0.00  0.00    +0.005 A 
ATOM     32  C   UNL     1       1.745   0.575  -4.426  0.00  0.00    +0.000 A 
ATOM     33  C   UNL     1       1.598  -0.286  -5.497  0.00  0.00    +0.000 A 
ATOM     34  C   UNL     1       0.349  -0.490  -6.053  0.00  0.00    +0.000 A 
ATOM     35  C   UNL     1      -0.753   0.168  -5.538  0.00  0.00    +0.005 A 
ENDBRANCH  29  30
ENDBRANCH  25  29
ENDBRANCH  20  21
ENDBRANCH  19  20
ENDBRANCH   4  19
TORSDOF 7
