REMARK  Name = ZINC22504408
REMARK  5 active torsions:
REMARK  status: ('A' for Active; 'I' for Inactive)
REMARK    1  A    between atoms: C_1  and  C_2
REMARK    2  A    between atoms: C_2  and  C_3
REMARK    3  A    between atoms: C_2  and  C_4
REMARK    4  A    between atoms: C_14  and  N_16
REMARK    5  A    between atoms: N_19  and  C_20
REMARK                            x       y       z     vdW  Elec       q    Type
REMARK                         _______ _______ _______ _____ _____    ______ ____
ROOT
ATOM      1  C   UNL     1      -2.490   4.485  -1.177  0.00  0.00    +0.222 C 
ATOM      2  O   UNL     1      -1.497   5.059  -0.784  0.00  0.00    -0.275 OA
ATOM      3  N   UNL     1      -2.439   3.169  -1.466  0.00  0.00    -0.271 N 
ATOM      4  C   UNL     1      -3.622   2.472  -1.987  0.00  0.00    +0.114 C 
ATOM      5  C   UNL     1      -3.751   1.141  -1.235  0.00  0.00    +0.024 C 
ATOM      6  C   UNL     1      -2.526   0.279  -1.542  0.00  0.00    +0.038 C 
ATOM      7  C   UNL     1      -1.259   1.056  -1.303  0.00  0.00    -0.024 A 
ATOM      8  C   UNL     1      -1.254   2.442  -1.273  0.00  0.00    +0.040 A 
ATOM      9  C   UNL     1      -0.067   3.131  -1.053  0.00  0.00    +0.025 A 
ATOM     10  C   UNL     1       1.110   2.438  -0.856  0.00  0.00    +0.025 A 
ATOM     11  C   UNL     1       1.106   1.050  -0.876  0.00  0.00    +0.035 A 
ATOM     12  C   UNL     1      -0.079   0.363  -1.097  0.00  0.00    +0.028 A 
ENDROOT
BRANCH  11  13
ATOM     13  N   UNL     1       2.299   0.343  -0.675  0.00  0.00    -0.269 N 
ATOM     14  C   UNL     1       3.258   0.853   0.124  0.00  0.00    +0.308 C 
ATOM     15  O   UNL     1       3.055   1.884   0.735  0.00  0.00    -0.252 OA
ATOM     16  N   UNL     1       4.441   0.219   0.245  0.00  0.00    -0.269 N 
ATOM     17  H   UNL     1       2.453  -0.628  -1.168  0.00  0.00    +0.156 HD
ATOM     18  H   UNL     1       4.653  -0.672  -0.365  0.00  0.00    +0.156 HD
BRANCH  16  19
ATOM     19  C   UNL     1       5.401   0.695   1.148  0.00  0.00    +0.038 A 
ATOM     20  C   UNL     1       6.753   0.535   0.872  0.00  0.00    +0.027 A 
ATOM     21  C   UNL     1       7.701   1.009   1.758  0.00  0.00    +0.051 A 
ATOM     22  C   UNL     1       7.306   1.634   2.930  0.00  0.00    +0.166 A 
ATOM     23  C   UNL     1       5.951   1.790   3.213  0.00  0.00    +0.168 A 
ATOM     24  C   UNL     1       5.002   1.320   2.321  0.00  0.00    +0.073 A 
ATOM     25  O   UNL     1       5.827   2.429   4.412  0.00  0.00    -0.453 OA
ATOM     26  C   UNL     1       7.109   2.297   5.054  0.00  0.00    +0.466 C 
ATOM     27  O   UNL     1       8.030   2.176   3.954  0.00  0.00    -0.453 OA
ENDBRANCH  16  19
ENDBRANCH  11  13
BRANCH   1  29
ATOM     28  C   UNL     1      -4.693   4.966  -0.146  0.00  0.00    +0.017 C 
ATOM     29  C   UNL     1      -3.782   5.242  -1.344  0.00  0.00    +0.069 C 
ATOM     30  C   UNL     1      -3.487   6.742  -1.425  0.00  0.00    +0.017 C 
ENDBRANCH   1  29
TORSDOF 3
