REMARK  Name = ZINC39984682
REMARK  7 active torsions:
REMARK  status: ('A' for Active; 'I' for Inactive)
REMARK    1  A    between atoms: C_1  and  C_2
REMARK    2  A    between atoms: C_5  and  C_8
REMARK    3  A    between atoms: C_9  and  C_23
REMARK    4  A    between atoms: C_12  and  C_14
REMARK    5  A    between atoms: C_17  and  O_22
REMARK    6  A    between atoms: C_18  and  O_21
REMARK    7  A    between atoms: C_19  and  O_20
REMARK                            x       y       z     vdW  Elec       q    Type
REMARK                         _______ _______ _______ _____ _____    ______ ____
ROOT
ATOM      1  C   UNL     1      -2.973  -2.049   1.026  0.00  0.00    +0.034 C 
ATOM      2  C   UNL     1      -3.395  -3.081   1.794  0.00  0.00    +0.170 C 
ATOM      3  N   UNL     1      -4.717  -3.286   1.623  0.00  0.00    -0.173 NA
ATOM      4  N   UNL     1      -5.259  -2.517   0.826  0.00  0.00    -0.296 N 
ATOM      5  C   UNL     1      -4.234  -1.591   0.315  0.00  0.00    +0.166 C 
ATOM      6  H   UNL     1      -6.197  -2.519   0.582  0.00  0.00    +0.183 HD
ENDROOT
BRANCH   1  10
ATOM      7  C   UNL     1       0.745   0.256   2.867  0.00  0.00    +0.044 C 
ATOM      8  C   UNL     1       0.107   0.044   1.493  0.00  0.00    +0.160 C 
ATOM      9  N   UNL     1      -1.260  -0.501   1.618  0.00  0.00    -0.273 NA
ATOM     10  C   UNL     1      -1.619  -1.498   0.913  0.00  0.00    +0.055 C 
ATOM     11  C   UNL     1      -0.609  -2.106  -0.050  0.00  0.00    +0.126 C 
ATOM     12  S   UNL     1       0.943  -1.321   0.573  0.00  0.00    -0.128 S 
ENDBRANCH   1  10
BRANCH   5  13
ATOM     13  C   UNL     1      -4.567  -0.168   0.683  0.00  0.00    +0.026 A 
ATOM     14  C   UNL     1      -5.458   0.089   1.708  0.00  0.00    +0.013 A 
ATOM     15  C   UNL     1      -5.766   1.392   2.050  0.00  0.00    +0.050 A 
ATOM     16  C   UNL     1      -5.184   2.447   1.364  0.00  0.00    +0.162 A 
ATOM     17  C   UNL     1      -4.288   2.193   0.333  0.00  0.00    +0.201 A 
ATOM     18  C   UNL     1      -3.976   0.881  -0.004  0.00  0.00    +0.168 A 
BRANCH  18  19
ATOM     19  O   UNL     1      -3.096   0.627  -1.010  0.00  0.00    -0.503 OA
ATOM     20  H   UNL     1      -3.507   0.548  -1.881  0.00  0.00    +0.292 HD
ENDBRANCH  18  19
BRANCH  17  21
ATOM     21  O   UNL     1      -3.714   3.226  -0.343  0.00  0.00    -0.501 OA
ATOM     22  H   UNL     1      -2.880   3.531   0.040  0.00  0.00    +0.292 HD
ENDBRANCH  17  21
BRANCH  16  23
ATOM     23  O   UNL     1      -5.489   3.729   1.700  0.00  0.00    -0.503 OA
ATOM     24  H   UNL     1      -4.909   4.107   2.376  0.00  0.00    +0.292 HD
ENDBRANCH  16  23
ENDBRANCH   5  13
BRANCH   2  25
ATOM     25  C   UNL     1      -2.512  -3.887   2.711  0.00  0.00    +0.436 C 
ATOM     26  F   UNL     1      -1.231  -3.326   2.737  0.00  0.00    -0.164 F 
ATOM     27  F   UNL     1      -3.050  -3.880   4.002  0.00  0.00    -0.164 F 
ATOM     28  F   UNL     1      -2.435  -5.204   2.245  0.00  0.00    -0.164 F 
ENDBRANCH   2  25
TORSDOF 6
