REMARK  Name = ZINC58251498
REMARK  9 active torsions:
REMARK  status: ('A' for Active; 'I' for Inactive)
REMARK    1  A    between atoms: C_1  and  N_2
REMARK    2  A    between atoms: N_2  and  C_3
REMARK    3  A    between atoms: N_2  and  C_4
REMARK    4  A    between atoms: C_4  and  C_6
REMARK    5  A    between atoms: C_4  and  C_26
REMARK    6  A    between atoms: C_6  and  N_7
REMARK    7  A    between atoms: N_10  and  C_11
REMARK    8  A    between atoms: C_14  and  N_21
REMARK    9  A    between atoms: C_16  and  C_17
REMARK                            x       y       z     vdW  Elec       q    Type
REMARK                         _______ _______ _______ _____ _____    ______ ____
ROOT
ATOM      1  N   UNL     1      -1.196  -2.662   1.134  0.00  0.00    -0.300 N 
ATOM      2  C   UNL     1      -1.435  -3.974   1.329  0.00  0.00    +0.304 C 
ATOM      3  O   UNL     1      -2.038  -4.613   0.489  0.00  0.00    -0.253 OA
ATOM      4  N   UNL     1      -1.006  -4.577   2.455  0.00  0.00    -0.269 N 
ATOM      5  H   UNL     1      -0.716  -2.151   1.804  0.00  0.00    +0.150 HD
ATOM      6  H   UNL     1      -0.582  -4.054   3.154  0.00  0.00    +0.156 HD
ENDROOT
BRANCH   4   7
ATOM      7  C   UNL     1      -1.171  -5.957   2.617  0.00  0.00    +0.047 A 
ATOM      8  C   UNL     1      -1.118  -6.798   1.512  0.00  0.00    +0.026 A 
ATOM      9  C   UNL     1      -1.281  -8.159   1.672  0.00  0.00    +0.029 A 
ATOM     10  C   UNL     1      -1.499  -8.688   2.937  0.00  0.00    +0.066 A 
ATOM     11  C   UNL     1      -1.552  -7.849   4.042  0.00  0.00    +0.042 A 
ATOM     12  C   UNL     1      -1.383  -6.488   3.883  0.00  0.00    +0.078 A 
BRANCH  10  13
ATOM     13  N   UNL     1      -1.665 -10.072   3.099  0.00  0.00    -0.240 N 
ATOM     14  C   UNL     1      -1.538 -11.007   2.132  0.00  0.00    +0.114 A 
ATOM     15  C   UNL     1      -1.776 -12.216   2.693  0.00  0.00    +0.041 A 
ATOM     16  C   UNL     1      -2.059 -12.013   4.048  0.00  0.00    +0.135 A 
ATOM     17  N   UNL     1      -1.986 -10.729   4.294  0.00  0.00    -0.175 NA
ENDBRANCH  10  13
BRANCH  12  18
ATOM     18  C   UNL     1      -1.435  -5.577   5.083  0.00  0.00    +0.419 C 
ATOM     19  F   UNL     1      -1.657  -6.337   6.236  0.00  0.00    -0.166 F 
ATOM     20  F   UNL     1      -0.220  -4.894   5.202  0.00  0.00    -0.166 F 
ATOM     21  F   UNL     1      -2.475  -4.655   4.924  0.00  0.00    -0.166 F 
ENDBRANCH  12  18
ENDBRANCH   4   7
BRANCH   1  22
ATOM     22  C   UNL     1      -1.663  -2.006  -0.090  0.00  0.00    +0.098 C 
BRANCH  22  23
ATOM     23  C   UNL     1      -1.378  -0.505  -0.006  0.00  0.00    +0.016 C 
BRANCH  23  24
ATOM     24  C   UNL     1       0.112  -0.278   0.020  0.00  0.00    +0.093 A 
ATOM     25  C   UNL     1       0.869   0.092  -1.029  0.00  0.00    +0.043 A 
ATOM     26  C   UNL     1       2.199   0.189  -0.560  0.00  0.00    +0.041 A 
ATOM     27  C   UNL     1       2.175  -0.128   0.747  0.00  0.00    +0.195 A 
ATOM     28  O   UNL     1       0.907  -0.404   1.094  0.00  0.00    -0.469 OA
ENDBRANCH  23  24
BRANCH  23  30
ATOM     29  C   UNL     1      -1.786   1.495   1.254  0.00  0.00    -0.096 C 
ATOM     30  N   UNL     1      -1.977   0.039   1.220  0.00  0.00    +0.384 N 
ATOM     31  C   UNL     1      -3.414  -0.267   1.240  0.00  0.00    -0.096 C 
ATOM     32  H   UNL     1      -1.534  -0.378   2.025  0.00  0.00    -0.082 HD
ENDBRANCH  23  30
ENDBRANCH  22  23
ENDBRANCH   1  22
TORSDOF 7
