REMARK  Name = ZINC38684236
REMARK  16 active torsions:
REMARK  status: ('A' for Active; 'I' for Inactive)
REMARK    1  A    between atoms: C_1  and  C_2
REMARK    2  A    between atoms: C_2  and  O_3
REMARK    3  A    between atoms: O_3  and  C_4
REMARK    4  A    between atoms: C_8  and  C_10
REMARK    5  A    between atoms: C_10  and  O_12
REMARK    6  A    between atoms: O_12  and  C_13
REMARK    7  A    between atoms: C_20  and  N_39
REMARK    8  A    between atoms: C_21  and  C_37
REMARK    9  A    between atoms: C_22  and  C_24
REMARK   10  A    between atoms: C_27  and  O_32
REMARK   11  A    between atoms: C_28  and  O_30
REMARK   12  A    between atoms: O_30  and  C_31
REMARK   13  A    between atoms: O_32  and  C_33
REMARK   14  A    between atoms: C_33  and  C_34
REMARK   15  A    between atoms: C_34  and  C_35
REMARK   16  A    between atoms: C_34  and  C_36
REMARK                            x       y       z     vdW  Elec       q    Type
REMARK                         _______ _______ _______ _____ _____    ______ ____
ROOT
ATOM      1  C   UNL     1       3.020  -6.210   4.908  0.00  0.00    +0.135 A 
ATOM      2  C   UNL     1       3.546  -5.415   5.917  0.00  0.00    +0.047 A 
ATOM      3  C   UNL     1       4.215  -5.995   6.976  0.00  0.00    +0.012 A 
ATOM      4  C   UNL     1       4.364  -7.370   7.037  0.00  0.00    +0.008 A 
ATOM      5  C   UNL     1       3.841  -8.169   6.033  0.00  0.00    +0.138 A 
ATOM      6  C   UNL     1       3.163  -7.587   4.970  0.00  0.00    +0.093 A 
ATOM      7  O   UNL     1       3.977  -9.517   6.075  0.00  0.00    -0.441 OA
ATOM      8  C   UNL     1       4.265 -10.126   7.237  0.00  0.00    +0.199 C 
ATOM      9  C   UNL     1       4.798  -9.454   8.285  0.00  0.00    +0.098 C 
ATOM     10  C   UNL     1       5.097  -7.984   8.200  0.00  0.00    +0.098 C 
ENDROOT
BRANCH  10  11
ATOM     11  C   UNL     1       6.580  -7.786   8.016  0.00  0.00    -0.031 A 
ATOM     12  C   UNL     1       7.212  -8.305   6.902  0.00  0.00    +0.008 A 
ATOM     13  C   UNL     1       8.571  -8.127   6.728  0.00  0.00    +0.050 A 
ATOM     14  C   UNL     1       9.304  -7.426   7.673  0.00  0.00    +0.162 A 
ATOM     15  C   UNL     1       8.668  -6.903   8.794  0.00  0.00    +0.162 A 
ATOM     16  C   UNL     1       7.304  -7.081   8.960  0.00  0.00    +0.054 A 
BRANCH  15  17
ATOM     17  O   UNL     1       9.382  -6.214   9.724  0.00  0.00    -0.491 OA
ATOM     18  C   UNL     1       8.663  -5.706  10.850  0.00  0.00    +0.277 C 
ENDBRANCH  15  17
BRANCH  14  19
ATOM     19  O   UNL     1      10.642  -7.249   7.504  0.00  0.00    -0.488 OA
BRANCH  19  20
ATOM     20  C   UNL     1      11.227  -7.814   6.329  0.00  0.00    +0.232 C 
BRANCH  20  21
ATOM     21  C   UNL     1      12.728  -7.515   6.313  0.00  0.00    +0.020 C 
ATOM     22  C   UNL     1      13.403  -8.230   7.486  0.00  0.00    +0.010 C 
ATOM     23  C   UNL     1      13.333  -8.010   4.998  0.00  0.00    +0.010 C 
ENDBRANCH  20  21
ENDBRANCH  19  20
ENDBRANCH  14  19
ENDBRANCH  10  11
BRANCH   8  24
ATOM     24  N   UNL     1       4.011 -11.469   7.366  0.00  0.00    -0.328 N 
ATOM     25  H   UNL     1       3.630 -11.964   6.625  0.00  0.00    +0.145 HD
ATOM     26  H   UNL     1       4.213 -11.923   8.200  0.00  0.00    +0.145 HD
ENDBRANCH   8  24
BRANCH   9  27
ATOM     27  C   UNL     1       5.082 -10.159   9.499  0.00  0.00    +0.101 C 
ATOM     28  N   UNL     1       5.307 -10.718  10.462  0.00  0.00    -0.191 NA
ENDBRANCH   9  27
BRANCH   1  29
ATOM     29  O   UNL     1       2.362  -5.640   3.865  0.00  0.00    -0.422 OA
BRANCH  29  30
ATOM     30  C   UNL     1       3.096  -5.053   2.899  0.00  0.00    +0.345 C 
ATOM     31  O   UNL     1       4.301  -4.966   3.020  0.00  0.00    -0.245 OA
BRANCH  30  36
ATOM     32  C   UNL     1       2.564  -3.407  -0.438  0.00  0.00    +0.121 A 
ATOM     33  C   UNL     1       1.185  -3.510  -0.570  0.00  0.00    +0.046 A 
ATOM     34  C   UNL     1       0.434  -4.112   0.422  0.00  0.00    +0.004 A 
ATOM     35  C   UNL     1       1.048  -4.615   1.550  0.00  0.00    +0.015 A 
ATOM     36  C   UNL     1       2.434  -4.516   1.692  0.00  0.00    +0.063 A 
ATOM     37  C   UNL     1       3.192  -3.913   0.687  0.00  0.00    +0.060 A 
BRANCH  32  38
ATOM     38  O   UNL     1       3.298  -2.814  -1.417  0.00  0.00    -0.492 OA
BRANCH  38  40
ATOM     39  C   UNL     1       3.571  -1.687  -3.537  0.00  0.00    +0.048 C 
ATOM     40  C   UNL     1       2.584  -2.314  -2.550  0.00  0.00    +0.225 C 
ENDBRANCH  38  40
ENDBRANCH  32  38
ENDBRANCH  30  36
ENDBRANCH  29  30
ENDBRANCH   1  29
TORSDOF 12
