REMARK  Name = ZINC63626061
REMARK  7 active torsions:
REMARK  status: ('A' for Active; 'I' for Inactive)
REMARK    1  A    between atoms: C_1  and  C_2
REMARK    2  A    between atoms: C_5  and  C_8
REMARK    3  A    between atoms: N_10  and  C_11
REMARK    4  A    between atoms: C_11  and  C_13
REMARK    5  A    between atoms: C_11  and  C_23
REMARK    6  A    between atoms: C_13  and  C_14
REMARK    7  A    between atoms: N_25  and  C_26
REMARK                            x       y       z     vdW  Elec       q    Type
REMARK                         _______ _______ _______ _____ _____    ______ ____
ROOT
ATOM      1  C   UNL     1      -1.586  -1.931   4.905  0.00  0.00    +0.163 C 
ENDROOT
BRANCH   1   4
ATOM      2  C   UNL     1      -1.373  -2.077   2.483  0.00  0.00    +0.217 C 
ATOM      3  O   UNL     1      -2.365  -1.386   2.383  0.00  0.00    -0.275 OA
ATOM      4  N   UNL     1      -0.901  -2.408   3.701  0.00  0.00    -0.303 N 
ATOM      5  H   UNL     1      -0.108  -2.961   3.780  0.00  0.00    +0.149 HD
BRANCH   2  10
ATOM      6  C   UNL     1       0.016   1.526   0.015  0.00  0.00    +0.007 C 
ATOM      7  C   UNL     1       0.026  -0.004   0.005  0.00  0.00    -0.014 C 
ATOM      8  C   UNL     1      -1.413  -0.524   0.013  0.00  0.00    +0.004 C 
ATOM      9  C   UNL     1      -1.403  -2.054   0.003  0.00  0.00    +0.013 C 
ATOM     10  C   UNL     1      -0.669  -2.567   1.244  0.00  0.00    +0.075 C 
ATOM     11  C   UNL     1       0.770  -2.047   1.236  0.00  0.00    +0.013 C 
ATOM     12  C   UNL     1       0.760  -0.518   1.246  0.00  0.00    +0.004 C 
ENDBRANCH   2  10
ENDBRANCH   1   4
BRANCH   1  13
ATOM     13  C   UNL     1      -0.609  -1.882   6.052  0.00  0.00    +0.238 C 
ATOM     14  O   UNL     1       0.545  -2.212   5.880  0.00  0.00    -0.273 OA
ATOM     15  N   UNL     1      -1.018  -1.471   7.269  0.00  0.00    -0.284 N 
ATOM     16  H   UNL     1      -1.923  -1.143   7.391  0.00  0.00    +0.155 HD
BRANCH  15  17
ATOM     17  C   UNL     1      -0.137  -1.516   8.357  0.00  0.00    +0.037 A 
ATOM     18  C   UNL     1      -0.614  -1.821   9.624  0.00  0.00    +0.027 A 
ATOM     19  C   UNL     1       0.255  -1.865  10.698  0.00  0.00    +0.051 A 
ATOM     20  C   UNL     1       1.605  -1.606  10.513  0.00  0.00    +0.162 A 
ATOM     21  C   UNL     1       2.086  -1.303   9.244  0.00  0.00    +0.164 A 
ATOM     22  C   UNL     1       1.214  -1.262   8.167  0.00  0.00    +0.072 A 
ATOM     23  O   UNL     1       3.408  -1.054   9.042  0.00  0.00    -0.485 OA
ATOM     24  C   UNL     1       4.189  -0.743  10.200  0.00  0.00    +0.270 C 
ATOM     25  C   UNL     1       3.845  -1.757  11.299  0.00  0.00    +0.270 C 
ATOM     26  O   UNL     1       2.446  -1.651  11.583  0.00  0.00    -0.485 OA
ENDBRANCH  15  17
ENDBRANCH   1  13
BRANCH   1  27
ATOM     27  C   UNL     1      -2.731  -2.885   5.252  0.00  0.00    +0.065 C 
BRANCH  27  28
ATOM     28  C   UNL     1      -3.769  -2.842   4.160  0.00  0.00    -0.039 C 
ATOM     29  C   UNL     1      -3.875  -3.682   3.106  0.00  0.00    -0.001 A 
ATOM     30  C   UNL     1      -3.087  -4.843   2.676  0.00  0.00    +0.010 A 
ATOM     31  C   UNL     1      -3.446  -5.499   1.549  0.00  0.00    +0.001 A 
ATOM     32  C   UNL     1      -4.549  -5.099   0.783  0.00  0.00    +0.002 A 
ATOM     33  C   UNL     1      -5.322  -4.043   1.113  0.00  0.00    +0.026 A 
ATOM     34  C   UNL     1      -5.036  -3.280   2.280  0.00  0.00    +0.043 A 
ATOM     35  N   UNL     1      -5.624  -2.232   2.803  0.00  0.00    -0.380 N 
ATOM     36  C   UNL     1      -4.906  -1.854   4.025  0.00  0.00    +0.144 C 
ATOM     37  H   UNL     1      -6.406  -1.784   2.444  0.00  0.00    +0.160 HD
ENDBRANCH  27  28
ENDBRANCH   1  27
TORSDOF 6
