REMARK  Name = ZINC30312481
REMARK  11 active torsions:
REMARK  status: ('A' for Active; 'I' for Inactive)
REMARK    1  A    between atoms: C_1  and  C_2
REMARK    2  A    between atoms: C_5  and  S_8
REMARK    3  A    between atoms: S_8  and  N_11
REMARK    4  A    between atoms: N_11  and  C_12
REMARK    5  A    between atoms: C_12  and  C_14
REMARK    6  A    between atoms: C_12  and  C_17
REMARK    7  A    between atoms: C_14  and  C_15
REMARK    8  A    between atoms: C_14  and  C_16
REMARK    9  A    between atoms: N_19  and  C_20
REMARK   10  A    between atoms: C_20  and  C_21
REMARK   11  A    between atoms: C_26  and  N_27
REMARK                            x       y       z     vdW  Elec       q    Type
REMARK                         _______ _______ _______ _____ _____    ______ ____
ROOT
ATOM      1  C   UNL     1      -2.993   3.027  -1.697  0.00  0.00    +0.232 C 
ATOM      2  O   UNL     1      -3.675   3.241  -0.717  0.00  0.00    -0.274 OA
ATOM      3  N   UNL     1      -2.250   1.904  -1.770  0.00  0.00    -0.310 N 
ATOM      4  H   UNL     1      -1.694   1.672  -2.690  0.00  0.00    +0.149 HD
ENDROOT
BRANCH   1   5
ATOM      5  C   UNL     1      -2.975   4.017  -2.833  0.00  0.00    +0.165 C 
BRANCH   5   6
ATOM      6  C   UNL     1      -1.600   4.684  -2.908  0.00  0.00    +0.010 C 
ATOM      7  C   UNL     1      -1.545   5.603  -4.130  0.00  0.00    +0.009 C 
ATOM      8  C   UNL     1      -1.364   5.507  -1.640  0.00  0.00    +0.009 C 
ENDBRANCH   5   6
BRANCH   5   9
ATOM      9  N   UNL     1      -4.002   5.037  -2.607  0.00  0.00    -0.178 NA
ATOM     10  H   UNL     1      -4.088   5.522  -1.624  0.00  0.00    +0.149 HD
BRANCH   9  11
ATOM     11  S   UNL     1      -5.184   5.287  -3.739  0.00  0.00    +0.059 S 
ATOM     12  O   UNL     1      -6.083   6.238  -3.185  0.00  0.00    -0.153 OA
ATOM     13  O   UNL     1      -4.522   5.497  -4.979  0.00  0.00    -0.153 OA
BRANCH  11  18
ATOM     14  C   UNL     1      -8.258   0.123  -4.278  0.00  0.00    +0.044 C 
ATOM     15  C   UNL     1      -7.490   1.413  -4.144  0.00  0.00    -0.050 A 
ATOM     16  C   UNL     1      -7.888   2.361  -3.219  0.00  0.00    +0.005 A 
ATOM     17  C   UNL     1      -7.184   3.544  -3.096  0.00  0.00    +0.029 A 
ATOM     18  C   UNL     1      -6.082   3.779  -3.897  0.00  0.00    +0.105 A 
ATOM     19  C   UNL     1      -5.687   2.833  -4.824  0.00  0.00    +0.029 A 
ATOM     20  C   UNL     1      -6.389   1.648  -4.945  0.00  0.00    +0.005 A 
ENDBRANCH  11  18
ENDBRANCH   9  11
ENDBRANCH   5   9
ENDBRANCH   1   5
BRANCH   3  21
ATOM     21  C   UNL     1      -2.184   0.994  -0.624  0.00  0.00    +0.143 C 
BRANCH  21  22
ATOM     22  C   UNL     1      -1.198  -0.108  -0.913  0.00  0.00    +0.008 A 
ATOM     23  C   UNL     1       0.068  -0.081  -0.356  0.00  0.00    +0.010 A 
ATOM     24  C   UNL     1       0.942  -1.120  -0.646  0.00  0.00    +0.018 A 
ATOM     25  C   UNL     1       0.525  -2.142  -1.475  0.00  0.00    +0.084 A 
ATOM     26  N   UNL     1      -0.688  -2.143  -1.992  0.00  0.00    -0.349 N 
ATOM     27  C   UNL     1      -1.551  -1.169  -1.740  0.00  0.00    +0.104 A 
ATOM     28  H   UNL     1      -1.006  -2.965  -2.651  0.00  0.00    +0.167 HD
BRANCH  27  29
ATOM     29  N   UNL     1      -2.819  -1.210  -2.307  0.00  0.00    -0.312 N 
ATOM     30  C   UNL     1      -3.612  -2.313  -1.745  0.00  0.00    +0.134 C 
ATOM     31  C   UNL     1      -5.018  -2.284  -2.352  0.00  0.00    +0.178 C 
ATOM     32  O   UNL     1      -4.919  -2.359  -3.776  0.00  0.00    -0.377 OA
ATOM     33  C   UNL     1      -4.154  -1.299  -4.357  0.00  0.00    +0.178 C 
ATOM     34  C   UNL     1      -2.740  -1.318  -3.771  0.00  0.00    +0.134 C 
ENDBRANCH  27  29
ENDBRANCH  21  22
ENDBRANCH   3  21
TORSDOF 8
