REMARK  Name = ZINC09263359
REMARK  9 active torsions:
REMARK  status: ('A' for Active; 'I' for Inactive)
REMARK    1  A    between atoms: C_1  and  C_2
REMARK    2  A    between atoms: C_2  and  N_3
REMARK    3  A    between atoms: C_4  and  C_21
REMARK    4  A    between atoms: C_7  and  S_8
REMARK    5  A    between atoms: S_8  and  C_9
REMARK    6  A    between atoms: C_9  and  C_10
REMARK    7  A    between atoms: C_21  and  C_22
REMARK    8  A    between atoms: C_22  and  N_23
REMARK    9  A    between atoms: C_24  and  C_26
REMARK                            x       y       z     vdW  Elec       q    Type
REMARK                         _______ _______ _______ _____ _____    ______ ____
ROOT
ATOM      1  N   UNL     1       7.772  -2.784  -0.091  0.00  0.00    -0.306 N 
ATOM      2  C   UNL     1       7.662  -4.147  -0.092  0.00  0.00    +0.136 A 
ATOM      3  N   UNL     1       6.390  -4.433  -0.083  0.00  0.00    -0.133 NA
ATOM      4  N   UNL     1       5.695  -3.352  -0.070  0.00  0.00    -0.122 NA
ATOM      5  C   UNL     1       6.492  -2.309  -0.071  0.00  0.00    +0.192 A 
ENDROOT
BRANCH   1   7
ATOM      6  C   UNL     1       9.459  -1.729   1.332  0.00  0.00    +0.027 C 
ATOM      7  C   UNL     1       9.008  -1.997  -0.105  0.00  0.00    +0.122 C 
ENDBRANCH   1   7
BRANCH   5   8
ATOM      8  S   UNL     1       6.003  -0.616  -0.058  0.00  0.00    -0.077 S 
BRANCH   8   9
ATOM      9  C   UNL     1       4.204  -0.809  -0.042  0.00  0.00    +0.173 C 
BRANCH   9  10
ATOM     10  C   UNL     1       3.553   0.550  -0.029  0.00  0.00    +0.230 C 
ATOM     11  O   UNL     1       4.238   1.551  -0.029  0.00  0.00    -0.274 OA
ATOM     12  N   UNL     1       2.209   0.654  -0.015  0.00  0.00    -0.270 N 
ATOM     13  C   UNL     1       1.464   1.915  -0.002  0.00  0.00    +0.118 C 
ATOM     14  C   UNL     1      -0.018   1.508   0.010  0.00  0.00    +0.056 C 
ATOM     15  C   UNL     1       0.002  -0.004   0.002  0.00  0.00    -0.024 A 
ATOM     16  C   UNL     1       1.322  -0.427  -0.013  0.00  0.00    +0.040 A 
ATOM     17  C   UNL     1       1.595  -1.796  -0.024  0.00  0.00    +0.024 A 
ATOM     18  C   UNL     1       0.563  -2.711  -0.019  0.00  0.00    +0.002 A 
ATOM     19  C   UNL     1      -0.750  -2.278  -0.004  0.00  0.00    +0.000 A 
ATOM     20  C   UNL     1      -1.028  -0.924   0.006  0.00  0.00    +0.005 A 
ENDBRANCH   9  10
ENDBRANCH   8   9
ENDBRANCH   5   8
BRANCH   2  21
ATOM     21  C   UNL     1       8.799  -5.135  -0.108  0.00  0.00    +0.095 C 
BRANCH  21  22
ATOM     22  C   UNL     1       9.172  -5.461  -1.556  0.00  0.00    +0.112 C 
BRANCH  22  23
ATOM     23  N   UNL     1      10.277  -6.422  -1.571  0.00  0.00    -0.311 N 
ATOM     24  C   UNL     1      10.776  -6.857  -2.745  0.00  0.00    +0.247 C 
ATOM     25  O   UNL     1      10.308  -6.452  -3.791  0.00  0.00    -0.270 OA
ATOM     26  H   UNL     1      10.651  -6.745  -0.736  0.00  0.00    +0.149 HD
BRANCH  24  27
ATOM     27  C   UNL     1      11.891  -7.826  -2.760  0.00  0.00    +0.072 A 
ATOM     28  C   UNL     1      12.434  -8.289  -1.560  0.00  0.00    +0.016 A 
ATOM     29  C   UNL     1      13.471  -9.198  -1.581  0.00  0.00    +0.001 A 
ATOM     30  C   UNL     1      13.982  -9.644  -2.788  0.00  0.00    +0.003 A 
ATOM     31  C   UNL     1      13.455  -9.187  -3.981  0.00  0.00    +0.039 A 
ATOM     32  C   UNL     1      12.411  -8.280  -3.976  0.00  0.00    +0.135 A 
ATOM     33  F   UNL     1      11.896  -7.833  -5.143  0.00  0.00    -0.205 F 
ENDBRANCH  24  27
ENDBRANCH  22  23
ENDBRANCH  21  22
ENDBRANCH   2  21
TORSDOF 8
