REMARK  Name = ZINC03977910
REMARK  8 active torsions:
REMARK  status: ('A' for Active; 'I' for Inactive)
REMARK    1  A    between atoms: C_1  and  C_2
REMARK    2  A    between atoms: C_4  and  O_32
REMARK    3  A    between atoms: C_12  and  O_20
REMARK    4  A    between atoms: C_14  and  C_15
REMARK    5  A    between atoms: C_14  and  O_19
REMARK    6  A    between atoms: C_15  and  C_17
REMARK    7  A    between atoms: C_17  and  O_18
REMARK    8  A    between atoms: C_29  and  C_30
REMARK                            x       y       z     vdW  Elec       q    Type
REMARK                         _______ _______ _______ _____ _____    ______ ____
ROOT
ATOM      1  C   UNL     1       0.205   1.607   0.018  0.00  0.00    +0.015 C 
ATOM      2  C   UNL     1       0.109   0.082   0.041  0.00  0.00    +0.012 C 
ATOM      3  C   UNL     1      -1.320  -0.382   0.163  0.00  0.00    +0.044 C 
ATOM      4  C   UNL     1      -1.866  -0.059   1.569  0.00  0.00    +0.154 C 
ATOM      5  C   UNL     1      -1.004  -0.669   2.653  0.00  0.00    +0.153 C 
ATOM      6  C   UNL     1       0.472  -0.257   2.533  0.00  0.00    +0.034 C 
ATOM      7  C   UNL     1       0.961  -0.556   1.155  0.00  0.00    +0.007 C 
ATOM      8  C   UNL     1       2.377  -0.130   0.756  0.00  0.00    +0.039 C 
ATOM      9  C   UNL     1       2.360  -0.316  -0.789  0.00  0.00    +0.154 C 
ATOM     10  C   UNL     1       0.870  -0.423  -1.203  0.00  0.00    +0.157 C 
ATOM     11  C   UNL     1       0.639   1.178   3.009  0.00  0.00    +0.011 C 
ATOM     12  C   UNL     1       0.498   1.181   4.533  0.00  0.00    +0.032 C 
ATOM     13  C   UNL     1      -0.595   0.249   4.985  0.00  0.00    -0.053 C 
ATOM     14  C   UNL     1      -0.781   0.160   6.317  0.00  0.00    +0.051 C 
ATOM     15  C   UNL     1      -1.781  -0.795   6.837  0.00  0.00    +0.179 C 
ATOM     16  O   UNL     1      -2.295  -0.663   7.940  0.00  0.00    -0.288 OA
ATOM     17  C   UNL     1      -2.104  -1.955   5.971  0.00  0.00    +0.047 C 
ATOM     18  C   UNL     1      -1.925  -1.836   4.651  0.00  0.00    -0.009 C 
ATOM     19  C   UNL     1      -1.485  -0.518   4.069  0.00  0.00    +0.044 C 
ATOM     20  C   UNL     1      -2.784   0.288   4.045  0.00  0.00    +0.023 C 
ATOM     21  F   UNL     1      -1.010  -2.067   2.401  0.00  0.00    -0.238 F 
ENDROOT
BRANCH  10  22
ATOM     22  C   UNL     1       0.580   0.471  -2.377  0.00  0.00    +0.193 C 
ATOM     23  O   UNL     1       1.326   1.384  -2.639  0.00  0.00    -0.292 OA
BRANCH  22  24
ATOM     24  C   UNL     1      -0.640   0.227  -3.226  0.00  0.00    +0.233 C 
BRANCH  24  25
ATOM     25  O   UNL     1      -0.696   1.200  -4.271  0.00  0.00    -0.387 OA
ATOM     26  H   UNL     1      -1.458   1.104  -4.858  0.00  0.00    +0.210 HD
ENDBRANCH  24  25
ENDBRANCH  22  24
ENDBRANCH  10  22
BRANCH  10  27
ATOM     27  O   UNL     1       0.516  -1.773  -1.484  0.00  0.00    -0.378 OA
ATOM     28  H   UNL     1       0.964  -2.144  -2.256  0.00  0.00    +0.211 HD
ENDBRANCH  10  27
BRANCH   9  29
ATOM     29  O   UNL     1       3.053  -1.515  -1.143  0.00  0.00    -0.388 OA
ATOM     30  H   UNL     1       3.986  -1.519  -0.888  0.00  0.00    +0.210 HD
ENDBRANCH   9  29
BRANCH   4  31
ATOM     31  O   UNL     1      -2.014   1.350   1.692  0.00  0.00    -0.389 OA
ATOM     32  H   UNL     1      -2.621   1.739   1.047  0.00  0.00    +0.210 HD
ENDBRANCH   4  31
TORSDOF 6
