REMARK  Name = ZINC06986053
REMARK  5 active torsions:
REMARK  status: ('A' for Active; 'I' for Inactive)
REMARK    1  A    between atoms: C_1  and  C_2
REMARK    2  A    between atoms: C_9  and  C_13
REMARK    3  A    between atoms: C_13  and  S_14
REMARK    4  A    between atoms: S_14  and  C_15
REMARK    5  A    between atoms: N_20  and  C_21
REMARK                            x       y       z     vdW  Elec       q    Type
REMARK                         _______ _______ _______ _____ _____    ______ ____
ROOT
ATOM      1  S   UNL     1       2.811  -4.877   1.802  0.00  0.00    -0.091 S 
ENDROOT
BRANCH   1   2
ATOM      2  C   UNL     1       2.556  -6.605   1.567  0.00  0.00    +0.160 A 
ATOM      3  N   UNL     1       2.620  -7.316   0.458  0.00  0.00    -0.133 NA
ATOM      4  N   UNL     1       2.386  -8.671   0.500  0.00  0.00    -0.125 NA
ATOM      5  C   UNL     1       2.087  -9.251   1.646  0.00  0.00    +0.187 A 
ATOM      6  S   UNL     1       2.132  -7.860   2.766  0.00  0.00    -0.024 S 
ATOM      7  N   UNL     1       1.811 -10.587   1.912  0.00  0.00    -0.292 N 
ATOM      8  H   UNL     1       1.521 -10.855   2.798  0.00  0.00    +0.154 HD
BRANCH   7   9
ATOM      9  C   UNL     1       1.952 -11.544   0.903  0.00  0.00    +0.033 A 
ATOM     10  C   UNL     1       1.213 -12.719   0.951  0.00  0.00    +0.023 A 
ATOM     11  C   UNL     1       1.351 -13.660  -0.050  0.00  0.00    +0.002 A 
ATOM     12  C   UNL     1       2.231 -13.439  -1.093  0.00  0.00    +0.000 A 
ATOM     13  C   UNL     1       2.973 -12.272  -1.141  0.00  0.00    +0.002 A 
ATOM     14  C   UNL     1       2.836 -11.324  -0.146  0.00  0.00    +0.023 A 
ENDBRANCH   7   9
ENDBRANCH   1   2
BRANCH   1  15
ATOM     15  C   UNL     1       3.205  -4.262   0.142  0.00  0.00    +0.132 C 
BRANCH  15  24
ATOM     16  C   UNL     1       0.112  -0.349   0.615  0.00  0.00    +0.047 C 
ATOM     17  C   UNL     1       1.502   0.226   0.529  0.00  0.00    -0.008 A 
ATOM     18  C   UNL     1       1.693   1.574   0.586  0.00  0.00    +0.008 A 
ATOM     19  C   UNL     1       2.993   2.092   0.503  0.00  0.00    +0.019 A 
ATOM     20  C   UNL     1       4.049   1.260   0.368  0.00  0.00    +0.096 A 
ATOM     21  N   UNL     1       3.869  -0.089   0.311  0.00  0.00    -0.268 N 
ATOM     22  C   UNL     1       2.614  -0.625   0.389  0.00  0.00    +0.143 A 
ATOM     23  N   UNL     1       2.429  -1.943   0.333  0.00  0.00    -0.233 NA
ATOM     24  C   UNL     1       3.450  -2.776   0.201  0.00  0.00    +0.059 A 
ATOM     25  C   UNL     1       4.738  -2.285   0.119  0.00  0.00    +0.094 A 
ATOM     26  C   UNL     1       4.940  -0.901   0.177  0.00  0.00    +0.259 A 
ATOM     27  O   UNL     1       6.066  -0.435   0.107  0.00  0.00    -0.267 OA
ENDBRANCH  15  24
ENDBRANCH   1  15
TORSDOF 4
