REMARK  Name = ZINC40927904
REMARK  4 active torsions:
REMARK  status: ('A' for Active; 'I' for Inactive)
REMARK    1  A    between atoms: C_1  and  C_2
REMARK    2  A    between atoms: C_3  and  N_14
REMARK    3  A    between atoms: N_6  and  C_9
REMARK    4  A    between atoms: N_7  and  C_8
REMARK                            x       y       z     vdW  Elec       q    Type
REMARK                         _______ _______ _______ _____ _____    ______ ____
ROOT
ATOM      1  C   UNL     1      -0.547   1.443   0.003  0.00  0.00    +0.067 C 
ATOM      2  C   UNL     1      -0.231  -0.030  -0.001  0.00  0.00    +0.058 A 
ATOM      3  C   UNL     1      -0.087  -0.802  -1.100  0.00  0.00    +0.112 A 
ATOM      4  C   UNL     1       0.214  -2.159  -0.641  0.00  0.00    +0.288 A 
ATOM      5  O   UNL     1       0.409  -3.135  -1.343  0.00  0.00    -0.264 OA
ATOM      6  N   UNL     1       0.234  -2.123   0.708  0.00  0.00    -0.245 N 
ATOM      7  N   UNL     1      -0.034  -0.810   1.111  0.00  0.00    -0.287 N 
ATOM      8  C   UNL     1      -0.099  -0.344   2.498  0.00  0.00    +0.170 C 
ENDROOT
BRANCH   6   9
ATOM      9  C   UNL     1       0.497  -3.260   1.595  0.00  0.00    +0.109 C 
ATOM     10  C   UNL     1      -0.626  -4.309   1.456  0.00  0.00    +0.027 C 
ATOM     11  C   UNL     1      -0.069  -5.328   0.431  0.00  0.00    +0.002 C 
ATOM     12  C   UNL     1       1.431  -5.407   0.809  0.00  0.00    +0.002 C 
ATOM     13  C   UNL     1       1.805  -3.958   1.184  0.00  0.00    +0.027 C 
ENDBRANCH   6   9
BRANCH   3  14
ATOM     14  N   UNL     1      -0.207  -0.380  -2.441  0.00  0.00    -0.352 N 
ATOM     15  H   UNL     1      -0.411   0.547  -2.641  0.00  0.00    +0.143 HD
ATOM     16  H   UNL     1      -0.085  -1.016  -3.163  0.00  0.00    +0.143 HD
ENDBRANCH   3  14
TORSDOF 2
