REMARK  Name = ZINC06016083
REMARK  10 active torsions:
REMARK  status: ('A' for Active; 'I' for Inactive)
REMARK    1  A    between atoms: C_2  and  C_3
REMARK    2  A    between atoms: C_2  and  N_8
REMARK    3  A    between atoms: N_8  and  O_9
REMARK    4  A    between atoms: O_9  and  C_10
REMARK    5  A    between atoms: C_10  and  C_11
REMARK    6  A    between atoms: C_11  and  N_13
REMARK    7  A    between atoms: N_14  and  C_15
REMARK    8  A    between atoms: N_22  and  C_25
REMARK    9  A    between atoms: C_23  and  O_24
REMARK   10  A    between atoms: C_25  and  N_54
REMARK                            x       y       z     vdW  Elec       q    Type
REMARK                         _______ _______ _______ _____ _____    ______ ____
ROOT
ATOM      1  C   UNL     1       0.261   5.283   0.027  0.00  0.00    +0.152 A 
ATOM      2  C   UNL     1      -0.064   3.841   0.022  0.00  0.00    +0.031 A 
ATOM      3  C   UNL     1      -1.257   3.125   0.029  0.00  0.00    +0.012 A 
ATOM      4  C   UNL     1      -1.226   1.746   0.017  0.00  0.00    +0.001 A 
ATOM      5  C   UNL     1      -0.013   1.076   0.008  0.00  0.00    +0.002 A 
ATOM      6  C   UNL     1       1.176   1.775   0.000  0.00  0.00    +0.026 A 
ATOM      7  C   UNL     1       1.165   3.165   0.007  0.00  0.00    +0.052 A 
ATOM      8  N   UNL     1       2.176   4.113   0.003  0.00  0.00    -0.327 N 
ATOM      9  C   UNL     1       1.660   5.364   0.014  0.00  0.00    +0.220 A 
ENDROOT
BRANCH   1  11
ATOM     10  N   UNL     1      -0.167   7.514   0.042  0.00  0.00    -0.078 NA
ATOM     11  N   UNL     1      -0.602   6.300   0.039  0.00  0.00    -0.151 NA
BRANCH  10  12
ATOM     12  C   UNL     1      -1.034   8.536   0.054  0.00  0.00    +0.282 C 
ATOM     13  O   UNL     1      -2.229   8.319   0.064  0.00  0.00    -0.270 OA
BRANCH  12  14
ATOM     14  C   UNL     1      -0.526   9.955   0.057  0.00  0.00    +0.291 C 
BRANCH  14  15
ATOM     15  O   UNL     1      -1.634  10.858   0.071  0.00  0.00    -0.265 OA
BRANCH  15  16
ATOM     16  N   UNL     1      -1.264  12.224   0.075  0.00  0.00    -0.265 N 
ATOM     17  H   UNL     1      -0.326  12.473   0.068  0.00  0.00    +0.194 HD
BRANCH  16  19
ATOM     18  C   UNL     1      -3.541  12.872   0.098  0.00  0.00    +0.039 C 
ATOM     19  C   UNL     1      -2.248  13.214   0.088  0.00  0.00    +0.068 C 
BRANCH  19  20
ATOM     20  C   UNL     1      -1.862  14.638   0.092  0.00  0.00    +0.037 A 
ATOM     21  C   UNL     1      -2.664  15.750   0.099  0.00  0.00    +0.017 A 
ATOM     22  C   UNL     1      -2.071  16.992   0.105  0.00  0.00    +0.008 A 
ATOM     23  C   UNL     1      -0.715  17.079   0.093  0.00  0.00    +0.046 A 
ATOM     24  S   UNL     1      -0.230  15.361   0.080  0.00  0.00    -0.095 S 
ENDBRANCH  19  20
ENDBRANCH  16  19
ENDBRANCH  15  16
ENDBRANCH  14  15
ENDBRANCH  12  14
ENDBRANCH  10  12
ENDBRANCH   1  11
BRANCH   9  25
ATOM     25  O   UNL     1       2.377   6.506   0.013  0.00  0.00    -0.492 OA
ATOM     26  H   UNL     1       2.619   6.874   0.874  0.00  0.00    +0.294 HD
ENDBRANCH   9  25
BRANCH   8  27
ATOM     27  C   UNL     1       3.608   3.802  -0.012  0.00  0.00    +0.050 C 
BRANCH  27  33
ATOM     28  C   UNL     1       3.466   2.552  -2.082  0.00  0.00    -0.048 C 
ATOM     29  C   UNL     1       3.931   2.524  -3.540  0.00  0.00    +0.141 C 
ATOM     30  O   UNL     1       5.360   2.483  -3.579  0.00  0.00    -0.383 OA
ATOM     31  C   UNL     1       5.985   3.592  -2.926  0.00  0.00    +0.141 C 
ATOM     32  C   UNL     1       5.541   3.631  -1.461  0.00  0.00    -0.048 C 
ATOM     33  N   UNL     1       4.067   3.727  -1.416  0.00  0.00    +0.395 N 
ATOM     34  H   UNL     1       3.772   4.578  -1.909  0.00  0.00    -0.079 HD
ENDBRANCH  27  33
ENDBRANCH   8  27
TORSDOF 10
