REMARK  Name = ZINC03124816
REMARK  12 active torsions:
REMARK  status: ('A' for Active; 'I' for Inactive)
REMARK    1  A    between atoms: C_1  and  C_2
REMARK    2  A    between atoms: C_5  and  N_9
REMARK    3  A    between atoms: C_6  and  C_8
REMARK    4  A    between atoms: N_9  and  C_10
REMARK    5  A    between atoms: C_10  and  N_12
REMARK    6  A    between atoms: N_12  and  C_13
REMARK    7  A    between atoms: C_13  and  C_15
REMARK    8  A    between atoms: C_13  and  N_19
REMARK    9  A    between atoms: C_20  and  C_22
REMARK   10  A    between atoms: C_22  and  C_23
REMARK   11  A    between atoms: C_23  and  C_24
REMARK   12  A    between atoms: C_23  and  C_25
REMARK                            x       y       z     vdW  Elec       q    Type
REMARK                         _______ _______ _______ _____ _____    ______ ____
ROOT
ATOM      1  N   UNL     1      -3.396   1.039  -1.191  0.00  0.00    -0.305 N 
ATOM      2  H   UNL     1      -3.557   1.930  -1.538  0.00  0.00    +0.150 HD
ENDROOT
BRANCH   1   3
ATOM      3  C   UNL     1      -3.373  -0.016  -2.030  0.00  0.00    +0.136 C 
ATOM      4  S   UNL     1      -3.091  -1.590  -1.418  0.00  0.00    -0.019 S 
BRANCH   3   5
ATOM      5  N   UNL     1      -3.573   0.168  -3.350  0.00  0.00    -0.297 N 
ATOM      6  H   UNL     1      -3.812   1.046  -3.687  0.00  0.00    +0.154 HD
BRANCH   5  11
ATOM      7  C   UNL     1      -3.020  -4.193  -6.936  0.00  0.00    +0.044 C 
ATOM      8  C   UNL     1      -3.167  -3.034  -5.984  0.00  0.00    -0.050 A 
ATOM      9  C   UNL     1      -2.226  -2.835  -4.989  0.00  0.00    +0.005 A 
ATOM     10  C   UNL     1      -2.358  -1.775  -4.114  0.00  0.00    +0.024 A 
ATOM     11  C   UNL     1      -3.437  -0.907  -4.234  0.00  0.00    +0.036 A 
ATOM     12  C   UNL     1      -4.381  -1.113  -5.231  0.00  0.00    -0.029 A 
ATOM     13  C   UNL     1      -4.241  -2.173  -6.106  0.00  0.00    +0.008 A 
ATOM     14  C   UNL     1      -5.556  -0.178  -5.361  0.00  0.00    +0.045 C 
ENDBRANCH   5  11
ENDBRANCH   3   5
ENDBRANCH   1   3
BRANCH   1  15
ATOM     15  C   UNL     1      -3.179   0.839   0.244  0.00  0.00    +0.211 C 
BRANCH  15  16
ATOM     16  C   UNL     1      -4.214   1.643   1.033  0.00  0.00    +0.225 C 
ATOM     17 CL   UNL     1      -4.043   3.394   0.637  0.00  0.00    -0.080 Cl
ATOM     18 CL   UNL     1      -5.872   1.087   0.593  0.00  0.00    -0.080 Cl
ATOM     19 CL   UNL     1      -3.947   1.397   2.799  0.00  0.00    -0.080 Cl
ENDBRANCH  15  16
BRANCH  15  20
ATOM     20  N   UNL     1      -1.833   1.291   0.601  0.00  0.00    -0.294 N 
ATOM     21  C   UNL     1      -0.862   0.389   0.849  0.00  0.00    +0.215 C 
ATOM     22  O   UNL     1      -1.104  -0.797   0.776  0.00  0.00    -0.276 OA
ATOM     23  H   UNL     1      -1.639   2.240   0.660  0.00  0.00    +0.151 HD
BRANCH  21  24
ATOM     24  C   UNL     1       0.524   0.855   1.211  0.00  0.00    +0.098 C 
BRANCH  24  25
ATOM     25  C   UNL     1       1.428  -0.360   1.433  0.00  0.00    -0.008 C 
ATOM     26  C   UNL     1       1.588  -1.124   0.117  0.00  0.00    +0.008 C 
ATOM     27  C   UNL     1       2.801   0.108   1.921  0.00  0.00    +0.008 C 
ENDBRANCH  24  25
ENDBRANCH  21  24
ENDBRANCH  15  20
ENDBRANCH   1  15
TORSDOF 8
