REMARK  Name = ZINC09861084
REMARK  7 active torsions:
REMARK  status: ('A' for Active; 'I' for Inactive)
REMARK    1  A    between atoms: C_1  and  O_2
REMARK    2  A    between atoms: O_2  and  C_3
REMARK    3  A    between atoms: C_3  and  C_5
REMARK    4  A    between atoms: C_8  and  C_11
REMARK    5  A    between atoms: C_15  and  C_25
REMARK    6  A    between atoms: C_20  and  N_24
REMARK    7  A    between atoms: C_21  and  C_22
REMARK                            x       y       z     vdW  Elec       q    Type
REMARK                         _______ _______ _______ _____ _____    ______ ____
ROOT
ATOM      1  C   UNL     1       1.090  -6.155  -1.584  0.00  0.00    +0.082 C 
ATOM      2  C   UNL     1       2.485  -6.775  -1.435  0.00  0.00    +0.140 C 
ATOM      3  C   UNL     1       2.838  -6.959   0.024  0.00  0.00    +0.084 C 
ATOM      4  N   UNL     1       2.956  -8.246   0.208  0.00  0.00    -0.150 NA
ATOM      5  N   UNL     1       2.687  -8.973  -0.952  0.00  0.00    -0.115 NA
ATOM      6  C   UNL     1       2.363  -8.206  -1.949  0.00  0.00    +0.227 C 
ATOM      7  O   UNL     1       1.914  -8.466  -3.196  0.00  0.00    -0.425 OA
ATOM      8  C   UNL     1       0.909  -7.652  -3.610  0.00  0.00    +0.200 C 
ATOM      9  C   UNL     1       0.503  -6.575  -2.905  0.00  0.00    +0.095 C 
ENDROOT
BRANCH   3  10
ATOM     10  C   UNL     1       3.014  -5.901   1.031  0.00  0.00    -0.001 A 
ATOM     11  C   UNL     1       3.376  -4.602   0.625  0.00  0.00    +0.010 A 
ATOM     12  C   UNL     1       3.545  -3.611   1.536  0.00  0.00    +0.009 A 
ATOM     13  C   UNL     1       3.358  -3.873   2.906  0.00  0.00    -0.018 A 
ATOM     14  C   UNL     1       3.526  -2.862   3.866  0.00  0.00    +0.008 A 
ATOM     15  C   UNL     1       3.338  -3.145   5.185  0.00  0.00    +0.001 A 
ATOM     16  C   UNL     1       2.981  -4.426   5.601  0.00  0.00    +0.001 A 
ATOM     17  C   UNL     1       2.809  -5.432   4.700  0.00  0.00    +0.008 A 
ATOM     18  C   UNL     1       2.993  -5.177   3.329  0.00  0.00    -0.017 A 
ATOM     19  C   UNL     1       2.818  -6.189   2.374  0.00  0.00    +0.018 A 
ENDBRANCH   3  10
BRANCH   1  23
ATOM     20  C   UNL     1       1.396  -1.892  -1.444  0.00  0.00    +0.059 A 
ATOM     21  C   UNL     1       0.623  -2.571  -0.500  0.00  0.00    +0.015 A 
ATOM     22  C   UNL     1       0.529  -3.946  -0.551  0.00  0.00    +0.005 A 
ATOM     23  C   UNL     1       1.198  -4.653  -1.535  0.00  0.00    -0.038 A 
ATOM     24  C   UNL     1       1.966  -3.986  -2.473  0.00  0.00    +0.005 A 
ATOM     25  C   UNL     1       2.065  -2.611  -2.437  0.00  0.00    +0.015 A 
BRANCH  20  26
ATOM     26  C   UNL     1       1.502  -0.419  -1.396  0.00  0.00    +0.339 C 
ATOM     27  O   UNL     1       2.171   0.169  -2.221  0.00  0.00    -0.245 OA
BRANCH  26  29
ATOM     28  C   UNL     1       1.002   1.692  -0.450  0.00  0.00    +0.280 C 
ATOM     29  O   UNL     1       0.856   0.271  -0.436  0.00  0.00    -0.464 OA
ENDBRANCH  26  29
ENDBRANCH  20  26
ENDBRANCH   1  23
BRANCH   8  30
ATOM     30  N   UNL     1       0.279  -7.936  -4.795  0.00  0.00    -0.328 N 
ATOM     31  H   UNL     1       0.553  -8.706  -5.318  0.00  0.00    +0.145 HD
ATOM     32  H   UNL     1      -0.442  -7.368  -5.110  0.00  0.00    +0.145 HD
ENDBRANCH   8  30
BRANCH   9  33
ATOM     33  C   UNL     1      -0.555  -5.778  -3.449  0.00  0.00    +0.100 C 
ATOM     34  N   UNL     1      -1.394  -5.146  -3.881  0.00  0.00    -0.191 NA
ENDBRANCH   9  33
TORSDOF 6
