REMARK  Name = ZINC45650791
REMARK  7 active torsions:
REMARK  status: ('A' for Active; 'I' for Inactive)
REMARK    1  A    between atoms: C_1  and  C_2
REMARK    2  A    between atoms: C_3  and  C_29
REMARK    3  A    between atoms: C_5  and  S_7
REMARK    4  A    between atoms: S_7  and  C_8
REMARK    5  A    between atoms: C_15  and  C_17
REMARK    6  A    between atoms: C_24  and  C_28
REMARK    7  A    between atoms: C_29  and  C_30
REMARK                            x       y       z     vdW  Elec       q    Type
REMARK                         _______ _______ _______ _____ _____    ______ ____
ROOT
ATOM      1  C   UNL     1       0.192  -2.080   3.882  0.00  0.00    +0.116 A 
ATOM      2  C   UNL     1       0.447  -2.610   5.180  0.00  0.00    +0.043 A 
ATOM      3  C   UNL     1       0.711  -3.996   5.565  0.00  0.00    -0.025 A 
ATOM      4  C   UNL     1       0.922  -4.238   6.876  0.00  0.00    -0.004 A 
ATOM      5  S   UNL     1       0.784  -2.657   7.666  0.00  0.00    -0.073 S 
ATOM      6  C   UNL     1       0.445  -1.670   6.232  0.00  0.00    +0.114 A 
ATOM      7  N   UNL     1       0.224  -0.390   6.014  0.00  0.00    -0.220 NA
ATOM      8  C   UNL     1      -0.007   0.049   4.782  0.00  0.00    +0.164 A 
ATOM      9  N   UNL     1      -0.017  -0.781   3.745  0.00  0.00    -0.220 NA
ATOM     10  C   UNL     1       1.211  -5.559   7.520  0.00  0.00    +0.046 C 
ATOM     11  C   UNL     1       1.603  -6.558   6.421  0.00  0.00    -0.009 C 
ATOM     12  C   UNL     1       0.583  -6.462   5.283  0.00  0.00    +0.008 C 
ATOM     13  C   UNL     1       0.750  -5.132   4.547  0.00  0.00    +0.037 C 
ATOM     14  C   UNL     1       1.606  -7.977   6.994  0.00  0.00    +0.008 C 
ENDROOT
BRANCH   8  15
ATOM     15  C   UNL     1      -0.254   1.494   4.560  0.00  0.00    +0.037 A 
ATOM     16  C   UNL     1      -0.353   2.006   3.262  0.00  0.00    +0.014 A 
ATOM     17  C   UNL     1      -0.584   3.362   3.108  0.00  0.00    +0.020 A 
ATOM     18  C   UNL     1      -0.708   4.160   4.231  0.00  0.00    +0.111 A 
ATOM     19  N   UNL     1      -0.610   3.648   5.443  0.00  0.00    -0.263 NA
ATOM     20  C   UNL     1      -0.396   2.363   5.640  0.00  0.00    +0.122 A 
ENDBRANCH   8  15
BRANCH   1  21
ATOM     21  S   UNL     1       0.163  -3.141   2.476  0.00  0.00    -0.042 S 
BRANCH  21  26
ATOM     22  C   UNL     1      -1.078   1.366   0.097  0.00  0.00    +0.066 C 
ATOM     23  C   UNL     1      -0.728  -0.099   0.062  0.00  0.00    +0.050 A 
ATOM     24  C   UNL     1      -0.641  -0.778  -1.107  0.00  0.00    +0.022 A 
ATOM     25  S   UNL     1      -0.209  -2.407  -0.515  0.00  0.00    -0.065 S 
ATOM     26  C   UNL     1      -0.186  -2.057   1.131  0.00  0.00    +0.141 A 
ATOM     27  N   UNL     1      -0.487  -0.776   1.170  0.00  0.00    -0.237 NA
BRANCH  24  28
ATOM     28  C   UNL     1      -0.850  -0.294  -2.518  0.00  0.00    +0.139 C 
BRANCH  28  29
ATOM     29  C   UNL     1       0.459   0.200  -3.079  0.00  0.00    +0.215 C 
ATOM     30  O   UNL     1       1.462   0.162  -2.400  0.00  0.00    -0.276 OA
ATOM     31  N   UNL     1       0.513   0.684  -4.336  0.00  0.00    -0.329 N 
ATOM     32  H   UNL     1      -0.289   0.715  -4.879  0.00  0.00    +0.145 HD
ATOM     33  H   UNL     1       1.356   1.002  -4.697  0.00  0.00    +0.145 HD
ENDBRANCH  28  29
ENDBRANCH  24  28
ENDBRANCH  21  26
ENDBRANCH   1  21
TORSDOF 5
