REMARK  Name = ZINC63530355
REMARK  4 active torsions:
REMARK  status: ('A' for Active; 'I' for Inactive)
REMARK    1  A    between atoms: C_6  and  C_19
REMARK    2  A    between atoms: C_8  and  S_11
REMARK    3  A    between atoms: S_11  and  C_12
REMARK    4  A    between atoms: N_21  and  C_22
REMARK                            x       y       z     vdW  Elec       q    Type
REMARK                         _______ _______ _______ _____ _____    ______ ____
ROOT
ATOM      1  C   UNL     1       0.103   1.341   0.460  0.00  0.00    +0.001 A 
ATOM      2  C   UNL     1       1.291   2.069   0.376  0.00  0.00    +0.002 A 
ATOM      3  C   UNL     1       2.487   1.464   0.167  0.00  0.00    +0.026 A 
ATOM      4  C   UNL     1       2.550   0.055   0.029  0.00  0.00    +0.044 A 
ATOM      5  N   UNL     1       3.571  -0.757  -0.176  0.00  0.00    -0.369 N 
ATOM      6  C   UNL     1       3.082  -2.138  -0.240  0.00  0.00    +0.204 C 
ATOM      7  C   UNL     1       1.585  -2.060  -0.042  0.00  0.00    +0.030 C 
ATOM      8  C   UNL     1       1.296  -0.708   0.119  0.00  0.00    +0.010 A 
ATOM      9  C   UNL     1       0.088  -0.011   0.338  0.00  0.00    +0.011 A 
ATOM     10  H   UNL     1       4.497  -0.484  -0.270  0.00  0.00    +0.161 HD
ENDROOT
BRANCH   6  11
ATOM     11  C   UNL     1       3.398  -2.738  -1.586  0.00  0.00    +0.241 C 
ATOM     12  O   UNL     1       3.662  -2.017  -2.525  0.00  0.00    -0.273 OA
ATOM     13  N   UNL     1       3.386  -4.076  -1.747  0.00  0.00    -0.310 N 
ATOM     14  H   UNL     1       3.175  -4.653  -0.996  0.00  0.00    +0.149 HD
BRANCH  13  15
ATOM     15  C   UNL     1       3.693  -4.660  -3.055  0.00  0.00    +0.073 C 
ATOM     16  C   UNL     1       2.408  -4.765  -3.901  0.00  0.00    +0.022 C 
ATOM     17  C   UNL     1       2.571  -6.097  -4.675  0.00  0.00    +0.002 C 
ATOM     18  C   UNL     1       3.243  -7.020  -3.628  0.00  0.00    +0.002 C 
ATOM     19  C   UNL     1       4.224  -6.093  -2.881  0.00  0.00    +0.022 C 
ENDBRANCH  13  15
ENDBRANCH   6  11
BRANCH   7  20
ATOM     20  S   UNL     1       0.509  -3.324  -0.020  0.00  0.00    -0.091 S 
BRANCH  20  21
ATOM     21  C   UNL     1       0.914  -4.203   1.452  0.00  0.00    +0.013 A 
ATOM     22  C   UNL     1       1.852  -3.686   2.336  0.00  0.00    +0.016 A 
ATOM     23  C   UNL     1       2.167  -4.377   3.489  0.00  0.00    +0.021 A 
ATOM     24  C   UNL     1       1.550  -5.585   3.764  0.00  0.00    +0.041 A 
ATOM     25  C   UNL     1       0.616  -6.104   2.884  0.00  0.00    +0.021 A 
ATOM     26  C   UNL     1       0.291  -5.413   1.733  0.00  0.00    +0.016 A 
ATOM     27 CL   UNL     1       1.949  -6.452   5.214  0.00  0.00    -0.084 Cl
ENDBRANCH  20  21
ENDBRANCH   7  20
TORSDOF 4
