REMARK  Name = ZINC36161524
REMARK  14 active torsions:
REMARK  status: ('A' for Active; 'I' for Inactive)
REMARK    1  A    between atoms: C_1  and  C_2
REMARK    2  A    between atoms: C_15  and  C_17
REMARK    3  A    between atoms: C_17  and  N_18
REMARK    4  A    between atoms: N_18  and  C_19
REMARK    5  A    between atoms: N_18  and  C_24
REMARK    6  A    between atoms: C_19  and  C_20
REMARK    7  A    between atoms: C_20  and  C_21
REMARK    8  A    between atoms: C_21  and  O_22
REMARK    9  A    between atoms: O_22  and  C_23
REMARK   10  A    between atoms: C_24  and  C_25
REMARK   11  A    between atoms: C_25  and  C_27
REMARK   12  A    between atoms: C_25  and  O_36
REMARK   13  A    between atoms: C_27  and  O_28
REMARK   14  A    between atoms: O_28  and  C_29
REMARK                            x       y       z     vdW  Elec       q    Type
REMARK                         _______ _______ _______ _____ _____    ______ ____
ROOT
ATOM      1  N   UNL     1       1.017  -8.452   3.181  0.00  0.00    +0.386 N 
ATOM      2  H   UNL     1       1.960  -8.261   2.878  0.00  0.00    -0.081 HD
ENDROOT
BRANCH   1   3
ATOM      3  C   UNL     1       0.079  -8.111   2.103  0.00  0.00    -0.003 C 
BRANCH   3  17
ATOM      4  C   UNL     1       2.253   1.358  -0.077  0.00  0.00    +0.008 C 
ATOM      5  C   UNL     1       2.000  -0.151  -0.089  0.00  0.00    -0.009 C 
ATOM      6  C   UNL     1       0.498  -0.419  -0.218  0.00  0.00    +0.008 C 
ATOM      7  C   UNL     1       0.257  -1.906  -0.481  0.00  0.00    +0.037 C 
ATOM      8  C   UNL     1       0.976  -2.720   0.591  0.00  0.00    -0.023 A 
ATOM      9  C   UNL     1       1.970  -2.165   1.325  0.00  0.00    -0.004 A 
ATOM     10  S   UNL     1       2.507  -3.450   2.426  0.00  0.00    -0.073 S 
ATOM     11  C   UNL     1       1.403  -4.723   1.902  0.00  0.00    +0.116 A 
ATOM     12  C   UNL     1       0.648  -4.104   0.882  0.00  0.00    +0.075 A 
ATOM     13  C   UNL     1      -0.360  -4.901   0.242  0.00  0.00    +0.260 A 
ATOM     14  O   UNL     1      -1.066  -4.462  -0.649  0.00  0.00    -0.267 OA
ATOM     15  N   UNL     1      -0.477  -6.173   0.693  0.00  0.00    -0.312 N 
ATOM     16  H   UNL     1      -1.146  -6.747   0.288  0.00  0.00    +0.170 HD
ATOM     17  C   UNL     1       0.297  -6.680   1.682  0.00  0.00    +0.094 A 
ATOM     18  N   UNL     1       1.230  -5.982   2.292  0.00  0.00    -0.229 NA
ATOM     19  C   UNL     1       2.502  -0.768   1.224  0.00  0.00    +0.046 C 
ENDBRANCH   3  17
ENDBRANCH   1   3
BRANCH   1  20
ATOM     20  C   UNL     1       0.711  -7.646   4.370  0.00  0.00    -0.076 C 
BRANCH  20  21
ATOM     21  C   UNL     1      -0.688  -7.998   4.879  0.00  0.00    +0.009 C 
BRANCH  21  22
ATOM     22  C   UNL     1      -1.035  -7.107   6.074  0.00  0.00    +0.157 C 
BRANCH  22  23
ATOM     23  O   UNL     1      -2.342  -7.436   6.550  0.00  0.00    -0.383 OA
ATOM     24  C   UNL     1      -2.765  -6.658   7.671  0.00  0.00    +0.193 C 
ENDBRANCH  22  23
ENDBRANCH  21  22
ENDBRANCH  20  21
ENDBRANCH   1  20
BRANCH   1  25
ATOM     25  C   UNL     1       0.887  -9.878   3.510  0.00  0.00    -0.043 C 
BRANCH  25  26
ATOM     26  C   UNL     1       1.946 -10.261   4.545  0.00  0.00    +0.135 C 
BRANCH  26  27
ATOM     27  O   UNL     1       3.247 -10.005   4.013  0.00  0.00    -0.390 OA
ATOM     28  H   UNL     1       3.446 -10.499   3.206  0.00  0.00    +0.210 HD
ENDBRANCH  26  27
BRANCH  26  29
ATOM     29  C   UNL     1       1.816 -11.748   4.881  0.00  0.00    +0.258 C 
BRANCH  29  30
ATOM     30  O   UNL     1       2.726 -12.081   5.932  0.00  0.00    -0.489 OA
BRANCH  30  31
ATOM     31  C   UNL     1       2.737 -13.373   6.353  0.00  0.00    +0.121 A 
ATOM     32  C   UNL     1       1.893 -14.303   5.763  0.00  0.00    +0.047 A 
ATOM     33  C   UNL     1       1.906 -15.616   6.192  0.00  0.00    +0.023 A 
ATOM     34  C   UNL     1       2.759 -16.003   7.210  0.00  0.00    +0.041 A 
ATOM     35  C   UNL     1       3.601 -15.077   7.800  0.00  0.00    +0.023 A 
ATOM     36  C   UNL     1       3.596 -13.765   7.369  0.00  0.00    +0.047 A 
ATOM     37 CL   UNL     1       2.773 -17.654   7.748  0.00  0.00    -0.084 Cl
ENDBRANCH  30  31
ENDBRANCH  29  30
ENDBRANCH  26  29
ENDBRANCH  25  26
ENDBRANCH   1  25
TORSDOF 12
