REMARK  Name = ZINC48622337
REMARK  3 active torsions:
REMARK  status: ('A' for Active; 'I' for Inactive)
REMARK    1  A    between atoms: C_1  and  C_2
REMARK    2  A    between atoms: C_2  and  N_3
REMARK    3  A    between atoms: C_4  and  C_16
REMARK                            x       y       z     vdW  Elec       q    Type
REMARK                         _______ _______ _______ _____ _____    ______ ____
ROOT
ATOM      1  N   UNL     1      -1.372  -0.511   0.012  0.00  0.00    -0.279 N 
ATOM      2  C   UNL     1      -2.036  -0.761   1.292  0.00  0.00    +0.164 C 
ATOM      3  N   UNL     1      -3.482  -0.538   1.167  0.00  0.00    -0.325 N 
ATOM      4  C   UNL     1      -4.139  -1.048   0.053  0.00  0.00    +0.042 A 
ATOM      5  C   UNL     1      -5.467  -1.431   0.098  0.00  0.00    +0.043 A 
ATOM      6  C   UNL     1      -6.072  -1.938  -1.038  0.00  0.00    +0.043 A 
ATOM      7  C   UNL     1      -5.356  -2.065  -2.220  0.00  0.00    +0.021 A 
ATOM      8  C   UNL     1      -4.032  -1.684  -2.281  0.00  0.00    +0.016 A 
ATOM      9  C   UNL     1      -3.412  -1.170  -1.145  0.00  0.00    +0.058 A 
ATOM     10  C   UNL     1      -2.005  -0.734  -1.158  0.00  0.00    +0.250 C 
ATOM     11  O   UNL     1      -1.419  -0.581  -2.213  0.00  0.00    -0.270 OA
ATOM     12 CL   UNL     1      -7.739  -2.420  -0.984  0.00  0.00    -0.083 Cl
ATOM     13  H   UNL     1      -3.967  -0.045   1.847  0.00  0.00    +0.148 HD
ENDROOT
BRANCH   2  14
ATOM     14  C   UNL     1      -1.785  -2.208   1.719  0.00  0.00    +0.028 C 
ATOM     15  C   UNL     1      -2.478  -2.473   3.057  0.00  0.00    +0.007 C 
ATOM     16  C   UNL     1      -2.227  -3.921   3.484  0.00  0.00    +0.000 C 
ATOM     17  C   UNL     1      -0.722  -4.155   3.633  0.00  0.00    +0.000 C 
ATOM     18  C   UNL     1      -0.029  -3.890   2.295  0.00  0.00    +0.000 C 
ATOM     19  C   UNL     1      -0.280  -2.443   1.868  0.00  0.00    +0.007 C 
ENDBRANCH   2  14
BRANCH   1  21
ATOM     20  C   UNL     1      -0.019   1.526   0.010  0.00  0.00    +0.024 C 
ATOM     21  C   UNL     1       0.002  -0.004   0.002  0.00  0.00    +0.106 C 
ENDBRANCH   1  21
TORSDOF 2
