REMARK  Name = ZINC21535872
REMARK  6 active torsions:
REMARK  status: ('A' for Active; 'I' for Inactive)
REMARK    1  A    between atoms: C_3  and  C_6
REMARK    2  A    between atoms: C_6  and  N_7
REMARK    3  A    between atoms: C_10  and  C_13
REMARK    4  A    between atoms: C_13  and  N_14
REMARK    5  A    between atoms: N_14  and  S_15
REMARK    6  A    between atoms: S_15  and  C_18
REMARK                            x       y       z     vdW  Elec       q    Type
REMARK                         _______ _______ _______ _____ _____    ______ ____
ROOT
ATOM      1  N   UNL     1      -4.348  -1.239   1.547  0.00  0.00    -0.190 NA
ATOM      2  H   UNL     1      -4.208  -2.242   1.975  0.00  0.00    +0.148 HD
ENDROOT
BRANCH   1   3
ATOM      3  S   UNL     1      -3.921  -0.965  -0.029  0.00  0.00    +0.058 S 
ATOM      4  O   UNL     1      -4.912  -0.105  -0.575  0.00  0.00    -0.153 OA
ATOM      5  O   UNL     1      -3.618  -2.233  -0.594  0.00  0.00    -0.153 OA
BRANCH   3   6
ATOM      6  C   UNL     1      -2.416  -0.049  -0.010  0.00  0.00    +0.106 A 
ATOM      7  C   UNL     1      -2.441   1.334   0.007  0.00  0.00    +0.030 A 
ATOM      8  C   UNL     1      -1.259   2.033   0.017  0.00  0.00    +0.025 A 
ATOM      9  C   UNL     1      -0.017   1.374   0.010  0.00  0.00    +0.037 A 
ATOM     10  C   UNL     1       0.002  -0.004   0.002  0.00  0.00    -0.024 A 
ATOM     11  C   UNL     1      -1.206  -0.704  -0.012  0.00  0.00    +0.034 A 
ATOM     12  C   UNL     1       1.234  -0.850   0.011  0.00  0.00    +0.037 C 
ATOM     13  C   UNL     1       2.382  -0.319   0.811  0.00  0.00    +0.014 C 
ATOM     14  C   UNL     1       3.136   0.791   0.119  0.00  0.00    +0.096 C 
ATOM     15  C   UNL     1       2.369   2.065   0.115  0.00  0.00    +0.217 C 
ATOM     16  O   UNL     1       3.016   3.084   0.229  0.00  0.00    -0.275 OA
ATOM     17  N   UNL     1       1.079   2.206   0.004  0.00  0.00    -0.285 N 
ATOM     18  H   UNL     1       0.945   3.291  -0.121  0.00  0.00    +0.155 HD
ENDBRANCH   3   6
ENDBRANCH   1   3
BRANCH   1  19
ATOM     19  C   UNL     1      -4.697  -0.114   2.418  0.00  0.00    +0.109 C 
BRANCH  19  23
ATOM     20  N   UNL     1      -7.683  -0.592   5.439  0.00  0.00    +0.384 N 
ATOM     21  C   UNL     1      -6.409   0.002   5.864  0.00  0.00    -0.078 C 
ATOM     22  C   UNL     1      -5.653   0.522   4.639  0.00  0.00    -0.014 C 
ATOM     23  C   UNL     1      -5.399  -0.638   3.672  0.00  0.00    +0.001 C 
ATOM     24  C   UNL     1      -6.738  -1.270   3.283  0.00  0.00    -0.014 C 
ATOM     25  C   UNL     1      -7.462  -1.738   4.547  0.00  0.00    -0.078 C 
ATOM     26  H   UNL     1      -8.237   0.171   4.873  0.00  0.00    -0.081 HD
BRANCH  20  27
ATOM     27  C   UNL     1      -8.497  -0.977   6.599  0.00  0.00    -0.003 C 
BRANCH  27  30
ATOM     28  C   UNL     1     -11.649  -2.479   5.420  0.00  0.00    +0.041 A 
ATOM     29  C   UNL     1     -10.286  -2.583   5.779  0.00  0.00    +0.042 A 
ATOM     30  C   UNL     1      -9.882  -1.351   6.139  0.00  0.00    +0.089 A 
ATOM     31  O   UNL     1     -10.925  -0.513   6.023  0.00  0.00    -0.470 OA
ATOM     32  C   UNL     1     -11.998  -1.190   5.582  0.00  0.00    +0.195 A 
ENDBRANCH  27  30
ENDBRANCH  20  27
ENDBRANCH  19  23
ENDBRANCH   1  19
TORSDOF 6
