REMARK  Name = ZINC46841850
REMARK  10 active torsions:
REMARK  status: ('A' for Active; 'I' for Inactive)
REMARK    1  A    between atoms: C_1  and  C_2
REMARK    2  A    between atoms: C_7  and  C_10
REMARK    3  A    between atoms: C_14  and  C_17
REMARK    4  A    between atoms: C_17  and  N_18
REMARK    5  A    between atoms: C_19  and  C_21
REMARK    6  A    between atoms: C_21  and  C_23
REMARK    7  A    between atoms: C_21  and  N_26
REMARK    8  A    between atoms: C_23  and  C_24
REMARK    9  A    between atoms: C_23  and  C_25
REMARK   10  A    between atoms: C_27  and  C_29
REMARK                            x       y       z     vdW  Elec       q    Type
REMARK                         _______ _______ _______ _____ _____    ______ ____
ROOT
ATOM      1  N   UNL     1      -3.339  -5.752  -4.393  0.00  0.00    -0.310 N 
ATOM      2  C   UNL     1      -3.807  -6.623  -5.309  0.00  0.00    +0.234 C 
ATOM      3  O   UNL     1      -4.926  -7.076  -5.198  0.00  0.00    -0.274 OA
ATOM      4  H   UNL     1      -2.474  -5.332  -4.521  0.00  0.00    +0.149 HD
ENDROOT
BRANCH   1   5
ATOM      5  C   UNL     1      -4.136  -5.440  -3.204  0.00  0.00    +0.141 C 
BRANCH   5  17
ATOM      6  C   UNL     1       0.096   1.651  -0.241  0.00  0.00    +0.039 C 
ATOM      7  C   UNL     1       0.103   0.122  -0.200  0.00  0.00    +0.133 C 
ATOM      8  C   UNL     1      -1.339  -0.397  -0.167  0.00  0.00    +0.137 C 
ATOM      9  N   UNL     1      -1.304  -1.850   0.061  0.00  0.00    -0.312 N 
ATOM     10  C   UNL     1      -0.496  -2.356   1.182  0.00  0.00    +0.137 C 
ATOM     11  C   UNL     1       0.905  -1.742   1.083  0.00  0.00    +0.133 C 
ATOM     12  O   UNL     1       0.791  -0.321   0.973  0.00  0.00    -0.371 OA
ATOM     13  C   UNL     1       1.708  -2.095   2.336  0.00  0.00    +0.039 C 
ATOM     14  C   UNL     1      -2.015  -2.720  -0.758  0.00  0.00    +0.099 A 
ATOM     15  C   UNL     1      -2.871  -2.208  -1.729  0.00  0.00    +0.042 A 
ATOM     16  C   UNL     1      -3.572  -3.084  -2.537  0.00  0.00    +0.010 A 
ATOM     17  C   UNL     1      -3.392  -4.449  -2.347  0.00  0.00    -0.014 A 
ATOM     18  C   UNL     1      -2.527  -4.887  -1.365  0.00  0.00    +0.089 A 
ATOM     19  N   UNL     1      -1.867  -4.027  -0.612  0.00  0.00    -0.349 N 
ATOM     20  H   UNL     1      -1.262  -4.362   0.068  0.00  0.00    +0.167 HD
ENDBRANCH   5  17
ENDBRANCH   1   5
BRANCH   2  21
ATOM     21  C   UNL     1      -2.940  -7.032  -6.472  0.00  0.00    +0.162 C 
BRANCH  21  22
ATOM     22  N   UNL     1      -3.789  -7.438  -7.595  0.00  0.00    -0.299 N 
ATOM     23  C   UNL     1      -3.321  -7.362  -8.856  0.00  0.00    +0.251 C 
ATOM     24  O   UNL     1      -2.192  -6.955  -9.062  0.00  0.00    -0.270 OA
ATOM     25  H   UNL     1      -4.689  -7.762  -7.431  0.00  0.00    +0.150 HD
BRANCH  23  26
ATOM     26  C   UNL     1      -4.170  -7.768  -9.980  0.00  0.00    +0.074 A 
ATOM     27  C   UNL     1      -3.882  -7.772 -11.336  0.00  0.00    +0.021 A 
ATOM     28  C   UNL     1      -4.891  -8.213 -12.159  0.00  0.00    +0.008 A 
ATOM     29  C   UNL     1      -6.067  -8.603 -11.609  0.00  0.00    +0.046 A 
ATOM     30  S   UNL     1      -5.840  -8.392  -9.958  0.00  0.00    -0.092 S 
ENDBRANCH  23  26
ENDBRANCH  21  22
BRANCH  21  31
ATOM     31  C   UNL     1      -2.050  -8.204  -6.056  0.00  0.00    +0.012 C 
ATOM     32  C   UNL     1      -1.243  -8.686  -7.264  0.00  0.00    +0.009 C 
ATOM     33  C   UNL     1      -1.093  -7.751  -4.952  0.00  0.00    +0.009 C 
ENDBRANCH  21  31
ENDBRANCH   2  21
TORSDOF 6
