REMARK  Name = ZINC04317760
REMARK  7 active torsions:
REMARK  status: ('A' for Active; 'I' for Inactive)
REMARK    1  A    between atoms: C_1  and  C_2
REMARK    2  A    between atoms: C_2  and  C_3
REMARK    3  A    between atoms: C_3  and  C_4
REMARK    4  A    between atoms: C_4  and  N_5
REMARK    5  A    between atoms: C_9  and  N_13
REMARK    6  A    between atoms: N_13  and  C_14
REMARK    7  A    between atoms: C_17  and  N_20
REMARK                            x       y       z     vdW  Elec       q    Type
REMARK                         _______ _______ _______ _____ _____    ______ ____
ROOT
ATOM      1  N   UNL     1       3.692  -4.553  -3.844  0.00  0.00    -0.333 N 
ATOM      2  H   UNL     1       3.114  -5.327  -3.922  0.00  0.00    +0.147 HD
ENDROOT
BRANCH   1   7
ATOM      3  N   UNL     1       1.420  -2.519  -2.450  0.00  0.00    -0.241 N 
ATOM      4  C   UNL     1       0.782  -2.745  -3.605  0.00  0.00    +0.224 C 
ATOM      5  O   UNL     1      -0.408  -2.603  -3.789  0.00  0.00    -0.275 OA
ATOM      6  C   UNL     1       1.781  -3.204  -4.644  0.00  0.00    +0.128 C 
ATOM      7  C   UNL     1       3.122  -3.205  -3.882  0.00  0.00    +0.166 C 
ATOM      8  C   UNL     1       2.740  -2.740  -2.493  0.00  0.00    +0.243 C 
ATOM      9  O   UNL     1       3.507  -2.594  -1.566  0.00  0.00    -0.273 OA
BRANCH   3  10
ATOM     10  C   UNL     1       0.732  -2.061  -1.240  0.00  0.00    +0.116 C 
BRANCH  10  11
ATOM     11  C   UNL     1       0.709  -0.531  -1.214  0.00  0.00    +0.019 C 
BRANCH  11  13
ATOM     12  C   UNL     1      -0.032   1.476   0.075  0.00  0.00    +0.004 C 
ATOM     13  C   UNL     1      -0.009  -0.054   0.049  0.00  0.00    -0.002 C 
ENDBRANCH  11  13
ENDBRANCH  10  11
ENDBRANCH   3  10
ENDBRANCH   1   7
BRANCH   1  14
ATOM     14  C   UNL     1       5.074  -4.725  -3.694  0.00  0.00    +0.028 A 
ATOM     15  C   UNL     1       5.902  -3.616  -3.575  0.00  0.00    +0.025 A 
ATOM     16  C   UNL     1       7.265  -3.785  -3.428  0.00  0.00    +0.025 A 
ATOM     17  C   UNL     1       7.806  -5.064  -3.397  0.00  0.00    +0.030 A 
ATOM     18  C   UNL     1       6.978  -6.172  -3.515  0.00  0.00    +0.025 A 
ATOM     19  C   UNL     1       5.615  -6.003  -3.658  0.00  0.00    +0.025 A 
BRANCH  17  20
ATOM     20  N   UNL     1       9.188  -5.235  -3.248  0.00  0.00    -0.326 N 
ATOM     21  C   UNL     1       9.773  -6.576  -3.095  0.00  0.00    +0.133 C 
ATOM     22  C   UNL     1      10.919  -6.722  -4.103  0.00  0.00    +0.178 C 
ATOM     23  O   UNL     1      11.816  -5.618  -3.959  0.00  0.00    -0.377 OA
ATOM     24  C   UNL     1      11.228  -4.346  -4.241  0.00  0.00    +0.178 C 
ATOM     25  C   UNL     1      10.099  -4.079  -3.246  0.00  0.00    +0.133 C 
ENDBRANCH  17  20
ENDBRANCH   1  14
TORSDOF 6
