REMARK  Name = ZINC01372523
REMARK  10 active torsions:
REMARK  status: ('A' for Active; 'I' for Inactive)
REMARK    1  A    between atoms: C_1  and  C_2
REMARK    2  A    between atoms: C_7  and  C_8
REMARK    3  A    between atoms: C_8  and  C_10
REMARK    4  A    between atoms: C_8  and  N_20
REMARK    5  A    between atoms: N_12  and  C_13
REMARK    6  A    between atoms: C_13  and  C_14
REMARK    7  A    between atoms: N_20  and  C_21
REMARK    8  A    between atoms: C_21  and  C_22
REMARK    9  A    between atoms: C_27  and  C_29
REMARK   10  A    between atoms: C_29  and  N_30
REMARK                            x       y       z     vdW  Elec       q    Type
REMARK                         _______ _______ _______ _____ _____    ______ ____
ROOT
ATOM      1  C   UNL     1      -5.276   3.503  -3.098  0.00  0.00    +0.193 C 
ENDROOT
BRANCH   1   8
ATOM      2  C   UNL     1      -4.509   0.864  -3.991  0.00  0.00    +0.044 C 
ATOM      3  C   UNL     1      -5.966   1.212  -3.834  0.00  0.00    -0.045 A 
ATOM      4  C   UNL     1      -6.937   0.267  -4.113  0.00  0.00    +0.004 A 
ATOM      5  C   UNL     1      -8.274   0.588  -3.975  0.00  0.00    +0.000 A 
ATOM      6  C   UNL     1      -8.641   1.852  -3.552  0.00  0.00    +0.000 A 
ATOM      7  C   UNL     1      -7.671   2.796  -3.269  0.00  0.00    +0.006 A 
ATOM      8  C   UNL     1      -6.334   2.474  -3.407  0.00  0.00    -0.015 A 
ENDBRANCH   1   8
BRANCH   1   9
ATOM      9  C   UNL     1      -5.902   4.873  -3.064  0.00  0.00    +0.238 C 
ATOM     10  O   UNL     1      -6.194   5.380  -2.002  0.00  0.00    -0.273 OA
ATOM     11  N   UNL     1      -6.139   5.535  -4.214  0.00  0.00    -0.309 N 
ATOM     12  H   UNL     1      -5.976   5.100  -5.066  0.00  0.00    +0.149 HD
BRANCH  11  13
ATOM     13  C   UNL     1      -6.641   6.910  -4.178  0.00  0.00    +0.139 C 
BRANCH  13  14
ATOM     14  C   UNL     1      -6.820   7.417  -5.586  0.00  0.00    -0.030 A 
ATOM     15  C   UNL     1      -5.779   8.066  -6.224  0.00  0.00    +0.005 A 
ATOM     16  C   UNL     1      -5.941   8.526  -7.517  0.00  0.00    +0.000 A 
ATOM     17  C   UNL     1      -7.147   8.348  -8.168  0.00  0.00    +0.000 A 
ATOM     18  C   UNL     1      -8.190   7.704  -7.528  0.00  0.00    +0.000 A 
ATOM     19  C   UNL     1      -8.026   7.239  -6.237  0.00  0.00    +0.005 A 
ENDBRANCH  13  14
ENDBRANCH  11  13
ENDBRANCH   1   9
BRANCH   1  20
ATOM     20  N   UNL     1      -4.674   3.208  -1.796  0.00  0.00    -0.280 N 
ATOM     21  C   UNL     1      -3.607   3.914  -1.371  0.00  0.00    +0.238 C 
ATOM     22  O   UNL     1      -3.145   4.792  -2.068  0.00  0.00    -0.274 OA
BRANCH  20  23
ATOM     23  C   UNL     1      -5.232   2.147  -0.954  0.00  0.00    +0.151 C 
BRANCH  23  24
ATOM     24  C   UNL     1      -6.249   2.736  -0.010  0.00  0.00    +0.007 A 
ATOM     25  C   UNL     1      -7.596   2.807  -0.142  0.00  0.00    +0.013 A 
ATOM     26  C   UNL     1      -8.338   3.398   0.863  0.00  0.00    +0.008 A 
ATOM     27  C   UNL     1      -7.696   3.890   1.951  0.00  0.00    +0.045 A 
ATOM     28  S   UNL     1      -5.992   3.515   1.575  0.00  0.00    -0.100 S 
ENDBRANCH  23  24
ENDBRANCH  20  23
BRANCH  21  29
ATOM     29  C   UNL     1      -2.988   3.611  -0.031  0.00  0.00    +0.241 C 
BRANCH  29  30
ATOM     30  N   UNL     1      -1.853   4.508   0.196  0.00  0.00    -0.235 N 
ATOM     31  C   UNL     1      -0.542   4.280  -0.151  0.00  0.00    +0.090 A 
ATOM     32  C   UNL     1       0.122   3.235  -0.783  0.00  0.00    +0.029 A 
ATOM     33  C   UNL     1       1.472   3.311  -0.985  0.00  0.00    +0.002 A 
ATOM     34  C   UNL     1       2.186   4.429  -0.575  0.00  0.00    +0.002 A 
ATOM     35  C   UNL     1       1.557   5.471   0.043  0.00  0.00    +0.032 A 
ATOM     36  C   UNL     1       0.174   5.415   0.267  0.00  0.00    +0.113 A 
ATOM     37  N   UNL     1      -0.702   6.266   0.837  0.00  0.00    -0.129 NA
ATOM     38  N   UNL     1      -1.888   5.768   0.812  0.00  0.00    -0.064 NA
ENDBRANCH  29  30
ENDBRANCH  21  29
ENDBRANCH   1  20
TORSDOF 9
