REMARK  Name = ZINC02853770
REMARK  5 active torsions:
REMARK  status: ('A' for Active; 'I' for Inactive)
REMARK    1  A    between atoms: C_1  and  C_2
REMARK    2  A    between atoms: C_3  and  N_11
REMARK    3  A    between atoms: C_7  and  N_8
REMARK    4  A    between atoms: N_11  and  S_12
REMARK    5  A    between atoms: S_12  and  C_15
REMARK                            x       y       z     vdW  Elec       q    Type
REMARK                         _______ _______ _______ _____ _____    ______ ____
ROOT
ATOM      1  S   UNL     1       4.864  -1.208  -0.207  0.00  0.00    +0.072 S 
ATOM      2  O   UNL     1       5.867  -0.287   0.198  0.00  0.00    -0.150 OA
ATOM      3  O   UNL     1       4.848  -2.560   0.231  0.00  0.00    -0.150 OA
ENDROOT
BRANCH   1   4
ATOM      4  C   UNL     1       3.317  -0.508   0.265  0.00  0.00    +0.112 A 
ATOM      5  C   UNL     1       2.222  -1.327   0.465  0.00  0.00    +0.032 A 
ATOM      6  C   UNL     1       1.007  -0.781   0.835  0.00  0.00    +0.051 A 
ATOM      7  C   UNL     1       0.884   0.590   1.005  0.00  0.00    +0.162 A 
ATOM      8  C   UNL     1       1.986   1.413   0.806  0.00  0.00    +0.164 A 
ATOM      9  C   UNL     1       3.202   0.859   0.434  0.00  0.00    +0.078 A 
ATOM     10  O   UNL     1       1.889   2.760   0.976  0.00  0.00    -0.485 OA
ATOM     11  C   UNL     1       0.569   3.314   0.983  0.00  0.00    +0.270 C 
ATOM     12  C   UNL     1      -0.313   2.445   1.889  0.00  0.00    +0.270 C 
ATOM     13  O   UNL     1      -0.321   1.113   1.361  0.00  0.00    -0.485 OA
ENDBRANCH   1   4
BRANCH   1  14
ATOM     14  N   UNL     1       4.899  -1.248  -1.862  0.00  0.00    -0.216 N 
ATOM     15  H   UNL     1       4.989  -2.095  -2.325  0.00  0.00    +0.174 HD
BRANCH  14  18
ATOM     16  C   UNL     1       3.500  -1.307  -4.339  0.00  0.00    +0.048 C 
ATOM     17  C   UNL     1       4.125  -0.044  -3.806  0.00  0.00    +0.002 A 
ATOM     18  C   UNL     1       4.799  -0.060  -2.591  0.00  0.00    +0.053 A 
ATOM     19  C   UNL     1       5.379   1.105  -2.107  0.00  0.00    +0.025 A 
ATOM     20  C   UNL     1       5.279   2.277  -2.830  0.00  0.00    +0.004 A 
ATOM     21  C   UNL     1       4.602   2.292  -4.036  0.00  0.00    +0.033 A 
ATOM     22  C   UNL     1       4.024   1.133  -4.521  0.00  0.00    +0.131 A 
BRANCH  22  23
ATOM     23  N   UNL     1       3.300   1.153  -5.812  0.00  0.00    +0.057 N 
ATOM     24  O   UNL     1       3.330   2.150  -6.512  0.00  0.00    -0.126 OA
ATOM     25  O   UNL     1       2.674   0.173  -6.175  0.00  0.00    -0.126 OA
ENDBRANCH  22  23
ENDBRANCH  14  18
ENDBRANCH   1  14
TORSDOF 4
