REMARK  Name = ZINC24816727
REMARK  9 active torsions:
REMARK  status: ('A' for Active; 'I' for Inactive)
REMARK    1  A    between atoms: C_1  and  C_2
REMARK    2  A    between atoms: C_15  and  C_17
REMARK    3  A    between atoms: C_17  and  N_18
REMARK    4  A    between atoms: N_18  and  C_19
REMARK    5  A    between atoms: N_18  and  C_28
REMARK    6  A    between atoms: C_19  and  C_20
REMARK    7  A    between atoms: C_25  and  O_26
REMARK    8  A    between atoms: O_26  and  C_27
REMARK    9  A    between atoms: C_28  and  C_29
REMARK                            x       y       z     vdW  Elec       q    Type
REMARK                         _______ _______ _______ _____ _____    ______ ____
ROOT
ATOM      1  C   UNL     1      -1.318  -0.787   0.003  0.00  0.00    +0.020 C 
ENDROOT
BRANCH   1  15
ATOM      2  C   UNL     1      -1.090   2.195   3.539  0.00  0.00    +0.029 C 
ATOM      3  C   UNL     1      -2.278   1.393   3.004  0.00  0.00    +0.087 C 
ATOM      4  C   UNL     1      -3.526   2.279   2.998  0.00  0.00    +0.118 C 
ATOM      5  C   UNL     1      -4.592   1.667   2.128  0.00  0.00    +0.219 C 
ATOM      6  O   UNL     1      -5.545   1.119   2.640  0.00  0.00    -0.275 OA
ATOM      7  N   UNL     1      -4.494   1.725   0.781  0.00  0.00    -0.284 N 
ATOM      8  C   UNL     1      -3.360   2.276   0.172  0.00  0.00    +0.055 A 
ATOM      9  C   UNL     1      -3.479   3.217  -0.836  0.00  0.00    +0.025 A 
ATOM     10  C   UNL     1      -2.344   3.722  -1.443  0.00  0.00    +0.002 A 
ATOM     11  C   UNL     1      -1.091   3.288  -1.047  0.00  0.00    +0.002 A 
ATOM     12  C   UNL     1      -0.964   2.358  -0.032  0.00  0.00    +0.025 A 
ATOM     13  C   UNL     1      -2.091   1.858   0.592  0.00  0.00    +0.058 A 
ATOM     14  N   UNL     1      -1.985   0.939   1.644  0.00  0.00    -0.268 N 
ATOM     15  C   UNL     1      -1.616  -0.336   1.409  0.00  0.00    +0.204 C 
ATOM     16  O   UNL     1      -1.524  -1.120   2.330  0.00  0.00    -0.277 OA
ATOM     17  H   UNL     1      -5.311   1.337   0.154  0.00  0.00    +0.155 HD
ENDBRANCH   1  15
BRANCH   1  18
ATOM     18  N   UNL     1      -0.887  -2.191   0.020  0.00  0.00    +0.391 N 
ATOM     19  H   UNL     1      -0.208  -2.326   0.874  0.00  0.00    -0.080 HD
BRANCH  18  20
ATOM     20  C   UNL     1      -2.033  -3.091   0.208  0.00  0.00    -0.038 C 
BRANCH  20  21
ATOM     21  C   UNL     1      -1.536  -4.490   0.466  0.00  0.00    -0.022 A 
ATOM     22  C   UNL     1      -1.526  -5.420  -0.556  0.00  0.00    +0.005 A 
ATOM     23  C   UNL     1      -1.066  -6.702  -0.322  0.00  0.00    +0.000 A 
ATOM     24  C   UNL     1      -0.623  -7.061   0.938  0.00  0.00    +0.004 A 
ATOM     25  C   UNL     1      -0.635  -6.136   1.965  0.00  0.00    +0.046 A 
ATOM     26  C   UNL     1      -1.092  -4.847   1.731  0.00  0.00    +0.121 A 
BRANCH  26  27
ATOM     27  O   UNL     1      -1.105  -3.936   2.739  0.00  0.00    -0.495 OA
ATOM     28  C   UNL     1      -0.633  -4.374   4.015  0.00  0.00    +0.277 C 
ENDBRANCH  26  27
ENDBRANCH  20  21
ENDBRANCH  18  20
BRANCH  18  29
ATOM     29  C   UNL     1      -0.147  -2.530  -1.203  0.00  0.00    -0.035 C 
BRANCH  29  30
ATOM     30  C   UNL     1       1.246  -1.961  -1.121  0.00  0.00    -0.027 A 
ATOM     31  C   UNL     1       2.349  -2.487  -0.536  0.00  0.00    +0.009 A 
ATOM     32  C   UNL     1       3.537  -1.781  -0.588  0.00  0.00    +0.008 A 
ATOM     33  C   UNL     1       3.560  -0.579  -1.214  0.00  0.00    +0.045 A 
ATOM     34  S   UNL     1       1.869  -0.416  -1.763  0.00  0.00    -0.103 S 
ENDBRANCH  29  30
ENDBRANCH  18  29
ENDBRANCH   1  18
TORSDOF 7
