REMARK  Name = ZINC00718057
REMARK  9 active torsions:
REMARK  status: ('A' for Active; 'I' for Inactive)
REMARK    1  A    between atoms: C_1  and  C_2
REMARK    2  A    between atoms: C_3  and  C_29
REMARK    3  A    between atoms: C_4  and  C_20
REMARK    4  A    between atoms: C_10  and  C_15
REMARK    5  A    between atoms: C_23  and  O_27
REMARK    6  A    between atoms: C_24  and  O_26
REMARK    7  A    between atoms: O_27  and  C_28
REMARK    8  A    between atoms: C_29  and  O_31
REMARK    9  A    between atoms: O_31  and  C_32
REMARK                            x       y       z     vdW  Elec       q    Type
REMARK                         _______ _______ _______ _____ _____    ______ ____
ROOT
ATOM      1  C   UNL     1      -0.018   1.503   0.010  0.00  0.00    +0.061 C 
ATOM      2  C   UNL     1       0.002  -0.004   0.002  0.00  0.00    +0.016 C 
ATOM      3  C   UNL     1      -1.155  -0.688   0.004  0.00  0.00    +0.065 C 
ATOM      4  C   UNL     1      -1.174  -2.188   0.005  0.00  0.00    +0.092 C 
ATOM      5  C   UNL     1       0.160  -2.746  -0.422  0.00  0.00    +0.024 C 
ATOM      6  C   UNL     1       1.267  -1.974  -0.410  0.00  0.00    +0.016 C 
ATOM      7  N   UNL     1       1.198  -0.667  -0.013  0.00  0.00    -0.321 N 
ATOM      8  C   UNL     1       2.604  -2.524  -0.842  0.00  0.00    +0.060 C 
ATOM      9  C   UNL     1       2.670  -4.019  -0.526  0.00  0.00    +0.039 C 
ATOM     10  C   UNL     1       1.517  -4.721  -1.252  0.00  0.00    +0.088 C 
ATOM     11  C   UNL     1       0.218  -4.091  -0.830  0.00  0.00    +0.162 C 
ATOM     12  O   UNL     1      -0.799  -4.755  -0.843  0.00  0.00    -0.292 OA
ATOM     13  H   UNL     1       2.005  -0.207   0.265  0.00  0.00    +0.152 HD
ENDROOT
BRANCH   4  14
ATOM     14  C   UNL     1      -1.492  -2.678   1.395  0.00  0.00    -0.032 A 
ATOM     15  C   UNL     1      -0.664  -2.343   2.450  0.00  0.00    +0.008 A 
ATOM     16  C   UNL     1      -0.951  -2.789   3.726  0.00  0.00    +0.050 A 
ATOM     17  C   UNL     1      -2.071  -3.574   3.950  0.00  0.00    +0.161 A 
ATOM     18  C   UNL     1      -2.904  -3.911   2.888  0.00  0.00    +0.159 A 
ATOM     19  C   UNL     1      -2.613  -3.456   1.612  0.00  0.00    +0.053 A 
BRANCH  18  20
ATOM     20  O   UNL     1      -4.005  -4.681   3.102  0.00  0.00    -0.503 OA
ATOM     21  H   UNL     1      -4.803  -4.177   3.311  0.00  0.00    +0.292 HD
ENDBRANCH  18  20
BRANCH  17  22
ATOM     22  O   UNL     1      -2.355  -4.015   5.205  0.00  0.00    -0.491 OA
ATOM     23  C   UNL     1      -1.455  -3.630   6.246  0.00  0.00    +0.277 C 
ENDBRANCH  17  22
ENDBRANCH   4  14
BRANCH   9  24
ATOM     24  C   UNL     1       3.987  -4.579  -1.000  0.00  0.00    -0.006 A 
ATOM     25  C   UNL     1       4.963  -5.189  -0.284  0.00  0.00    +0.011 A 
ATOM     26  C   UNL     1       6.099  -5.628  -0.936  0.00  0.00    +0.008 A 
ATOM     27  C   UNL     1       6.205  -5.435  -2.274  0.00  0.00    +0.045 A 
ATOM     28  S   UNL     1       4.664  -4.616  -2.652  0.00  0.00    -0.101 S 
ENDBRANCH   9  24
BRANCH   3  29
ATOM     29  C   UNL     1      -2.380   0.021   0.005  0.00  0.00    +0.337 C 
ATOM     30  O   UNL     1      -2.378   1.238   0.004  0.00  0.00    -0.245 OA
BRANCH  29  31
ATOM     31  O   UNL     1      -3.549  -0.652   0.007  0.00  0.00    -0.465 OA
ATOM     32  C   UNL     1      -4.747   0.128   0.008  0.00  0.00    +0.280 C 
ENDBRANCH  29  31
ENDBRANCH   3  29
TORSDOF 6
