REMARK  Name = ZINC61743292
REMARK  3 active torsions:
REMARK  status: ('A' for Active; 'I' for Inactive)
REMARK    1  A    between atoms: C_4  and  N_21
REMARK    2  A    between atoms: C_5  and  N_7
REMARK    3  A    between atoms: N_10  and  C_11
REMARK                            x       y       z     vdW  Elec       q    Type
REMARK                         _______ _______ _______ _____ _____    ______ ____
ROOT
ATOM      1  N   UNL     1       1.234  -2.082  -0.021  0.00  0.00    -0.268 N 
ATOM      2  C   UNL     1       0.083  -2.774   0.088  0.00  0.00    +0.304 C 
ATOM      3  O   UNL     1      -0.982  -2.186   0.102  0.00  0.00    -0.252 OA
ATOM      4  N   UNL     1       0.111  -4.118   0.181  0.00  0.00    -0.294 N 
ATOM      5  H   UNL     1       2.076  -2.554  -0.115  0.00  0.00    +0.156 HD
ATOM      6  H   UNL     1       0.960  -4.588   0.170  0.00  0.00    +0.151 HD
ENDROOT
BRANCH   4   7
ATOM      7  C   UNL     1      -1.141  -4.871   0.300  0.00  0.00    +0.037 C 
ATOM      8  C   UNL     1      -1.885  -4.428   1.561  0.00  0.00    +0.029 C 
ATOM      9  C   UNL     1      -3.192  -5.214   1.685  0.00  0.00    -0.008 C 
ATOM     10  C   UNL     1      -2.881  -6.709   1.775  0.00  0.00    +0.007 C 
ATOM     11  C   UNL     1      -2.137  -7.152   0.513  0.00  0.00    -0.008 C 
ATOM     12  C   UNL     1      -0.830  -6.366   0.390  0.00  0.00    +0.029 C 
ATOM     13  C   UNL     1      -3.011  -6.885  -0.714  0.00  0.00    +0.007 C 
ATOM     14  C   UNL     1      -3.321  -5.390  -0.804  0.00  0.00    -0.008 C 
ATOM     15  C   UNL     1      -4.065  -4.947   0.458  0.00  0.00    +0.007 C 
ATOM     16  C   UNL     1      -2.014  -4.604  -0.927  0.00  0.00    +0.029 C 
ENDBRANCH   4   7
BRANCH   1  21
ATOM     17  C   UNL     1       0.154   1.372   0.642  0.00  0.00    +0.002 A 
ATOM     18  C   UNL     1       1.173   2.089   0.043  0.00  0.00    +0.002 A 
ATOM     19  C   UNL     1       2.215   1.429  -0.580  0.00  0.00    +0.025 A 
ATOM     20  C   UNL     1       2.241   0.042  -0.604  0.00  0.00    +0.058 A 
ATOM     21  C   UNL     1       1.214  -0.681   0.000  0.00  0.00    +0.056 A 
ATOM     22  C   UNL     1       0.172  -0.010   0.623  0.00  0.00    +0.025 A 
BRANCH  20  23
ATOM     23  N   UNL     1       3.296  -0.630  -1.235  0.00  0.00    -0.270 N 
ATOM     24  C   UNL     1       3.304  -1.015  -2.651  0.00  0.00    +0.114 C 
ATOM     25  C   UNL     1       4.782  -1.312  -2.989  0.00  0.00    +0.029 C 
ATOM     26  C   UNL     1       5.351  -1.695  -1.604  0.00  0.00    +0.098 C 
ATOM     27  C   UNL     1       4.434  -0.999  -0.622  0.00  0.00    +0.220 C 
ATOM     28  O   UNL     1       4.688  -0.805   0.548  0.00  0.00    -0.275 OA
ENDBRANCH  20  23
ENDBRANCH   1  21
TORSDOF 3
