REMARK  Name = ZINC12498167
REMARK  11 active torsions:
REMARK  status: ('A' for Active; 'I' for Inactive)
REMARK    1  A    between atoms: C_1  and  C_2
REMARK    2  A    between atoms: C_2  and  C_3
REMARK    3  A    between atoms: C_3  and  C_4
REMARK    4  A    between atoms: C_4  and  C_32
REMARK    5  A    between atoms: C_9  and  C_11
REMARK    6  A    between atoms: N_20  and  C_23
REMARK    7  A    between atoms: C_27  and  C_29
REMARK    8  A    between atoms: C_29  and  C_31
REMARK    9  A    between atoms: C_32  and  O_34
REMARK   10  A    between atoms: O_34  and  C_35
REMARK   11  A    between atoms: C_35  and  C_36
REMARK                            x       y       z     vdW  Elec       q    Type
REMARK                         _______ _______ _______ _____ _____    ______ ____
ROOT
ATOM      1  C   UNL     1      -8.379   0.520   0.098  0.00  0.00    +0.044 C 
ATOM      2  C   UNL     1      -6.978   0.710  -0.356  0.00  0.00    +0.086 C 
ATOM      3  C   UNL     1      -6.285  -0.536   0.328  0.00  0.00    +0.077 C 
ATOM      4  C   UNL     1      -7.251  -1.595  -0.147  0.00  0.00    -0.024 C 
ATOM      5  C   UNL     1      -4.916  -0.301  -0.188  0.00  0.00    +0.229 C 
ATOM      6  O   UNL     1      -4.103  -1.134  -0.526  0.00  0.00    -0.275 OA
ATOM      7  N   UNL     1      -4.764   1.061  -0.199  0.00  0.00    -0.210 N 
ATOM      8  C   UNL     1      -5.961   1.725  -0.093  0.00  0.00    +0.229 C 
ATOM      9  O   UNL     1      -6.136   2.897   0.161  0.00  0.00    -0.275 OA
ATOM     10  N   UNL     1      -8.572  -0.948   0.109  0.00  0.00    +0.395 N 
ATOM     11  H   UNL     1      -9.238  -1.216  -0.624  0.00  0.00    -0.083 HD
ATOM     12  H   UNL     1      -8.932  -1.244   1.024  0.00  0.00    -0.083 HD
ENDROOT
BRANCH   4  13
ATOM     13  C   UNL     1      -7.094  -2.861   0.656  0.00  0.00    -0.025 A 
ATOM     14  C   UNL     1      -6.410  -2.837   1.857  0.00  0.00    +0.005 A 
ATOM     15  C   UNL     1      -6.271  -3.997   2.597  0.00  0.00    +0.000 A 
ATOM     16  C   UNL     1      -6.806  -5.183   2.131  0.00  0.00    +0.003 A 
ATOM     17  C   UNL     1      -7.486  -5.210   0.928  0.00  0.00    +0.038 A 
ATOM     18  C   UNL     1      -7.630  -4.048   0.189  0.00  0.00    +0.125 A 
ATOM     19  F   UNL     1      -8.294  -4.074  -0.988  0.00  0.00    -0.205 F 
ENDBRANCH   4  13
BRANCH   7  20
ATOM     20  C   UNL     1      -3.524   1.705  -0.310  0.00  0.00    +0.045 A 
ATOM     21  C   UNL     1      -3.460   3.093  -0.319  0.00  0.00    +0.024 A 
ATOM     22  C   UNL     1      -2.240   3.735  -0.428  0.00  0.00    +0.003 A 
ATOM     23  C   UNL     1      -1.076   3.001  -0.526  0.00  0.00    +0.011 A 
ATOM     24  C   UNL     1      -1.129   1.604  -0.523  0.00  0.00    +0.019 A 
ATOM     25  C   UNL     1      -2.363   0.957  -0.412  0.00  0.00    +0.035 A 
BRANCH  24  26
ATOM     26  C   UNL     1       0.111   0.817  -0.632  0.00  0.00    +0.160 C 
ATOM     27  O   UNL     1       0.063  -0.394  -0.625  0.00  0.00    -0.292 OA
ATOM     28  C   UNL     1       1.439   1.518  -0.758  0.00  0.00    +0.091 C 
ENDBRANCH  24  26
ENDBRANCH   7  20
BRANCH   1  29
ATOM     29  C   UNL     1      -9.337   1.168  -0.868  0.00  0.00    +0.297 C 
ATOM     30  O   UNL     1      -8.967   2.086  -1.561  0.00  0.00    -0.252 OA
BRANCH  29  31
ATOM     31  O   UNL     1     -10.601   0.726  -0.957  0.00  0.00    -0.466 OA
BRANCH  31  32
ATOM     32  C   UNL     1     -11.469   1.397  -1.909  0.00  0.00    +0.228 C 
ATOM     33  C   UNL     1     -12.859   0.759  -1.869  0.00  0.00    +0.048 C 
ENDBRANCH  31  32
ENDBRANCH  29  31
ENDBRANCH   1  29
BRANCH   1  34
ATOM     34  C   UNL     1      -8.566   1.095   1.504  0.00  0.00    -0.001 C 
BRANCH  34  36
ATOM     35  C   UNL     1     -10.165   1.353   3.406  0.00  0.00    +0.004 C 
ATOM     36  C   UNL     1      -9.978   0.778   2.000  0.00  0.00    -0.004 C 
ENDBRANCH  34  36
ENDBRANCH   1  34
TORSDOF 8
