REMARK  Name = ZINC37691387
REMARK  4 active torsions:
REMARK  status: ('A' for Active; 'I' for Inactive)
REMARK    1  A    between atoms: C_1  and  C_2
REMARK    2  A    between atoms: C_5  and  N_9
REMARK    3  A    between atoms: N_9  and  C_10
REMARK    4  A    between atoms: C_16  and  O_18
REMARK                            x       y       z     vdW  Elec       q    Type
REMARK                         _______ _______ _______ _____ _____    ______ ____
ROOT
ATOM      1  N   UNL     1       0.057  -4.170  -0.021  0.00  0.00    -0.337 N 
ATOM      2  H   UNL     1      -0.821  -4.342  -0.394  0.00  0.00    +0.147 HD
ENDROOT
BRANCH   1   7
ATOM      3  C   UNL     1       3.453  -0.318  -2.433  0.00  0.00    +0.044 C 
ATOM      4  C   UNL     1       2.551  -1.342  -1.792  0.00  0.00    -0.048 A 
ATOM      5  C   UNL     1       2.299  -2.539  -2.436  0.00  0.00    +0.020 A 
ATOM      6  C   UNL     1       1.473  -3.479  -1.852  0.00  0.00    +0.040 A 
ATOM      7  C   UNL     1       0.894  -3.221  -0.615  0.00  0.00    +0.056 A 
ATOM      8  C   UNL     1       1.150  -2.017   0.030  0.00  0.00    +0.040 A 
ATOM      9  C   UNL     1       1.982  -1.083  -0.559  0.00  0.00    +0.020 A 
ATOM     10 BR   UNL     1       0.366  -1.659   1.712  0.00  0.00    -0.048 Br
ATOM     11 BR   UNL     1       1.128  -5.116  -2.734  0.00  0.00    -0.048 Br
ENDBRANCH   1   7
BRANCH   1  12
ATOM     12  C   UNL     1       0.507  -4.903   1.165  0.00  0.00    +0.099 C 
ATOM     13  C   UNL     1      -0.690  -5.178   2.078  0.00  0.00    +0.025 C 
ATOM     14  C   UNL     1      -0.220  -5.944   3.317  0.00  0.00    +0.002 C 
ATOM     15  C   UNL     1       0.410  -7.271   2.888  0.00  0.00    +0.003 C 
ATOM     16  C   UNL     1       1.606  -6.995   1.974  0.00  0.00    +0.033 C 
ATOM     17  C   UNL     1       1.137  -6.229   0.736  0.00  0.00    +0.135 C 
BRANCH  17  18
ATOM     18  O   UNL     1       2.254  -5.972  -0.117  0.00  0.00    -0.390 OA
ATOM     19  H   UNL     1       2.704  -6.770  -0.428  0.00  0.00    +0.210 HD
ENDBRANCH  17  18
ENDBRANCH   1  12
TORSDOF 3
