REMARK  Name = ZINC14475466
REMARK  6 active torsions:
REMARK  status: ('A' for Active; 'I' for Inactive)
REMARK    1  A    between atoms: C_4  and  O_7
REMARK    2  A    between atoms: O_7  and  C_8
REMARK    3  A    between atoms: C_8  and  C_9
REMARK    4  A    between atoms: C_9  and  O_10
REMARK    5  A    between atoms: O_10  and  C_11
REMARK    6  A    between atoms: C_18  and  C_27
REMARK                            x       y       z     vdW  Elec       q    Type
REMARK                         _______ _______ _______ _____ _____    ______ ____
ROOT
ATOM      1  C   UNL     1      -1.317  -6.345   0.917  0.00  0.00    +0.142 A 
ATOM      2  C   UNL     1      -0.699  -7.441   0.347  0.00  0.00    +0.047 A 
ATOM      3  C   UNL     1      -0.339  -7.420  -0.988  0.00  0.00    +0.004 A 
ATOM      4  C   UNL     1      -0.594  -6.294  -1.747  0.00  0.00    +0.006 A 
ATOM      5  C   UNL     1      -1.204  -5.191  -1.186  0.00  0.00    -0.016 A 
ATOM      6  C   UNL     1      -1.587  -5.201   0.157  0.00  0.00    +0.074 A 
ATOM      7  N   UNL     1      -2.230  -4.138   0.795  0.00  0.00    -0.334 N 
ATOM      8  C   UNL     1      -2.410  -2.907   0.009  0.00  0.00    +0.105 C 
ATOM      9  C   UNL     1      -2.765  -3.328  -1.402  0.00  0.00    +0.029 C 
ATOM     10  C   UNL     1      -1.454  -3.959  -1.966  0.00  0.00    +0.049 C 
ATOM     11  C   UNL     1      -1.691  -3.973  -3.430  0.00  0.00    -0.023 C 
ATOM     12  C   UNL     1      -2.514  -2.975  -3.734  0.00  0.00    -0.030 C 
ATOM     13  C   UNL     1      -2.924  -2.231  -2.461  0.00  0.00    +0.033 C 
ATOM     14  H   UNL     1      -1.800  -3.939   1.686  0.00  0.00    +0.147 HD
ENDROOT
BRANCH   8  15
ATOM     15  C   UNL     1      -1.131  -2.110   0.001  0.00  0.00    -0.026 A 
ATOM     16  C   UNL     1       0.084  -2.760   0.209  0.00  0.00    +0.006 A 
ATOM     17  C   UNL     1       1.257  -2.070   0.208  0.00  0.00    +0.009 A 
ATOM     18  C   UNL     1       1.246  -0.681  -0.005  0.00  0.00    -0.018 A 
ATOM     19  C   UNL     1       2.437   0.065  -0.013  0.00  0.00    +0.008 A 
ATOM     20  C   UNL     1       2.388   1.409  -0.222  0.00  0.00    +0.001 A 
ATOM     21  C   UNL     1       1.173   2.059  -0.430  0.00  0.00    +0.001 A 
ATOM     22  C   UNL     1       0.000   1.369  -0.429  0.00  0.00    +0.008 A 
ATOM     23  C   UNL     1       0.011  -0.020  -0.216  0.00  0.00    -0.018 A 
ATOM     24  C   UNL     1      -1.180  -0.766  -0.208  0.00  0.00    +0.014 A 
ENDBRANCH   8  15
BRANCH   1  25
ATOM     25  O   UNL     1      -1.667  -6.377   2.231  0.00  0.00    -0.487 OA
BRANCH  25  26
ATOM     26  C   UNL     1      -1.365  -7.573   2.954  0.00  0.00    +0.270 C 
BRANCH  26  27
ATOM     27  C   UNL     1      -1.829  -7.423   4.404  0.00  0.00    +0.270 C 
BRANCH  27  28
ATOM     28  O   UNL     1      -3.253  -7.310   4.439  0.00  0.00    -0.489 OA
BRANCH  28  32
ATOM     29  C   UNL     1      -5.007  -6.884   8.148  0.00  0.00    +0.000 A 
ATOM     30  C   UNL     1      -5.794  -6.912   7.012  0.00  0.00    +0.004 A 
ATOM     31  C   UNL     1      -5.209  -7.055   5.769  0.00  0.00    +0.045 A 
ATOM     32  C   UNL     1      -3.831  -7.170   5.661  0.00  0.00    +0.121 A 
ATOM     33  C   UNL     1      -3.044  -7.147   6.803  0.00  0.00    +0.045 A 
ATOM     34  C   UNL     1      -3.633  -6.998   8.044  0.00  0.00    +0.004 A 
ENDBRANCH  28  32
ENDBRANCH  27  28
ENDBRANCH  26  27
ENDBRANCH  25  26
ENDBRANCH   1  25
TORSDOF 6
