REMARK  Name = ZINC19955702
REMARK  10 active torsions:
REMARK  status: ('A' for Active; 'I' for Inactive)
REMARK    1  A    between atoms: C_1  and  C_2
REMARK    2  A    between atoms: C_3  and  C_32
REMARK    3  A    between atoms: C_4  and  C_23
REMARK    4  A    between atoms: C_10  and  C_15
REMARK    5  A    between atoms: C_20  and  O_21
REMARK    6  A    between atoms: O_21  and  C_22
REMARK    7  A    between atoms: C_27  and  N_29
REMARK    8  A    between atoms: C_32  and  O_34
REMARK    9  A    between atoms: O_34  and  C_35
REMARK   10  A    between atoms: C_35  and  C_36
REMARK                            x       y       z     vdW  Elec       q    Type
REMARK                         _______ _______ _______ _____ _____    ______ ____
ROOT
ATOM      1  C   UNL     1      -0.934  -4.849  -4.664  0.00  0.00    +0.061 C 
ATOM      2  C   UNL     1      -1.211  -5.275  -3.245  0.00  0.00    +0.016 C 
ATOM      3  C   UNL     1      -0.783  -4.514  -2.223  0.00  0.00    +0.065 C 
ATOM      4  C   UNL     1      -1.038  -4.909  -0.798  0.00  0.00    +0.092 C 
ATOM      5  C   UNL     1      -2.133  -5.942  -0.711  0.00  0.00    +0.024 C 
ATOM      6  C   UNL     1      -2.504  -6.648  -1.800  0.00  0.00    +0.016 C 
ATOM      7  N   UNL     1      -1.892  -6.436  -3.006  0.00  0.00    -0.321 N 
ATOM      8  C   UNL     1      -3.600  -7.682  -1.721  0.00  0.00    +0.060 C 
ATOM      9  C   UNL     1      -3.624  -8.300  -0.321  0.00  0.00    +0.035 C 
ATOM     10  C   UNL     1      -3.838  -7.179   0.702  0.00  0.00    +0.088 C 
ATOM     11  C   UNL     1      -2.752  -6.151   0.534  0.00  0.00    +0.162 C 
ATOM     12  O   UNL     1      -2.405  -5.489   1.492  0.00  0.00    -0.292 OA
ATOM     13  H   UNL     1      -1.951  -7.210  -3.786  0.00  0.00    +0.152 HD
ENDROOT
BRANCH   9  14
ATOM     14  C   UNL     1      -4.749  -9.297  -0.223  0.00  0.00    -0.002 A 
ATOM     15  C   UNL     1      -6.052  -8.893  -0.442  0.00  0.00    +0.007 A 
ATOM     16  C   UNL     1      -7.085  -9.807  -0.352  0.00  0.00    +0.001 A 
ATOM     17  C   UNL     1      -6.818 -11.128  -0.043  0.00  0.00    +0.004 A 
ATOM     18  C   UNL     1      -5.517 -11.537   0.177  0.00  0.00    +0.046 A 
ATOM     19  C   UNL     1      -4.478 -10.623   0.083  0.00  0.00    +0.124 A 
BRANCH  19  20
ATOM     20  O   UNL     1      -3.196 -11.024   0.293  0.00  0.00    -0.495 OA
ATOM     21  C   UNL     1      -2.991 -12.403   0.604  0.00  0.00    +0.277 C 
ENDBRANCH  19  20
ENDBRANCH   9  14
BRANCH   4  22
ATOM     22  C   UNL     1       0.227  -5.477  -0.208  0.00  0.00    -0.033 A 
ATOM     23  C   UNL     1       0.810  -6.597  -0.771  0.00  0.00    +0.005 A 
ATOM     24  C   UNL     1       1.970  -7.118  -0.230  0.00  0.00    +0.003 A 
ATOM     25  C   UNL     1       2.548  -6.519   0.874  0.00  0.00    +0.033 A 
ATOM     26  C   UNL     1       1.966  -5.398   1.436  0.00  0.00    +0.126 A 
ATOM     27  C   UNL     1       0.807  -4.875   0.892  0.00  0.00    +0.037 A 
BRANCH  26  28
ATOM     28  N   UNL     1       2.585  -4.756   2.617  0.00  0.00    +0.056 N 
ATOM     29  O   UNL     1       3.608  -5.215   3.093  0.00  0.00    -0.126 OA
ATOM     30  O   UNL     1       2.072  -3.768   3.112  0.00  0.00    -0.126 OA
ENDBRANCH  26  28
ENDBRANCH   4  22
BRANCH   3  31
ATOM     31  C   UNL     1      -0.084  -3.315  -2.496  0.00  0.00    +0.338 C 
ATOM     32  O   UNL     1       0.218  -3.034  -3.641  0.00  0.00    -0.245 OA
BRANCH  31  33
ATOM     33  O   UNL     1       0.247  -2.483  -1.487  0.00  0.00    -0.459 OA
BRANCH  33  34
ATOM     34  C   UNL     1       0.953  -1.290  -1.836  0.00  0.00    +0.264 C 
BRANCH  34  35
ATOM     35  C   UNL     1       1.240  -0.479  -0.571  0.00  0.00    +0.156 C 
ATOM     36  C   UNL     1       2.102   0.753  -0.920  0.00  0.00    +0.037 C 
ATOM     37  C   UNL     1       1.488   1.853  -0.011  0.00  0.00    +0.031 C 
ATOM     38  C   UNL     1      -0.003   1.434  -0.008  0.00  0.00    +0.160 C 
ATOM     39  O   UNL     1       0.011  -0.002  -0.010  0.00  0.00    -0.373 OA
ENDBRANCH  34  35
ENDBRANCH  33  34
ENDBRANCH  31  33
ENDBRANCH   3  31
TORSDOF 8
