REMARK  Name = ZINC09960184
REMARK  6 active torsions:
REMARK  status: ('A' for Active; 'I' for Inactive)
REMARK    1  A    between atoms: C_3  and  N_26
REMARK    2  A    between atoms: C_6  and  C_7
REMARK    3  A    between atoms: C_10  and  C_12
REMARK    4  A    between atoms: N_13  and  N_14
REMARK    5  A    between atoms: C_15  and  C_17
REMARK    6  A    between atoms: C_19  and  N_24
REMARK                            x       y       z     vdW  Elec       q    Type
REMARK                         _______ _______ _______ _____ _____    ______ ____
ROOT
ATOM      1  N   UNL     1      -1.191   1.868   0.018  0.00  0.00    -0.202 N 
ATOM      2  C   UNL     1      -0.014   1.210   0.009  0.00  0.00    +0.281 C 
ATOM      3  O   UNL     1       0.002  -0.004   0.002  0.00  0.00    -0.267 OA
ATOM      4  H   UNL     1      -1.204   2.838   0.023  0.00  0.00    +0.178 HD
ENDROOT
BRANCH   2   5
ATOM      5  C   UNL     1       1.256   1.967   0.001  0.00  0.00    +0.125 A 
ATOM      6  C   UNL     1       2.468   1.280  -0.009  0.00  0.00    +0.091 A 
ATOM      7  C   UNL     1       3.658   2.010  -0.021  0.00  0.00    +0.067 A 
ATOM      8  C   UNL     1       3.581   3.401  -0.013  0.00  0.00    +0.098 A 
ATOM      9  C   UNL     1       2.336   4.012   0.002  0.00  0.00    +0.128 A 
ATOM     10 CL   UNL     1       2.233   5.745   0.011  0.00  0.00    -0.062 Cl
ATOM     11 CL   UNL     1       5.028   4.360  -0.021  0.00  0.00    -0.079 Cl
ATOM     12 CL   UNL     1       2.498  -0.455  -0.011  0.00  0.00    -0.079 Cl
ATOM     13  N   UNL     1       1.160   3.334   0.009  0.00  0.00    -0.339 N 
ATOM     14  H   UNL     1       0.254   3.817   0.020  0.00  0.00    +0.167 HD
BRANCH   7  15
ATOM     15  N   UNL     1       4.892   1.362  -0.035  0.00  0.00    -0.356 N 
ATOM     16  H   UNL     1       5.711   1.881  -0.040  0.00  0.00    +0.142 HD
ATOM     17  H   UNL     1       4.931   0.393  -0.041  0.00  0.00    +0.142 HD
ENDBRANCH   7  15
ENDBRANCH   2   5
BRANCH   1  19
ATOM     18  C   UNL     1      -3.458   1.857   0.029  0.00  0.00    +0.176 C 
ATOM     19  N   UNL     1      -2.299   1.208   0.019  0.00  0.00    -0.184 NA
BRANCH  18  23
ATOM     20  C   UNL     1      -6.087  -0.518   0.027  0.00  0.00    +0.136 A 
ATOM     21  C   UNL     1      -6.864   0.666   0.038  0.00  0.00    +0.050 A 
ATOM     22  C   UNL     1      -6.006   1.718   0.040  0.00  0.00    +0.051 A 
ATOM     23  C   UNL     1      -4.651   1.146   0.030  0.00  0.00    +0.148 A 
ATOM     24  O   UNL     1      -4.782  -0.198   0.018  0.00  0.00    -0.454 OA
BRANCH  20  30
ATOM     25  C   UNL     1      -7.997  -2.052   0.032  0.00  0.00    +0.014 A 
ATOM     26  C   UNL     1      -8.488  -3.332   0.021  0.00  0.00    +0.033 A 
ATOM     27  C   UNL     1      -7.620  -4.413   0.010  0.00  0.00    +0.126 A 
ATOM     28  C   UNL     1      -6.247  -4.214   0.006  0.00  0.00    +0.033 A 
ATOM     29  C   UNL     1      -5.734  -2.943   0.011  0.00  0.00    +0.014 A 
ATOM     30  C   UNL     1      -6.606  -1.837   0.022  0.00  0.00    +0.017 A 
BRANCH  27  31
ATOM     31  N   UNL     1      -8.162  -5.791   0.003  0.00  0.00    +0.056 N 
ATOM     32  O   UNL     1      -7.342  -6.821  -0.006  0.00  0.00    -0.126 OA
ATOM     33  O   UNL     1      -9.464  -5.986   0.007  0.00  0.00    -0.126 OA
ENDBRANCH  27  31
ENDBRANCH  20  30
ENDBRANCH  18  23
ENDBRANCH   1  19
TORSDOF 6
