REMARK  Name = ZINC20684231
REMARK  10 active torsions:
REMARK  status: ('A' for Active; 'I' for Inactive)
REMARK    1  A    between atoms: C_1  and  C_2
REMARK    2  A    between atoms: C_2  and  N_3
REMARK    3  A    between atoms: N_3  and  C_4
REMARK    4  A    between atoms: N_3  and  C_18
REMARK    5  A    between atoms: C_4  and  C_5
REMARK    6  A    between atoms: N_7  and  C_8
REMARK    7  A    between atoms: C_11  and  N_14
REMARK    8  A    between atoms: C_15  and  C_17
REMARK    9  A    between atoms: C_18  and  C_19
REMARK   10  A    between atoms: C_30  and  C_32
REMARK                            x       y       z     vdW  Elec       q    Type
REMARK                         _______ _______ _______ _____ _____    ______ ____
ROOT
ATOM      1  N   UNL     1       0.099   0.649   0.361  0.00  0.00    +0.391 N 
ATOM      2  H   UNL     1       0.411   0.148  -0.567  0.00  0.00    -0.080 HD
ENDROOT
BRANCH   1   4
ATOM      3  C   UNL     1      -0.623   2.420  -1.169  0.00  0.00    -0.017 C 
ATOM      4  C   UNL     1       0.129   2.098   0.124  0.00  0.00    -0.081 C 
ENDBRANCH   1   4
BRANCH   1   5
ATOM      5  C   UNL     1       1.044   0.268   1.419  0.00  0.00    +0.020 C 
BRANCH   5   6
ATOM      6  C   UNL     1       2.453   0.526   0.951  0.00  0.00    +0.201 C 
ATOM      7  O   UNL     1       2.650   0.981  -0.156  0.00  0.00    -0.278 OA
ATOM      8  N   UNL     1       3.494   0.250   1.762  0.00  0.00    -0.287 N 
ATOM      9  H   UNL     1       3.320  -0.231   2.736  0.00  0.00    +0.155 HD
BRANCH   8  10
ATOM     10  C   UNL     1       4.797   0.575   1.364  0.00  0.00    +0.033 A 
ATOM     11  C   UNL     1       5.174   0.430   0.035  0.00  0.00    +0.025 A 
ATOM     12  C   UNL     1       6.457   0.756  -0.357  0.00  0.00    +0.025 A 
ATOM     13  C   UNL     1       7.373   1.217   0.578  0.00  0.00    +0.033 A 
ATOM     14  C   UNL     1       6.998   1.357   1.908  0.00  0.00    +0.025 A 
ATOM     15  C   UNL     1       5.713   1.037   2.300  0.00  0.00    +0.025 A 
BRANCH  13  16
ATOM     16  N   UNL     1       8.677   1.542   0.180  0.00  0.00    -0.286 N 
ATOM     17  C   UNL     1       8.899   2.052  -1.047  0.00  0.00    +0.214 C 
ATOM     18  O   UNL     1       7.964   2.317  -1.773  0.00  0.00    -0.276 OA
ATOM     19  C   UNL     1      10.310   2.293  -1.518  0.00  0.00    +0.109 C 
ATOM     20  H   UNL     1       9.518   1.381   0.870  0.00  0.00    +0.155 HD
ENDBRANCH  13  16
ENDBRANCH   8  10
ENDBRANCH   5   6
ENDBRANCH   1   5
BRANCH   1  21
ATOM     21  C   UNL     1      -1.261   0.196   0.682  0.00  0.00    +0.020 C 
BRANCH  21  22
ATOM     22  C   UNL     1      -1.362  -1.291   0.456  0.00  0.00    +0.204 C 
ATOM     23  O   UNL     1      -0.383  -1.921   0.117  0.00  0.00    -0.277 OA
ATOM     24  N   UNL     1      -2.541  -1.920   0.630  0.00  0.00    -0.259 N 
ATOM     25  C   UNL     1      -2.688  -3.286   0.332  0.00  0.00    +0.079 A 
ATOM     26  C   UNL     1      -1.568  -4.075   0.123  0.00  0.00    +0.027 A 
ATOM     27  C   UNL     1      -1.717  -5.418  -0.172  0.00  0.00    +0.002 A 
ATOM     28  C   UNL     1      -2.981  -5.971  -0.260  0.00  0.00    +0.004 A 
ATOM     29  C   UNL     1      -4.101  -5.189  -0.052  0.00  0.00    +0.047 A 
ATOM     30  C   UNL     1      -3.961  -3.841   0.246  0.00  0.00    +0.142 A 
ATOM     31  O   UNL     1      -5.068  -3.080   0.454  0.00  0.00    -0.488 OA
ATOM     32  C   UNL     1      -4.935  -1.663   0.323  0.00  0.00    +0.256 C 
ATOM     33  C   UNL     1      -3.720  -1.202   1.146  0.00  0.00    +0.149 C 
BRANCH  33  34
ATOM     34  C   UNL     1      -3.926  -1.538   2.601  0.00  0.00    -0.023 A 
ATOM     35  C   UNL     1      -3.740  -2.833   3.045  0.00  0.00    +0.005 A 
ATOM     36  C   UNL     1      -3.925  -3.140   4.380  0.00  0.00    +0.000 A 
ATOM     37  C   UNL     1      -4.305  -2.152   5.270  0.00  0.00    +0.000 A 
ATOM     38  C   UNL     1      -4.497  -0.858   4.825  0.00  0.00    +0.000 A 
ATOM     39  C   UNL     1      -4.307  -0.550   3.490  0.00  0.00    +0.005 A 
ENDBRANCH  33  34
ENDBRANCH  21  22
ENDBRANCH   1  21
TORSDOF 8
