REMARK  Name = ZINC56924500
REMARK  5 active torsions:
REMARK  status: ('A' for Active; 'I' for Inactive)
REMARK    1  A    between atoms: C_1  and  C_2
REMARK    2  A    between atoms: C_4  and  C_26
REMARK    3  A    between atoms: C_11  and  C_14
REMARK    4  A    between atoms: C_18  and  C_25
REMARK    5  A    between atoms: C_21  and  C_24
REMARK                            x       y       z     vdW  Elec       q    Type
REMARK                         _______ _______ _______ _____ _____    ______ ____
ROOT
ATOM      1  C   UNL     1      -0.108   1.496   0.009  0.00  0.00    +0.066 C 
ATOM      2  C   UNL     1      -0.442   0.027   0.029  0.00  0.00    +0.044 A 
ATOM      3  C   UNL     1      -0.757  -0.638  -1.146  0.00  0.00    +0.046 A 
ATOM      4  C   UNL     1      -1.058  -1.989  -1.082  0.00  0.00    +0.044 A 
ATOM      5  N   UNL     1      -1.035  -2.601   0.090  0.00  0.00    -0.219 NA
ATOM      6  C   UNL     1      -0.730  -1.937   1.195  0.00  0.00    +0.221 A 
ATOM      7  N   UNL     1      -0.432  -0.646   1.168  0.00  0.00    -0.219 NA
ATOM      8  N   UNL     1      -0.715  -2.610   2.407  0.00  0.00    -0.263 N 
ATOM      9  C   UNL     1      -0.397  -1.930   3.573  0.00  0.00    +0.165 A 
ATOM     10  N   UNL     1      -0.324  -2.385   4.808  0.00  0.00    -0.220 NA
ATOM     11  C   UNL     1      -0.000  -1.582   5.823  0.00  0.00    +0.135 A 
ATOM     12  C   UNL     1       0.260  -0.259   5.568  0.00  0.00    +0.081 A 
ATOM     13  S   UNL     1       0.028  -0.209   3.796  0.00  0.00    -0.060 S 
ATOM     14  C   UNL     1      -1.407  -2.752  -2.334  0.00  0.00    +0.066 C 
ATOM     15  H   UNL     1      -0.927  -3.555   2.439  0.00  0.00    +0.157 HD
ENDROOT
BRANCH  11  16
ATOM     16  C   UNL     1       0.076  -2.107   7.196  0.00  0.00    +0.266 C 
ATOM     17  O   UNL     1       0.207  -1.343   8.133  0.00  0.00    -0.268 OA
ATOM     18  N   UNL     1       0.000  -3.435   7.414  0.00  0.00    -0.296 N 
ATOM     19  C   UNL     1       0.015  -4.381   6.290  0.00  0.00    +0.111 C 
ATOM     20  C   UNL     1       1.123  -5.412   6.526  0.00  0.00    +0.004 C 
ATOM     21  C   UNL     1       0.922  -6.066   7.895  0.00  0.00    +0.009 C 
ATOM     22  C   UNL     1       1.012  -5.000   8.990  0.00  0.00    +0.004 C 
ATOM     23  C   UNL     1      -0.091  -3.965   8.782  0.00  0.00    +0.111 C 
ATOM     24  C   UNL     1       0.845  -5.660  10.360  0.00  0.00    +0.009 C 
ATOM     25  C   UNL     1       1.066  -6.482   5.435  0.00  0.00    +0.009 C 
ENDBRANCH  11  16
TORSDOF 1
