REMARK  Name = ZINC36159324
REMARK  12 active torsions:
REMARK  status: ('A' for Active; 'I' for Inactive)
REMARK    1  A    between atoms: C_1  and  C_2
REMARK    2  A    between atoms: C_2  and  C_3
REMARK    3  A    between atoms: C_3  and  N_4
REMARK    4  A    between atoms: N_4  and  C_5
REMARK    5  A    between atoms: N_4  and  C_21
REMARK    6  A    between atoms: C_5  and  C_6
REMARK    7  A    between atoms: C_21  and  C_22
REMARK    8  A    between atoms: C_22  and  C_24
REMARK    9  A    between atoms: C_22  and  O_32
REMARK   10  A    between atoms: C_24  and  O_25
REMARK   11  A    between atoms: O_25  and  C_26
REMARK   12  A    between atoms: C_26  and  C_27
REMARK                            x       y       z     vdW  Elec       q    Type
REMARK                         _______ _______ _______ _____ _____    ______ ____
ROOT
ATOM      1  N   UNL     1       0.654  -1.892  -1.093  0.00  0.00    +0.386 N 
ATOM      2  H   UNL     1       1.122  -2.038  -0.211  0.00  0.00    -0.081 HD
ENDROOT
BRANCH   1   3
ATOM      3  C   UNL     1       0.321  -0.469  -1.241  0.00  0.00    -0.078 C 
BRANCH   3   5
ATOM      4  C   UNL     1      -0.738   1.227  -2.740  0.00  0.00    +0.002 C 
ATOM      5  C   UNL     1      -0.262  -0.224  -2.634  0.00  0.00    -0.022 C 
ENDBRANCH   3   5
ENDBRANCH   1   3
BRANCH   1   6
ATOM      6  C   UNL     1      -0.579  -2.690  -1.132  0.00  0.00    -0.003 C 
BRANCH   6   7
ATOM      7  C   UNL     1      -1.419  -2.376   0.079  0.00  0.00    +0.094 A 
ATOM      8  N   UNL     1      -2.662  -2.911   0.185  0.00  0.00    -0.312 N 
ATOM      9  H   UNL     1      -2.993  -3.489  -0.520  0.00  0.00    +0.170 HD
ATOM     10  C   UNL     1      -3.446  -2.657   1.250  0.00  0.00    +0.260 A 
ATOM     11  O   UNL     1      -4.559  -3.146   1.331  0.00  0.00    -0.267 OA
ATOM     12  C   UNL     1      -2.948  -1.801   2.287  0.00  0.00    +0.075 A 
ATOM     13  C   UNL     1      -3.615  -1.388   3.521  0.00  0.00    -0.023 A 
ATOM     14  C   UNL     1      -2.926  -0.569   4.344  0.00  0.00    -0.004 A 
ATOM     15  S   UNL     1      -1.373  -0.304   3.534  0.00  0.00    -0.073 S 
ATOM     16  C   UNL     1      -1.654  -1.296   2.089  0.00  0.00    +0.116 A 
ATOM     17  N   UNL     1      -0.936  -1.597   1.010  0.00  0.00    -0.229 NA
ATOM     18  C   UNL     1      -3.383  -0.007   5.656  0.00  0.00    +0.043 C 
ATOM     19  C   UNL     1      -4.902  -0.200   5.763  0.00  0.00    +0.005 C 
ATOM     20  C   UNL     1      -5.242  -1.644   5.381  0.00  0.00    +0.005 C 
ATOM     21  C   UNL     1      -5.024  -1.851   3.882  0.00  0.00    +0.037 C 
ENDBRANCH   6   7
ENDBRANCH   1   6
BRANCH   1  22
ATOM     22  C   UNL     1       1.539  -2.304  -2.191  0.00  0.00    -0.044 C 
BRANCH  22  23
ATOM     23  C   UNL     1       2.890  -1.602  -2.048  0.00  0.00    +0.124 C 
BRANCH  23  24
ATOM     24  O   UNL     1       2.721  -0.198  -2.253  0.00  0.00    -0.391 OA
ATOM     25  H   UNL     1       2.370   0.033  -3.124  0.00  0.00    +0.210 HD
ENDBRANCH  23  24
BRANCH  23  26
ATOM     26  C   UNL     1       3.866  -2.155  -3.089  0.00  0.00    +0.189 C 
BRANCH  26  27
ATOM     27  O   UNL     1       5.159  -1.584  -2.881  0.00  0.00    -0.370 OA
BRANCH  27  28
ATOM     28  C   UNL     1       6.150  -2.037  -3.805  0.00  0.00    +0.234 C 
BRANCH  28  29
ATOM     29  C   UNL     1       7.467  -1.375  -3.494  0.00  0.00    +0.130 A 
ATOM     30  C   UNL     1       8.411  -1.851  -2.662  0.00  0.00    +0.047 A 
ATOM     31  C   UNL     1       9.472  -0.917  -2.668  0.00  0.00    +0.041 A 
ATOM     32  C   UNL     1       9.114   0.075  -3.504  0.00  0.00    +0.195 A 
ATOM     33  O   UNL     1       7.901  -0.211  -4.005  0.00  0.00    -0.465 OA
ENDBRANCH  28  29
ENDBRANCH  27  28
ENDBRANCH  26  27
ENDBRANCH  23  26
ENDBRANCH  22  23
ENDBRANCH   1  22
TORSDOF 11
