REMARK  Name = ZINC10167916
REMARK  4 active torsions:
REMARK  status: ('A' for Active; 'I' for Inactive)
REMARK    1  A    between atoms: C_4  and  N_21
REMARK    2  A    between atoms: C_5  and  C_7
REMARK    3  A    between atoms: N_9  and  C_10
REMARK    4  A    between atoms: C_11  and  C_18
REMARK                            x       y       z     vdW  Elec       q    Type
REMARK                         _______ _______ _______ _____ _____    ______ ____
ROOT
ATOM      1  C   UNL     1      -2.269   2.474  -3.494  0.00  0.00    +0.250 C 
ATOM      2  O   UNL     1      -3.306   3.073  -3.281  0.00  0.00    -0.270 OA
ATOM      3  N   UNL     1      -1.530   2.018  -2.463  0.00  0.00    -0.275 N 
ATOM      4  H   UNL     1      -0.703   1.540  -2.633  0.00  0.00    +0.156 HD
ENDROOT
BRANCH   3   5
ATOM      5  C   UNL     1      -1.953   2.230  -1.161  0.00  0.00    +0.085 A 
ATOM      6  C   UNL     1      -1.338   1.841   0.017  0.00  0.00    +0.068 A 
ATOM      7  C   UNL     1      -1.996   2.198   1.274  0.00  0.00    -0.023 A 
ATOM      8  C   UNL     1      -3.151   2.875   1.141  0.00  0.00    -0.004 A 
ATOM      9  S   UNL     1      -3.378   3.043  -0.612  0.00  0.00    -0.077 S 
ATOM     10  C   UNL     1      -3.764   3.209   2.474  0.00  0.00    +0.043 C 
ATOM     11  C   UNL     1      -2.615   3.022   3.490  0.00  0.00    +0.010 C 
ATOM     12  C   UNL     1      -1.718   2.000   2.764  0.00  0.00    +0.037 C 
BRANCH   6  13
ATOM     13  C   UNL     1      -0.071   1.105   0.006  0.00  0.00    +0.244 C 
ATOM     14  O   UNL     1      -0.074  -0.112  -0.018  0.00  0.00    -0.270 OA
ATOM     15  N   UNL     1       1.099   1.775   0.015  0.00  0.00    -0.325 N 
ATOM     16  H   UNL     1       1.937   1.287   0.004  0.00  0.00    +0.145 HD
ATOM     17  H   UNL     1       1.101   2.745   0.034  0.00  0.00    +0.145 HD
ENDBRANCH   6  13
ENDBRANCH   3   5
BRANCH   1  22
ATOM     18  C   UNL     1      -0.159   1.459  -6.426  0.00  0.00    +0.001 A 
ATOM     19  C   UNL     1      -0.972   1.823  -7.488  0.00  0.00    +0.002 A 
ATOM     20  C   UNL     1      -2.205   2.398  -7.259  0.00  0.00    +0.023 A 
ATOM     21  C   UNL     1      -2.640   2.616  -5.957  0.00  0.00    +0.037 A 
ATOM     22  C   UNL     1      -1.819   2.249  -4.880  0.00  0.00    +0.058 A 
ATOM     23  C   UNL     1      -0.571   1.672  -5.129  0.00  0.00    +0.015 A 
BRANCH  21  24
ATOM     24  N   UNL     1      -3.880   3.196  -5.724  0.00  0.00    -0.357 N 
ATOM     25  H   UNL     1      -4.148   3.422  -4.819  0.00  0.00    +0.142 HD
ATOM     26  H   UNL     1      -4.479   3.375  -6.466  0.00  0.00    +0.142 HD
ENDBRANCH  21  24
ENDBRANCH   1  22
TORSDOF 4
