REMARK  Name = ZINC21078398
REMARK  7 active torsions:
REMARK  status: ('A' for Active; 'I' for Inactive)
REMARK    1  A    between atoms: C_1  and  C_2
REMARK    2  A    between atoms: C_3  and  N_9
REMARK    3  A    between atoms: C_10  and  C_12
REMARK    4  A    between atoms: C_12  and  S_13
REMARK    5  A    between atoms: S_13  and  C_14
REMARK    6  A    between atoms: N_19  and  N_20
REMARK    7  A    between atoms: C_21  and  C_22
REMARK                            x       y       z     vdW  Elec       q    Type
REMARK                         _______ _______ _______ _____ _____    ______ ____
ROOT
ATOM      1  C   UNL     1      -4.473   9.337   0.061  0.00  0.00    +0.211 A 
ATOM      2  N   UNL     1      -4.881   8.034   0.053  0.00  0.00    -0.186 NA
ATOM      3  C   UNL     1      -3.767   7.242   0.028  0.00  0.00    +0.232 A 
ATOM      4  N   UNL     1      -2.715   8.024   0.026  0.00  0.00    -0.245 N 
ATOM      5  N   UNL     1      -3.162   9.351   0.042  0.00  0.00    -0.144 NA
ATOM      6  N   UNL     1      -3.752   5.855   0.013  0.00  0.00    -0.205 N 
ATOM      7  H   UNL     1      -4.699   5.295   0.021  0.00  0.00    +0.177 HD
ATOM      8  H   UNL     1      -1.705   7.587   0.014  0.00  0.00    +0.192 HD
ENDROOT
BRANCH   6   9
ATOM      9  N   UNL     1      -2.532   5.167  -0.013  0.00  0.00    -0.188 NA
ATOM     10  C   UNL     1      -2.518   3.869  -0.028  0.00  0.00    +0.139 C 
BRANCH  10  11
ATOM     11  C   UNL     1      -1.234   3.146  -0.055  0.00  0.00    +0.014 A 
ATOM     12  C   UNL     1      -1.216   1.748  -0.076  0.00  0.00    +0.011 A 
ATOM     13  C   UNL     1      -0.011   1.078  -0.096  0.00  0.00    +0.002 A 
ATOM     14  C   UNL     1       1.179   1.784  -0.106  0.00  0.00    +0.021 A 
ATOM     15  C   UNL     1       1.170   3.168  -0.090  0.00  0.00    +0.060 A 
ATOM     16  C   UNL     1      -0.029   3.854  -0.065  0.00  0.00    +0.068 A 
ATOM     17 CL   UNL     1      -0.040   5.590  -0.045  0.00  0.00    -0.081 Cl
ATOM     18 CL   UNL     1       2.669   4.045  -0.103  0.00  0.00    -0.082 Cl
ENDBRANCH  10  11
ENDBRANCH   6   9
BRANCH   1  19
ATOM     19  S   UNL     1      -5.524  10.752   0.091  0.00  0.00    -0.075 S 
BRANCH  19  20
ATOM     20  C   UNL     1      -4.373  12.153   0.090  0.00  0.00    +0.173 C 
BRANCH  20  22
ATOM     21  N   UNL     1      -4.502  14.624   0.118  0.00  0.00    -0.285 N 
ATOM     22  C   UNL     1      -5.152  13.443   0.115  0.00  0.00    +0.227 C 
ATOM     23  O   UNL     1      -6.365  13.419   0.132  0.00  0.00    -0.275 OA
ATOM     24  H   UNL     1      -3.405  14.647   0.194  0.00  0.00    +0.155 HD
BRANCH  21  27
ATOM     25  C   UNL     1      -3.327  16.986   1.183  0.00  0.00    +0.047 C 
ATOM     26  C   UNL     1      -4.686  16.996   0.532  0.00  0.00    -0.011 A 
ATOM     27  C   UNL     1      -5.222  15.819   0.024  0.00  0.00    +0.038 A 
ATOM     28  C   UNL     1      -6.476  15.831  -0.571  0.00  0.00    +0.023 A 
ATOM     29  C   UNL     1      -7.186  17.013  -0.661  0.00  0.00    +0.003 A 
ATOM     30  C   UNL     1      -6.648  18.184  -0.161  0.00  0.00    +0.020 A 
ATOM     31  C   UNL     1      -5.397  18.177   0.432  0.00  0.00    +0.046 A 
ATOM     32 CL   UNL     1      -4.726  19.649   1.060  0.00  0.00    -0.083 Cl
ENDBRANCH  21  27
ENDBRANCH  20  22
ENDBRANCH  19  20
ENDBRANCH   1  19
TORSDOF 6
