REMARK  Name = ZINC20028992
REMARK  11 active torsions:
REMARK  status: ('A' for Active; 'I' for Inactive)
REMARK    1  A    between atoms: C_1  and  C_2
REMARK    2  A    between atoms: C_2  and  O_3
REMARK    3  A    between atoms: O_3  and  C_4
REMARK    4  A    between atoms: C_4  and  C_6
REMARK    5  A    between atoms: C_7  and  C_32
REMARK    6  A    between atoms: C_11  and  C_13
REMARK    7  A    between atoms: C_16  and  C_19
REMARK    8  A    between atoms: C_22  and  C_28
REMARK    9  A    between atoms: C_24  and  C_27
REMARK   10  A    between atoms: C_28  and  O_30
REMARK   11  A    between atoms: O_30  and  C_31
REMARK                            x       y       z     vdW  Elec       q    Type
REMARK                         _______ _______ _______ _____ _____    ______ ____
ROOT
ATOM      1  C   UNL     1       1.216   1.927  -0.147  0.00  0.00    +0.065 C 
ATOM      2  C   UNL     1       2.365   1.271   0.088  0.00  0.00    +0.016 C 
ATOM      3  N   UNL     1       3.537   1.958   0.242  0.00  0.00    -0.321 N 
ATOM      4  C   UNL     1       3.527   3.291   0.556  0.00  0.00    +0.016 C 
ATOM      5  C   UNL     1       2.424   4.038   0.337  0.00  0.00    +0.025 C 
ATOM      6  C   UNL     1       1.183   3.423  -0.264  0.00  0.00    +0.092 C 
ATOM      7  C   UNL     1       2.402   5.408   0.651  0.00  0.00    +0.176 C 
ATOM      8  O   UNL     1       1.388   6.049   0.457  0.00  0.00    -0.291 OA
ATOM      9  C   UNL     1       3.611   6.096   1.224  0.00  0.00    +0.171 C 
ATOM     10  C   UNL     1       4.872   5.370   0.743  0.00  0.00    +0.013 C 
ATOM     11  C   UNL     1       4.771   3.899   1.153  0.00  0.00    +0.055 C 
ATOM     12  C   UNL     1       6.107   6.001   1.389  0.00  0.00    +0.009 C 
ATOM     13  C   UNL     1       2.362  -0.233   0.184  0.00  0.00    +0.061 C 
ATOM     14  H   UNL     1       4.499   1.441   0.113  0.00  0.00    +0.152 HD
ENDROOT
BRANCH   6  15
ATOM     15  C   UNL     1       1.091   3.804  -1.719  0.00  0.00    -0.035 A 
ATOM     16  C   UNL     1       2.088   3.422  -2.598  0.00  0.00    +0.005 A 
ATOM     17  C   UNL     1       2.001   3.768  -3.933  0.00  0.00    +0.003 A 
ATOM     18  C   UNL     1       0.922   4.503  -4.388  0.00  0.00    -0.050 A 
ATOM     19  C   UNL     1      -0.072   4.889  -3.509  0.00  0.00    +0.003 A 
ATOM     20  C   UNL     1       0.013   4.539  -2.174  0.00  0.00    +0.005 A 
ATOM     21  C   UNL     1       0.829   4.883  -5.844  0.00  0.00    +0.044 C 
ENDBRANCH   6  15
BRANCH   1  22
ATOM     22  C   UNL     1       0.016   1.193  -0.294  0.00  0.00    +0.338 C 
ATOM     23  O   UNL     1      -0.809   1.191   0.601  0.00  0.00    -0.245 OA
BRANCH  22  24
ATOM     24  O   UNL     1      -0.212   0.492  -1.424  0.00  0.00    -0.462 OA
BRANCH  24  26
ATOM     25  C   UNL     1      -1.523  -0.959  -2.845  0.00  0.00    +0.048 C 
ATOM     26  C   UNL     1      -1.443  -0.231  -1.502  0.00  0.00    +0.229 C 
ENDBRANCH  24  26
ENDBRANCH  22  24
ENDBRANCH   1  22
BRANCH   9  27
ATOM     27  C   UNL     1       3.645   7.529   0.757  0.00  0.00    +0.318 C 
ATOM     28  O   UNL     1       4.585   7.932   0.114  0.00  0.00    -0.250 OA
BRANCH  27  29
ATOM     29  O   UNL     1       2.631   8.356   1.056  0.00  0.00    -0.467 OA
ATOM     30  C   UNL     1       2.731   9.722   0.574  0.00  0.00    +0.280 C 
ENDBRANCH  27  29
ENDBRANCH   9  27
TORSDOF 6
