REMARK  Name = ZINC39934498
REMARK  11 active torsions:
REMARK  status: ('A' for Active; 'I' for Inactive)
REMARK    1  A    between atoms: C_1  and  C_2
REMARK    2  A    between atoms: C_3  and  C_33
REMARK    3  A    between atoms: C_4  and  C_32
REMARK    4  A    between atoms: C_7  and  C_8
REMARK    5  A    between atoms: C_8  and  C_10
REMARK    6  A    between atoms: C_10  and  C_12
REMARK    7  A    between atoms: C_10  and  S_13
REMARK    8  A    between atoms: S_13  and  C_14
REMARK    9  A    between atoms: C_18  and  C_25
REMARK   10  A    between atoms: N_19  and  C_20
REMARK   11  A    between atoms: C_33  and  C_35
REMARK                            x       y       z     vdW  Elec       q    Type
REMARK                         _______ _______ _______ _____ _____    ______ ____
ROOT
ATOM      1  C   UNL     1      -0.874  -2.166   6.436  0.00  0.00    +0.237 C 
ATOM      2  N   UNL     1      -1.614  -3.029   5.500  0.00  0.00    -0.237 N 
ATOM      3  N   UNL     1      -0.800  -4.144   5.266  0.00  0.00    -0.169 NA
ATOM      4  C   UNL     1       0.309  -4.068   5.925  0.00  0.00    +0.150 C 
ATOM      5  N   UNL     1       0.380  -2.897   6.683  0.00  0.00    -0.282 N 
ATOM      6  H   UNL     1      -2.490  -2.859   5.120  0.00  0.00    +0.171 HD
ENDROOT
BRANCH   4   7
ATOM      7  C   UNL     1       1.371  -5.095   5.884  0.00  0.00    +0.035 A 
ATOM      8  C   UNL     1       2.593  -4.866   6.519  0.00  0.00    +0.013 A 
ATOM      9  C   UNL     1       3.580  -5.828   6.476  0.00  0.00    +0.001 A 
ATOM     10  C   UNL     1       3.362  -7.019   5.807  0.00  0.00    +0.001 A 
ATOM     11  C   UNL     1       2.155  -7.254   5.175  0.00  0.00    +0.021 A 
ATOM     12  C   UNL     1       1.155  -6.301   5.214  0.00  0.00    +0.051 A 
ATOM     13 CL   UNL     1      -0.364  -6.600   4.428  0.00  0.00    -0.083 Cl
ENDBRANCH   4   7
BRANCH   5  14
ATOM     14  C   UNL     1       1.483  -2.477   7.552  0.00  0.00    +0.077 C 
ATOM     15  C   UNL     1       1.175  -1.095   8.165  0.00  0.00    +0.022 C 
ATOM     16  C   UNL     1       0.567  -1.422   9.552  0.00  0.00    +0.002 C 
ATOM     17  C   UNL     1       1.407  -2.637  10.016  0.00  0.00    +0.002 C 
ATOM     18  C   UNL     1       1.630  -3.457   8.728  0.00  0.00    +0.022 C 
ENDBRANCH   5  14
BRANCH   1  19
ATOM     19  S   UNL     1      -0.532  -0.553   5.680  0.00  0.00    -0.107 S 
BRANCH  19  20
ATOM     20  C   UNL     1       0.165  -0.968   4.058  0.00  0.00    +0.119 C 
ATOM     21  C   UNL     1       1.588  -1.503   4.236  0.00  0.00    +0.027 C 
BRANCH  20  22
ATOM     22  C   UNL     1       0.198   0.266   3.194  0.00  0.00    +0.192 C 
ATOM     23  O   UNL     1       0.236   1.365   3.707  0.00  0.00    -0.289 OA
BRANCH  22  30
ATOM     24  C   UNL     1       0.257   2.655   1.207  0.00  0.00    +0.047 C 
ATOM     25  C   UNL     1       0.209   1.184   0.881  0.00  0.00    -0.012 A 
ATOM     26  C   UNL     1       0.187   0.607  -0.409  0.00  0.00    +0.041 A 
ATOM     27  C   UNL     1       0.143  -0.769  -0.240  0.00  0.00    +0.024 A 
ATOM     28  N   UNL     1       0.137  -1.040   1.073  0.00  0.00    -0.355 N 
ATOM     29  H   UNL     1       0.110  -1.927   1.463  0.00  0.00    +0.166 HD
ATOM     30  C   UNL     1       0.183   0.143   1.783  0.00  0.00    +0.087 A 
ATOM     31  C   UNL     1       0.108  -1.791  -1.347  0.00  0.00    +0.064 C 
BRANCH  26  32
ATOM     32  C   UNL     1       0.207   1.327  -1.686  0.00  0.00    +0.162 C 
ATOM     33  O   UNL     1      -0.833   1.581  -2.256  0.00  0.00    -0.292 OA
ATOM     34  C   UNL     1       1.521   1.752  -2.291  0.00  0.00    +0.091 C 
ENDBRANCH  26  32
ENDBRANCH  22  30
ENDBRANCH  20  22
ENDBRANCH  19  20
ENDBRANCH   1  19
TORSDOF 7
