REMARK  Name = ZINC39685204
REMARK  10 active torsions:
REMARK  status: ('A' for Active; 'I' for Inactive)
REMARK    1  A    between atoms: C_1  and  O_2
REMARK    2  A    between atoms: O_2  and  C_3
REMARK    3  A    between atoms: C_6  and  C_9
REMARK    4  A    between atoms: C_9  and  C_10
REMARK    5  A    between atoms: C_10  and  C_11
REMARK    6  A    between atoms: C_15  and  C_24
REMARK    7  A    between atoms: N_26  and  C_27
REMARK    8  A    between atoms: C_27  and  C_28
REMARK    9  A    between atoms: C_28  and  O_29
REMARK   10  A    between atoms: O_29  and  C_30
REMARK                            x       y       z     vdW  Elec       q    Type
REMARK                         _______ _______ _______ _____ _____    ______ ____
ROOT
ATOM      1  C   UNL     1       2.059  -3.271   6.491  0.00  0.00    +0.216 C 
ATOM      2  O   UNL     1       3.249  -3.454   6.347  0.00  0.00    -0.276 OA
ATOM      3  N   UNL     1       1.448  -3.674   7.623  0.00  0.00    -0.300 N 
ATOM      4  C   UNL     1       0.014  -3.546   7.975  0.00  0.00    +0.121 C 
ATOM      5  C   UNL     1      -0.333  -4.871   8.690  0.00  0.00    +0.100 C 
ATOM      6  C   UNL     1       1.012  -5.390   9.227  0.00  0.00    -0.004 C 
ATOM      7  C   UNL     1       2.056  -4.351   8.793  0.00  0.00    +0.115 C 
ATOM      8  C   UNL     1       0.968  -5.493  10.748  0.00  0.00    -0.010 C 
ATOM      9  C   UNL     1       2.295  -6.066  11.255  0.00  0.00    -0.082 C 
ATOM     10  N   UNL     1       2.516  -7.390  10.661  0.00  0.00    +0.379 N 
ATOM     11  C   UNL     1       2.650  -7.270   9.204  0.00  0.00    -0.082 C 
ATOM     12  C   UNL     1       1.338  -6.748   8.611  0.00  0.00    -0.010 C 
ATOM     13  H   UNL     1       3.360  -7.791  11.043  0.00  0.00    -0.086 HD
ATOM     14  H   UNL     1       1.734  -7.990  10.878  0.00  0.00    -0.086 HD
ENDROOT
BRANCH   5  15
ATOM     15  C   UNL     1      -0.925  -5.854   7.713  0.00  0.00    +0.218 C 
ATOM     16  O   UNL     1      -0.597  -5.822   6.545  0.00  0.00    -0.275 OA
ATOM     17  N   UNL     1      -1.819  -6.769   8.136  0.00  0.00    -0.312 N 
ATOM     18  H   UNL     1      -2.081  -6.795   9.070  0.00  0.00    +0.149 HD
BRANCH  17  19
ATOM     19  C   UNL     1      -2.394  -7.725   7.187  0.00  0.00    +0.145 C 
BRANCH  19  20
ATOM     20  C   UNL     1      -3.372  -8.646   7.919  0.00  0.00    +0.248 C 
BRANCH  20  21
ATOM     21  O   UNL     1      -4.478  -7.879   8.401  0.00  0.00    -0.488 OA
BRANCH  21  22
ATOM     22  C   UNL     1      -5.445  -8.551   9.080  0.00  0.00    +0.156 A 
ATOM     23  C   UNL     1      -5.330  -9.918   9.283  0.00  0.00    +0.048 A 
ATOM     24  C   UNL     1      -6.314 -10.599   9.973  0.00  0.00    +0.004 A 
ATOM     25  C   UNL     1      -7.415  -9.919  10.462  0.00  0.00    +0.003 A 
ATOM     26  C   UNL     1      -7.534  -8.557  10.262  0.00  0.00    +0.042 A 
ATOM     27  C   UNL     1      -6.548  -7.869   9.577  0.00  0.00    +0.165 A 
ATOM     28  F   UNL     1      -6.662  -6.536   9.386  0.00  0.00    -0.202 F 
ENDBRANCH  21  22
ENDBRANCH  20  21
ENDBRANCH  19  20
ENDBRANCH  17  19
ENDBRANCH   5  15
BRANCH   1  29
ATOM     29  C   UNL     1       1.264  -2.594   5.405  0.00  0.00    +0.100 C 
BRANCH  29  30
ATOM     30  C   UNL     1       2.190  -2.241   4.239  0.00  0.00    +0.044 C 
BRANCH  30  34
ATOM     31  C   UNL     1      -0.064  -0.320   1.159  0.00  0.00    +0.120 A 
ATOM     32  C   UNL     1       0.527   0.436   2.161  0.00  0.00    +0.046 A 
ATOM     33  C   UNL     1       1.255  -0.188   3.156  0.00  0.00    +0.007 A 
ATOM     34  C   UNL     1       1.395  -1.563   3.153  0.00  0.00    -0.047 A 
ATOM     35  C   UNL     1       0.807  -2.318   2.155  0.00  0.00    +0.007 A 
ATOM     36  C   UNL     1       0.073  -1.700   1.161  0.00  0.00    +0.046 A 
BRANCH  31  38
ATOM     37  C   UNL     1      -0.880   1.716   0.240  0.00  0.00    +0.277 C 
ATOM     38  O   UNL     1      -0.781   0.291   0.179  0.00  0.00    -0.495 OA
ENDBRANCH  31  38
ENDBRANCH  30  34
ENDBRANCH  29  30
ENDBRANCH   1  29
TORSDOF 9
