REMARK  Name = ZINC36990681
REMARK  3 active torsions:
REMARK  status: ('A' for Active; 'I' for Inactive)
REMARK    1  A    between atoms: C_1  and  C_2
REMARK    2  A    between atoms: C_8  and  N_10
REMARK    3  A    between atoms: N_10  and  C_11
REMARK                            x       y       z     vdW  Elec       q    Type
REMARK                         _______ _______ _______ _____ _____    ______ ____
ROOT
ATOM      1  C   UNL     1       0.764   0.098   3.647  0.00  0.00    +0.046 A 
ATOM      2  C   UNL     1       2.119  -0.208   3.697  0.00  0.00    +0.030 A 
ATOM      3  C   UNL     1       2.809  -0.071   4.880  0.00  0.00    -0.016 A 
ATOM      4  C   UNL     1       2.170   0.370   6.032  0.00  0.00    +0.039 A 
ATOM      5  C   UNL     1       0.812   0.676   5.978  0.00  0.00    +0.045 A 
ATOM      6  C   UNL     1       0.117   0.546   4.792  0.00  0.00    +0.064 A 
ATOM      7 CL   UNL     1      -1.573   0.937   4.733  0.00  0.00    -0.082 Cl
ATOM      8  N   UNL     1       3.076   0.426   7.095  0.00  0.00    -0.285 N 
ATOM      9  C   UNL     1       4.311   0.043   6.730  0.00  0.00    +0.222 C 
ATOM     10  O   UNL     1       5.290  -0.007   7.445  0.00  0.00    -0.275 OA
ATOM     11  C   UNL     1       4.252  -0.315   5.260  0.00  0.00    +0.133 C 
ATOM     12  H   UNL     1       2.840   0.708   7.992  0.00  0.00    +0.155 HD
ENDROOT
BRANCH   1  13
ATOM     13  N   UNL     1       0.056  -0.038   2.447  0.00  0.00    -0.340 N 
ATOM     14  H   UNL     1      -0.888   0.180   2.413  0.00  0.00    +0.146 HD
BRANCH  13  21
ATOM     15  C   UNL     1      -0.019   1.526   0.010  0.00  0.00    +0.009 C 
ATOM     16  C   UNL     1       0.002  -0.004   0.002  0.00  0.00    +0.006 C 
ATOM     17  C   UNL     1      -1.433  -0.534   0.013  0.00  0.00    +0.005 C 
ATOM     18  C   UNL     1      -1.413  -2.063   0.004  0.00  0.00    +0.000 C 
ATOM     19  C   UNL     1      -0.673  -2.570   1.244  0.00  0.00    +0.002 C 
ATOM     20  C   UNL     1       0.763  -2.041   1.233  0.00  0.00    +0.022 C 
ATOM     21  C   UNL     1       0.742  -0.511   1.242  0.00  0.00    +0.073 C 
ENDBRANCH  13  21
ENDBRANCH   1  13
TORSDOF 2
