REMARK  Name = ZINC35655671
REMARK  5 active torsions:
REMARK  status: ('A' for Active; 'I' for Inactive)
REMARK    1  A    between atoms: C_1  and  C_2
REMARK    2  A    between atoms: C_2  and  C_3
REMARK    3  A    between atoms: C_3  and  C_5
REMARK    4  A    between atoms: C_3  and  N_15
REMARK    5  A    between atoms: C_16  and  C_21
REMARK                            x       y       z     vdW  Elec       q    Type
REMARK                         _______ _______ _______ _____ _____    ______ ____
ROOT
ATOM      1  C   UNL     1       0.718  -0.497  -1.257  0.00  0.00    +0.175 C 
ENDROOT
BRANCH   1   2
ATOM      2  C   UNL     1       0.632  -2.000  -1.327  0.00  0.00    +0.158 A 
ATOM      3  N   UNL     1       1.088  -2.846  -0.442  0.00  0.00    -0.132 NA
ATOM      4  N   UNL     1       0.833  -4.051  -0.821  0.00  0.00    -0.134 NA
ATOM      5  C   UNL     1       0.202  -4.024  -1.960  0.00  0.00    +0.134 A 
ATOM      6  N   UNL     1       0.062  -2.726  -2.315  0.00  0.00    -0.313 N 
ATOM      7  C   UNL     1      -0.565  -2.219  -3.536  0.00  0.00    +0.125 C 
ATOM      8  C   UNL     1      -1.629  -3.213  -4.011  0.00  0.00    +0.022 C 
ATOM      9  C   UNL     1      -0.994  -4.241  -4.946  0.00  0.00    +0.002 C 
ATOM     10  C   UNL     1       0.087  -5.032  -4.216  0.00  0.00    +0.008 C 
ATOM     11  C   UNL     1      -0.302  -5.205  -2.750  0.00  0.00    +0.076 C 
ENDBRANCH   1   2
BRANCH   1  12
ATOM     12  N   UNL     1       2.125  -0.091  -1.209  0.00  0.00    -0.256 N 
ATOM     13  C   UNL     1       2.752   0.701  -2.105  0.00  0.00    +0.039 A 
ATOM     14  C   UNL     1       4.038   0.838  -1.708  0.00  0.00    +0.067 A 
ATOM     15  C   UNL     1       4.204   0.101  -0.524  0.00  0.00    +0.138 A 
ATOM     16  N   UNL     1       3.053  -0.451  -0.224  0.00  0.00    -0.156 NA
ATOM     17  N   UNL     1       5.390  -0.018   0.210  0.00  0.00    -0.342 N 
ATOM     18  C   UNL     1       2.130   1.321  -3.329  0.00  0.00    +0.065 C 
ATOM     19  H   UNL     1       6.194   0.434  -0.090  0.00  0.00    +0.144 HD
ATOM     20  H   UNL     1       5.407  -0.551   1.020  0.00  0.00    +0.144 HD
ENDBRANCH   1  12
BRANCH   1  22
ATOM     21  C   UNL     1      -0.019   1.526   0.010  0.00  0.00    +0.006 C 
ATOM     22  C   UNL     1       0.002  -0.004   0.002  0.00  0.00    +0.031 C 
ENDBRANCH   1  22
TORSDOF 3
