REMARK  Name = ZINC22455153
REMARK  4 active torsions:
REMARK  status: ('A' for Active; 'I' for Inactive)
REMARK    1  A    between atoms: C_1  and  C_2
REMARK    2  A    between atoms: C_2  and  C_3
REMARK    3  A    between atoms: C_8  and  N_9
REMARK    4  A    between atoms: C_17  and  C_22
REMARK                            x       y       z     vdW  Elec       q    Type
REMARK                         _______ _______ _______ _____ _____    ______ ____
ROOT
ATOM      1  N   UNL     1      -2.229  -0.306   1.123  0.00  0.00    -0.297 N 
ATOM      2  C   UNL     1      -3.243  -1.075   1.693  0.00  0.00    +0.155 A 
ATOM      3  C   UNL     1      -3.736  -2.351   1.215  0.00  0.00    +0.080 A 
ATOM      4  C   UNL     1      -4.745  -2.753   2.089  0.00  0.00    +0.049 A 
ATOM      5  N   UNL     1      -4.865  -1.808   3.016  0.00  0.00    -0.279 N 
ATOM      6  H   UNL     1      -5.612  -1.915   3.817  0.00  0.00    +0.189 HD
ATOM      7  N   UNL     1      -3.943  -0.782   2.768  0.00  0.00    -0.158 NA
ATOM      8  C   UNL     1      -5.508  -4.041   1.920  0.00  0.00    +0.059 C 
ATOM      9  C   UNL     1      -5.383  -4.512   0.465  0.00  0.00    -0.001 C 
ATOM     10  C   UNL     1      -3.910  -4.580   0.048  0.00  0.00    +0.083 C 
ATOM     11  C   UNL     1      -3.340  -3.169   0.063  0.00  0.00    +0.168 C 
ATOM     12  O   UNL     1      -2.612  -2.751  -0.813  0.00  0.00    -0.292 OA
ATOM     13  C   UNL     1      -6.008  -5.902   0.333  0.00  0.00    +0.008 C 
ATOM     14  H   UNL     1      -1.763  -0.624   0.179  0.00  0.00    +0.154 HD
ENDROOT
BRANCH   1  20
ATOM     15  C   UNL     1      -0.889   1.702   1.123  0.00  0.00    -0.026 A 
ATOM     16  C   UNL     1      -0.478   2.865   1.744  0.00  0.00    +0.005 A 
ATOM     17  C   UNL     1      -0.974   3.197   2.991  0.00  0.00    +0.000 A 
ATOM     18  C   UNL     1      -1.883   2.367   3.622  0.00  0.00    +0.002 A 
ATOM     19  C   UNL     1      -2.298   1.202   3.007  0.00  0.00    +0.023 A 
ATOM     20  C   UNL     1      -1.806   0.868   1.751  0.00  0.00    +0.036 A 
BRANCH  15  22
ATOM     21  C   UNL     1      -1.318   1.827  -1.316  0.00  0.00    +0.009 C 
ATOM     22  C   UNL     1      -0.349   1.340  -0.236  0.00  0.00    +0.033 C 
ENDBRANCH  15  22
ENDBRANCH   1  20
TORSDOF 2
