REMARK  Name = ZINC21527979
REMARK  10 active torsions:
REMARK  status: ('A' for Active; 'I' for Inactive)
REMARK    1  A    between atoms: C_1  and  C_2
REMARK    2  A    between atoms: C_7  and  C_8
REMARK    3  A    between atoms: C_8  and  N_9
REMARK    4  A    between atoms: C_11  and  C_18
REMARK    5  A    between atoms: C_18  and  C_19
REMARK    6  A    between atoms: C_19  and  C_20
REMARK    7  A    between atoms: N_22  and  C_23
REMARK    8  A    between atoms: C_23  and  C_24
REMARK    9  A    between atoms: C_24  and  N_25
REMARK   10  A    between atoms: C_30  and  C_32
REMARK                            x       y       z     vdW  Elec       q    Type
REMARK                         _______ _______ _______ _____ _____    ______ ____
ROOT
ATOM      1  N   UNL     1       0.539  -0.194   4.211  0.00  0.00    -0.342 N 
ATOM      2  C   UNL     1      -0.345  -0.133   3.168  0.00  0.00    +0.090 A 
ATOM      3  C   UNL     1      -0.116   0.970   2.437  0.00  0.00    -0.022 A 
ATOM      4  C   UNL     1       1.010   1.670   3.060  0.00  0.00    +0.003 A 
ATOM      5  C   UNL     1       1.380   0.896   4.176  0.00  0.00    +0.050 A 
ATOM      6  C   UNL     1       2.435   1.318   4.979  0.00  0.00    +0.026 A 
ATOM      7  C   UNL     1       3.100   2.486   4.676  0.00  0.00    +0.002 A 
ATOM      8  C   UNL     1       2.728   3.249   3.578  0.00  0.00    +0.001 A 
ATOM      9  C   UNL     1       1.694   2.853   2.776  0.00  0.00    +0.010 A 
ENDROOT
BRANCH   1  10
ATOM     10  C   UNL     1       0.584  -1.260   5.215  0.00  0.00    +0.157 C 
BRANCH  10  17
ATOM     11  C   UNL     1      -2.271  -1.562   5.535  0.00  0.00    +0.044 C 
ATOM     12  C   UNL     1      -1.453  -0.932   6.632  0.00  0.00    -0.046 A 
ATOM     13  C   UNL     1      -2.067  -0.503   7.794  0.00  0.00    +0.004 A 
ATOM     14  C   UNL     1      -1.317   0.080   8.798  0.00  0.00    +0.000 A 
ATOM     15  C   UNL     1       0.048   0.229   8.643  0.00  0.00    +0.000 A 
ATOM     16  C   UNL     1       0.663  -0.204   7.483  0.00  0.00    +0.005 A 
ATOM     17  C   UNL     1      -0.087  -0.787   6.479  0.00  0.00    -0.025 A 
ENDBRANCH  10  17
ENDBRANCH   1  10
BRANCH   3  18
ATOM     18  C   UNL     1      -0.870   1.402   1.206  0.00  0.00    +0.046 C 
BRANCH  18  19
ATOM     19  C   UNL     1      -0.131   0.914  -0.042  0.00  0.00    +0.100 C 
BRANCH  19  20
ATOM     20  C   UNL     1      -0.885   1.346  -1.273  0.00  0.00    +0.213 C 
ATOM     21  O   UNL     1      -1.912   1.982  -1.163  0.00  0.00    -0.276 OA
ATOM     22  N   UNL     1      -0.418   1.026  -2.496  0.00  0.00    -0.317 N 
ATOM     23  H   UNL     1       0.513   0.449  -2.595  0.00  0.00    +0.149 HD
BRANCH  22  24
ATOM     24  C   UNL     1      -1.151   1.446  -3.693  0.00  0.00    +0.085 C 
BRANCH  24  25
ATOM     25  C   UNL     1      -0.412   0.958  -4.941  0.00  0.00    -0.059 C 
BRANCH  25  26
ATOM     26  N   UNL     1      -1.147   1.379  -6.141  0.00  0.00    +0.382 N 
ATOM     27  C   UNL     1      -1.137   2.841  -6.278  0.00  0.00    -0.078 C 
ATOM     28  C   UNL     1      -1.782   3.234  -7.609  0.00  0.00    -0.019 C 
ATOM     29  C   UNL     1      -3.220   2.710  -7.648  0.00  0.00    -0.003 C 
ATOM     30  C   UNL     1      -3.207   1.191  -7.454  0.00  0.00    -0.016 C 
ATOM     31  C   UNL     1      -2.520   0.857  -6.128  0.00  0.00    -0.072 C 
ATOM     32  C   UNL     1      -2.486  -0.661  -5.940  0.00  0.00    -0.013 C 
ATOM     33  H   UNL     1      -0.636   0.956  -7.018  0.00  0.00    -0.081 HD
ENDBRANCH  25  26
ENDBRANCH  24  25
ENDBRANCH  22  24
ENDBRANCH  19  20
ENDBRANCH  18  19
ENDBRANCH   3  18
TORSDOF 8
