REMARK  Name = ZINC43596800
REMARK  3 active torsions:
REMARK  status: ('A' for Active; 'I' for Inactive)
REMARK    1  A    between atoms: C_3  and  N_11
REMARK    2  A    between atoms: C_6  and  N_7
REMARK    3  A    between atoms: N_11  and  C_12
REMARK                            x       y       z     vdW  Elec       q    Type
REMARK                         _______ _______ _______ _____ _____    ______ ____
ROOT
ATOM      1  N   UNL     1       3.582   2.124  -0.021  0.00  0.00    -0.342 N 
ATOM      2  H   UNL     1       4.428   1.649  -0.032  0.00  0.00    +0.146 HD
ENDROOT
BRANCH   1   3
ATOM      3  C   UNL     1       3.564   3.589  -0.014  0.00  0.00    +0.055 C 
ATOM      4  C   UNL     1       3.542   4.130   1.440  0.00  0.00    +0.002 C 
ATOM      5  C   UNL     1       4.181   5.529   1.263  0.00  0.00    -0.077 C 
ATOM      6  N   UNL     1       5.227   5.345   0.234  0.00  0.00    +0.383 N 
ATOM      7  C   UNL     1       4.883   4.154  -0.577  0.00  0.00    -0.048 C 
ATOM      8  C   UNL     1       4.654   4.630  -2.025  0.00  0.00    -0.015 C 
ATOM      9  C   UNL     1       5.458   5.956  -2.084  0.00  0.00    -0.020 C 
ATOM     10  C   UNL     1       5.230   6.526  -0.657  0.00  0.00    -0.078 C 
ATOM     11  H   UNL     1       6.131   5.232   0.669  0.00  0.00    -0.081 HD
ENDBRANCH   1   3
BRANCH   1  14
ATOM     12  C   UNL     1      -0.017   1.378   0.010  0.00  0.00    +0.034 A 
ATOM     13  C   UNL     1       1.169   2.087   0.002  0.00  0.00    +0.026 A 
ATOM     14  C   UNL     1       2.381   1.410  -0.013  0.00  0.00    +0.042 A 
ATOM     15  C   UNL     1       2.397   0.020  -0.021  0.00  0.00    +0.041 A 
ATOM     16  C   UNL     1       1.207  -0.682  -0.013  0.00  0.00    +0.049 A 
ATOM     17  C   UNL     1       0.002  -0.004   0.002  0.00  0.00    +0.127 A 
ATOM     18 BR   UNL     1       4.044  -0.908  -0.042  0.00  0.00    -0.048 Br
BRANCH  17  19
ATOM     19  N   UNL     1      -1.270  -0.760   0.010  0.00  0.00    +0.056 N 
ATOM     20  O   UNL     1      -2.325  -0.168   0.023  0.00  0.00    -0.126 OA
ATOM     21  O   UNL     1      -1.256  -1.969   0.003  0.00  0.00    -0.126 OA
ENDBRANCH  17  19
ENDBRANCH   1  14
TORSDOF 3
