REMARK  Name = ZINC55851254
REMARK  8 active torsions:
REMARK  status: ('A' for Active; 'I' for Inactive)
REMARK    1  A    between atoms: C_1  and  C_2
REMARK    2  A    between atoms: C_2  and  N_3
REMARK    3  A    between atoms: N_12  and  C_15
REMARK    4  A    between atoms: C_15  and  C_16
REMARK    5  A    between atoms: N_18  and  C_19
REMARK    6  A    between atoms: N_18  and  C_20
REMARK    7  A    between atoms: C_23  and  C_27
REMARK    8  A    between atoms: C_25  and  C_26
REMARK                            x       y       z     vdW  Elec       q    Type
REMARK                         _______ _______ _______ _____ _____    ______ ____
ROOT
ATOM      1  N   UNL     1       0.711  -0.489   1.189  0.00  0.00    -0.261 N 
ATOM      2  C   UNL     1       2.046  -0.686   1.129  0.00  0.00    +0.264 A 
ATOM      3  O   UNL     1       2.663  -0.466   0.105  0.00  0.00    -0.267 OA
ATOM      4  C   UNL     1       2.734  -1.175   2.337  0.00  0.00    +0.063 A 
ATOM      5  C   UNL     1       4.108  -1.402   2.356  0.00  0.00    +0.015 A 
ATOM      6  C   UNL     1       4.706  -1.859   3.512  0.00  0.00    +0.001 A 
ATOM      7  C   UNL     1       3.947  -2.092   4.649  0.00  0.00    +0.002 A 
ATOM      8  C   UNL     1       2.585  -1.870   4.644  0.00  0.00    +0.027 A 
ATOM      9  C   UNL     1       1.967  -1.411   3.491  0.00  0.00    +0.059 A 
ATOM     10  N   UNL     1       0.600  -1.175   3.443  0.00  0.00    -0.284 N 
ATOM     11  C   UNL     1       0.022  -0.724   2.317  0.00  0.00    +0.333 A 
ATOM     12  O   UNL     1      -1.178  -0.526   2.318  0.00  0.00    -0.246 OA
ENDROOT
BRANCH   1  14
ATOM     13  C   UNL     1      -0.019   1.526   0.010  0.00  0.00    +0.027 C 
ATOM     14  C   UNL     1       0.002  -0.004   0.002  0.00  0.00    +0.126 C 
ENDBRANCH   1  14
BRANCH  10  15
ATOM     15  C   UNL     1      -0.219  -1.414   4.634  0.00  0.00    +0.223 C 
BRANCH  15  16
ATOM     16  C   UNL     1      -0.283  -0.156   5.461  0.00  0.00    +0.239 C 
ATOM     17  O   UNL     1       0.298   0.843   5.092  0.00  0.00    -0.273 OA
ATOM     18  N   UNL     1      -0.987  -0.140   6.610  0.00  0.00    -0.273 N 
ATOM     19  C   UNL     1      -1.689  -1.346   7.056  0.00  0.00    +0.138 C 
BRANCH  18  20
ATOM     20  C   UNL     1      -1.047   1.028   7.378  0.00  0.00    +0.039 A 
ATOM     21  C   UNL     1      -2.059   1.953   7.159  0.00  0.00    +0.024 A 
ATOM     22  C   UNL     1      -2.115   3.105   7.919  0.00  0.00    +0.005 A 
ATOM     23  C   UNL     1      -1.165   3.338   8.896  0.00  0.00    -0.050 A 
ATOM     24  C   UNL     1      -0.155   2.419   9.115  0.00  0.00    +0.008 A 
ATOM     25  C   UNL     1      -0.097   1.262   8.364  0.00  0.00    -0.029 A 
ATOM     26  C   UNL     1       0.999   0.257   8.609  0.00  0.00    +0.045 C 
ATOM     27  C   UNL     1      -1.228   4.597   9.722  0.00  0.00    +0.044 C 
ENDBRANCH  18  20
ENDBRANCH  15  16
ENDBRANCH  10  15
TORSDOF 4
