REMARK  Name = ZINC12716588
REMARK  10 active torsions:
REMARK  status: ('A' for Active; 'I' for Inactive)
REMARK    1  A    between atoms: C_1  and  C_2
REMARK    2  A    between atoms: C_5  and  C_7
REMARK    3  A    between atoms: N_10  and  C_12
REMARK    4  A    between atoms: C_12  and  C_13
REMARK    5  A    between atoms: N_15  and  C_16
REMARK    6  A    between atoms: N_15  and  C_22
REMARK    7  A    between atoms: C_16  and  C_17
REMARK    8  A    between atoms: C_22  and  C_24
REMARK    9  A    between atoms: C_22  and  C_29
REMARK   10  A    between atoms: N_31  and  C_32
REMARK                            x       y       z     vdW  Elec       q    Type
REMARK                         _______ _______ _______ _____ _____    ______ ____
ROOT
ATOM      1  C   UNL     1      -2.543  -0.205   1.927  0.00  0.00    +0.240 C 
ATOM      2  O   UNL     1      -2.720  -0.409   3.110  0.00  0.00    -0.273 OA
ATOM      3  N   UNL     1      -3.022   0.918   1.357  0.00  0.00    -0.279 N 
ENDROOT
BRANCH   1   4
ATOM      4  C   UNL     1      -1.787  -1.209   1.095  0.00  0.00    +0.264 C 
BRANCH   4   8
ATOM      5  C   UNL     1      -0.251  -3.562   3.231  0.00  0.00    +0.239 A 
ATOM      6  N   UNL     1      -1.406  -4.178   2.938  0.00  0.00    -0.105 NA
ATOM      7  N   UNL     1      -2.065  -3.399   2.148  0.00  0.00    -0.045 NA
ATOM      8  N   UNL     1      -1.375  -2.333   1.940  0.00  0.00    -0.154 N 
ATOM      9  N   UNL     1      -0.263  -2.411   2.585  0.00  0.00    -0.127 NA
BRANCH   5  14
ATOM     10  C   UNL     1       4.074  -3.849   5.763  0.00  0.00    +0.086 C 
ATOM     11  C   UNL     1       2.717  -4.205   5.213  0.00  0.00    +0.103 A 
ATOM     12  C   UNL     1       2.040  -5.342   5.468  0.00  0.00    +0.045 A 
ATOM     13  C   UNL     1       0.822  -5.263   4.763  0.00  0.00    +0.053 A 
ATOM     14  C   UNL     1       0.827  -4.075   4.104  0.00  0.00    +0.175 A 
ATOM     15  O   UNL     1       1.981  -3.442   4.389  0.00  0.00    -0.457 OA
ENDBRANCH   5  14
ENDBRANCH   4   8
ENDBRANCH   1   4
BRANCH   3  16
ATOM     16  C   UNL     1      -2.808   1.164  -0.071  0.00  0.00    +0.151 C 
BRANCH  16  17
ATOM     17  C   UNL     1      -1.585   2.025  -0.255  0.00  0.00    +0.007 A 
ATOM     18  C   UNL     1      -0.295   1.649  -0.430  0.00  0.00    +0.013 A 
ATOM     19  C   UNL     1       0.672   2.624  -0.587  0.00  0.00    +0.008 A 
ATOM     20  C   UNL     1       0.303   3.928  -0.553  0.00  0.00    +0.045 A 
ATOM     21  S   UNL     1      -1.459   3.805  -0.295  0.00  0.00    -0.100 S 
ENDBRANCH  16  17
ENDBRANCH   3  16
BRANCH   3  22
ATOM     22  C   UNL     1      -3.757   1.893   2.167  0.00  0.00    +0.199 C 
BRANCH  22  23
ATOM     23  C   UNL     1      -5.030   1.267   2.675  0.00  0.00    +0.019 A 
ATOM     24  C   UNL     1      -6.251   1.832   2.844  0.00  0.00    +0.013 A 
ATOM     25  C   UNL     1      -7.287   1.055   3.326  0.00  0.00    +0.008 A 
ATOM     26  C   UNL     1      -7.050  -0.245   3.627  0.00  0.00    +0.045 A 
ATOM     27  S   UNL     1      -5.319  -0.408   3.219  0.00  0.00    -0.099 S 
ENDBRANCH  22  23
BRANCH  22  28
ATOM     28  C   UNL     1      -2.906   2.320   3.335  0.00  0.00    +0.239 C 
ATOM     29  O   UNL     1      -1.795   1.855   3.477  0.00  0.00    -0.273 OA
ATOM     30  N   UNL     1      -3.379   3.219   4.221  0.00  0.00    -0.311 N 
ATOM     31  H   UNL     1      -4.268   3.590   4.107  0.00  0.00    +0.149 HD
BRANCH  30  32
ATOM     32  C   UNL     1      -2.552   3.633   5.356  0.00  0.00    +0.073 C 
ATOM     33  C   UNL     1      -2.766   2.673   6.545  0.00  0.00    +0.022 C 
ATOM     34  C   UNL     1      -2.713   3.593   7.790  0.00  0.00    +0.002 C 
ATOM     35  C   UNL     1      -3.439   4.871   7.302  0.00  0.00    +0.002 C 
ATOM     36  C   UNL     1      -2.979   5.031   5.838  0.00  0.00    +0.022 C 
ENDBRANCH  30  32
ENDBRANCH  22  28
ENDBRANCH   3  22
TORSDOF 9
