REMARK  Name = ZINC02794177
REMARK  11 active torsions:
REMARK  status: ('A' for Active; 'I' for Inactive)
REMARK    1  A    between atoms: C_1  and  C_2
REMARK    2  A    between atoms: C_2  and  C_3
REMARK    3  A    between atoms: C_6  and  C_8
REMARK    4  A    between atoms: C_10  and  C_31
REMARK    5  A    between atoms: C_14  and  C_17
REMARK    6  A    between atoms: N_19  and  C_20
REMARK    7  A    between atoms: C_20  and  C_22
REMARK    8  A    between atoms: C_20  and  C_23
REMARK    9  A    between atoms: N_25  and  C_29
REMARK   10  A    between atoms: C_27  and  C_28
REMARK   11  A    between atoms: C_29  and  C_30
REMARK                            x       y       z     vdW  Elec       q    Type
REMARK                         _______ _______ _______ _____ _____    ______ ____
ROOT
ATOM      1  C   UNL     1      -1.128  -0.948   0.007  0.00  0.00    +0.082 A 
ATOM      2  C   UNL     1      -2.456  -0.463   0.023  0.00  0.00    +0.061 A 
ATOM      3  C   UNL     1      -3.481  -1.345   0.027  0.00  0.00    +0.149 A 
ATOM      4  N   UNL     1      -3.212  -2.685   0.017  0.00  0.00    -0.209 N 
ATOM      5  C   UNL     1      -1.916  -3.120   0.003  0.00  0.00    +0.169 A 
ATOM      6  N   UNL     1      -0.904  -2.255  -0.008  0.00  0.00    -0.226 NA
ATOM      7  C   UNL     1      -1.962  -4.529  -0.005  0.00  0.00    +0.100 A 
ATOM      8  C   UNL     1      -3.321  -4.893   0.006  0.00  0.00    +0.150 A 
ATOM      9  N   UNL     1      -4.047  -3.807   0.019  0.00  0.00    -0.172 NA
ENDROOT
BRANCH   1  13
ATOM     10  C   UNL     1       1.688   2.064  -0.003  0.00  0.00    -0.010 A 
ATOM     11  C   UNL     1       2.210   0.812  -0.015  0.00  0.00    +0.012 A 
ATOM     12  C   UNL     1       1.359  -0.270  -0.012  0.00  0.00    +0.018 A 
ATOM     13  C   UNL     1       0.002  -0.004   0.002  0.00  0.00    +0.038 A 
ATOM     14  S   UNL     1      -0.022   1.780   0.012  0.00  0.00    -0.092 S 
BRANCH  10  16
ATOM     15  C   UNL     1       2.651   3.836  -1.445  0.00  0.00    +0.009 C 
ATOM     16  C   UNL     1       2.418   3.382  -0.003  0.00  0.00    +0.039 C 
ENDBRANCH  10  16
ENDBRANCH   1  13
BRANCH   7  17
ATOM     17  C   UNL     1      -0.815  -5.439  -0.021  0.00  0.00    +0.250 C 
ATOM     18  O   UNL     1       0.317  -4.991  -0.030  0.00  0.00    -0.270 OA
ATOM     19  N   UNL     1      -1.012  -6.772  -0.027  0.00  0.00    -0.305 N 
ATOM     20  H   UNL     1      -2.035  -7.177  -0.019  0.00  0.00    +0.150 HD
BRANCH  19  21
ATOM     21  C   UNL     1       0.136  -7.682  -0.044  0.00  0.00    +0.104 C 
ATOM     22  C   UNL     1       0.599  -7.893  -1.486  0.00  0.00    +0.033 C 
BRANCH  21  23
ATOM     23  C   UNL     1      -0.265  -9.007   0.553  0.00  0.00    +0.013 A 
ATOM     24  C   UNL     1      -1.520  -9.512   0.600  0.00  0.00    +0.114 A 
ATOM     25  N   UNL     1      -1.457 -10.713   1.212  0.00  0.00    -0.271 N 
ATOM     26  N   UNL     1      -0.119 -10.954   1.552  0.00  0.00    -0.176 NA
ATOM     27  C   UNL     1       0.595  -9.934   1.151  0.00  0.00    +0.065 A 
ATOM     28  C   UNL     1       2.086  -9.781   1.311  0.00  0.00    +0.068 C 
BRANCH  25  29
ATOM     29  C   UNL     1      -2.587 -11.608   1.473  0.00  0.00    +0.140 C 
ATOM     30  C   UNL     1      -2.296 -12.985   0.875  0.00  0.00    +0.029 C 
ENDBRANCH  25  29
ENDBRANCH  21  23
ENDBRANCH  19  21
ENDBRANCH   7  17
BRANCH   3  31
ATOM     31  C   UNL     1      -4.907  -0.855   0.044  0.00  0.00    +0.434 C 
ATOM     32  F   UNL     1      -4.922   0.540  -0.062  0.00  0.00    -0.164 F 
ATOM     33  F   UNL     1      -5.604  -1.413  -1.033  0.00  0.00    -0.164 F 
ATOM     34  F   UNL     1      -5.517  -1.238   1.243  0.00  0.00    -0.164 F 
ENDBRANCH   3  31
TORSDOF 7
