REMARK  Name = ZINC01294390
REMARK  10 active torsions:
REMARK  status: ('A' for Active; 'I' for Inactive)
REMARK    1  A    between atoms: C_1  and  C_2
REMARK    2  A    between atoms: C_2  and  C_4
REMARK    3  A    between atoms: C_2  and  N_11
REMARK    4  A    between atoms: C_4  and  C_5
REMARK    5  A    between atoms: C_12  and  C_14
REMARK    6  A    between atoms: C_14  and  S_15
REMARK    7  A    between atoms: S_15  and  C_16
REMARK    8  A    between atoms: C_28  and  C_30
REMARK    9  A    between atoms: C_28  and  C_31
REMARK   10  A    between atoms: N_34  and  C_35
REMARK                            x       y       z     vdW  Elec       q    Type
REMARK                         _______ _______ _______ _____ _____    ______ ____
ROOT
ATOM      1  C   UNL     1      -5.432  -3.226  -3.188  0.00  0.00    +0.198 A 
ATOM      2  N   UNL     1      -5.923  -3.954  -2.215  0.00  0.00    -0.120 NA
ATOM      3  N   UNL     1      -7.318  -3.945  -2.327  0.00  0.00    -0.109 NA
ATOM      4  C   UNL     1      -7.639  -3.211  -3.367  0.00  0.00    +0.245 A 
ATOM      5  N   UNL     1      -6.479  -2.740  -3.925  0.00  0.00    -0.249 N 
ATOM      6  C   UNL     1      -6.524  -1.929  -5.039  0.00  0.00    +0.102 A 
ATOM      7  C   UNL     1      -7.729  -1.560  -5.627  0.00  0.00    +0.075 A 
ATOM      8  C   UNL     1      -7.617  -0.697  -6.800  0.00  0.00    -0.018 A 
ATOM      9  C   UNL     1      -6.353  -0.375  -7.152  0.00  0.00    +0.021 A 
ATOM     10  S   UNL     1      -5.337  -1.193  -5.961  0.00  0.00    -0.072 S 
ATOM     11  C   UNL     1      -5.956   0.489  -8.308  0.00  0.00    +0.203 C 
ATOM     12  O   UNL     1      -7.107   0.646  -9.154  0.00  0.00    -0.368 OA
ATOM     13  C   UNL     1      -8.294   1.014  -8.447  0.00  0.00    +0.068 C 
ATOM     14  C   UNL     1      -8.794  -0.165  -7.605  0.00  0.00    +0.071 C 
ATOM     15  C   UNL     1      -9.377   1.416  -9.451  0.00  0.00    +0.041 C 
ATOM     16  C   UNL     1      -7.992   2.201  -7.530  0.00  0.00    +0.041 C 
ATOM     17  C   UNL     1      -8.960  -2.086  -4.994  0.00  0.00    +0.268 A 
ATOM     18  O   UNL     1     -10.052  -1.806  -5.455  0.00  0.00    -0.266 OA
ATOM     19  N   UNL     1      -8.868  -2.880  -3.915  0.00  0.00    -0.245 N 
ENDROOT
BRANCH  19  20
ATOM     20  C   UNL     1     -10.038  -3.370  -3.322  0.00  0.00    +0.053 A 
ATOM     21  C   UNL     1     -10.570  -4.584  -3.734  0.00  0.00    +0.026 A 
ATOM     22  C   UNL     1     -11.724  -5.065  -3.147  0.00  0.00    +0.002 A 
ATOM     23  C   UNL     1     -12.349  -4.339  -2.150  0.00  0.00    +0.000 A 
ATOM     24  C   UNL     1     -11.821  -3.129  -1.737  0.00  0.00    +0.002 A 
ATOM     25  C   UNL     1     -10.664  -2.645  -2.316  0.00  0.00    +0.026 A 
ENDBRANCH  19  20
BRANCH   1  26
ATOM     26  S   UNL     1      -3.724  -2.919  -3.491  0.00  0.00    -0.076 S 
BRANCH  26  27
ATOM     27  C   UNL     1      -2.873  -3.836  -2.176  0.00  0.00    +0.173 C 
BRANCH  27  29
ATOM     28  N   UNL     1      -0.546  -4.250  -1.448  0.00  0.00    -0.312 N 
ATOM     29  C   UNL     1      -1.384  -3.656  -2.320  0.00  0.00    +0.224 C 
ATOM     30  O   UNL     1      -0.940  -2.976  -3.221  0.00  0.00    -0.275 OA
ATOM     31  H   UNL     1      -0.901  -4.794  -0.728  0.00  0.00    +0.149 HD
BRANCH  28  33
ATOM     32  C   UNL     1       1.329  -2.781  -0.892  0.00  0.00    +0.028 C 
ATOM     33  C   UNL     1       0.902  -4.075  -1.589  0.00  0.00    +0.074 C 
BRANCH  33  34
ATOM     34  C   UNL     1       1.623  -5.262  -0.947  0.00  0.00    +0.057 C 
BRANCH  34  35
ATOM     35  C   UNL     1       1.298  -6.520  -1.711  0.00  0.00    -0.046 A 
ATOM     36  C   UNL     1       0.202  -7.282  -1.352  0.00  0.00    +0.004 A 
ATOM     37  C   UNL     1      -0.096  -8.436  -2.053  0.00  0.00    +0.000 A 
ATOM     38  C   UNL     1       0.701  -8.827  -3.112  0.00  0.00    +0.000 A 
ATOM     39  C   UNL     1       1.796  -8.064  -3.472  0.00  0.00    +0.000 A 
ATOM     40  C   UNL     1       2.092  -6.908  -2.774  0.00  0.00    +0.004 A 
ENDBRANCH  34  35
ENDBRANCH  33  34
ENDBRANCH  28  33
ENDBRANCH  27  29
ENDBRANCH  26  27
ENDBRANCH   1  26
TORSDOF 7
