REMARK  Name = ZINC39456407
REMARK  10 active torsions:
REMARK  status: ('A' for Active; 'I' for Inactive)
REMARK    1  A    between atoms: C_1  and  C_2
REMARK    2  A    between atoms: C_2  and  C_3
REMARK    3  A    between atoms: C_2  and  S_4
REMARK    4  A    between atoms: S_4  and  C_7
REMARK    5  A    between atoms: C_23  and  S_24
REMARK    6  A    between atoms: S_24  and  C_25
REMARK    7  A    between atoms: N_28  and  S_29
REMARK    8  A    between atoms: S_29  and  C_32
REMARK    9  A    between atoms: C_32  and  C_33
REMARK   10  A    between atoms: C_32  and  C_34
REMARK                            x       y       z     vdW  Elec       q    Type
REMARK                         _______ _______ _______ _____ _____    ______ ____
ROOT
ATOM      1  C   UNL     1      -3.697   0.393  -1.521  0.00  0.00    +0.222 C 
ATOM      2  C   UNL     1      -4.987  -0.422  -1.674  0.00  0.00    +0.127 C 
ATOM      3  C   UNL     1      -4.637  -1.861  -1.952  0.00  0.00    +0.186 C 
ATOM      4  O   UNL     1      -5.388  -2.744  -1.587  0.00  0.00    -0.290 OA
ATOM      5  C   UNL     1      -3.443  -2.195  -2.632  0.00  0.00    +0.134 A 
ATOM      6  C   UNL     1      -2.560  -1.198  -2.995  0.00  0.00    +0.084 A 
ATOM      7  C   UNL     1      -1.318  -1.543  -3.710  0.00  0.00    +0.100 A 
ATOM      8  C   UNL     1      -1.072  -2.912  -3.994  0.00  0.00    +0.069 A 
ATOM      9  C   UNL     1       0.085  -3.292  -4.663  0.00  0.00    +0.026 A 
ATOM     10  C   UNL     1       0.982  -2.285  -5.039  0.00  0.00    +0.015 A 
ATOM     11  C   UNL     1       0.663  -0.892  -4.715  0.00  0.00    +0.073 A 
ATOM     12  N   UNL     1      -0.467  -0.600  -4.070  0.00  0.00    -0.245 NA
ATOM     13  C   UNL     1       1.568   0.113  -5.097  0.00  0.00    +0.028 A 
ATOM     14  C   UNL     1       2.715  -0.219  -5.754  0.00  0.00    +0.003 A 
ATOM     15  C   UNL     1       3.027  -1.535  -6.066  0.00  0.00    +0.015 A 
ATOM     16  C   UNL     1       2.184  -2.574  -5.721  0.00  0.00    +0.017 A 
ATOM     17  C   UNL     1      -2.061  -3.913  -3.566  0.00  0.00    +0.281 A 
ATOM     18  O   UNL     1      -1.869  -5.093  -3.798  0.00  0.00    -0.265 OA
ATOM     19  N   UNL     1      -3.175  -3.529  -2.920  0.00  0.00    -0.174 N 
ATOM     20  N   UNL     1      -2.838   0.119  -2.683  0.00  0.00    -0.319 N 
ATOM     21  H   UNL     1      -2.477   0.845  -3.216  0.00  0.00    +0.148 HD
ENDROOT
BRANCH   1  22
ATOM     22  S   UNL     1      -2.842  -0.097   0.002  0.00  0.00    -0.010 S 
ATOM     23  O   UNL     1      -2.433  -1.452  -0.128  0.00  0.00    -0.172 OA
ATOM     24  O   UNL     1      -3.647   0.279   1.111  0.00  0.00    -0.172 OA
BRANCH  22  26
ATOM     25  C   UNL     1      -1.780   2.424  -0.010  0.00  0.00    +0.031 C 
ATOM     26  C   UNL     1      -1.362   0.952  -0.015  0.00  0.00    +0.126 C 
ATOM     27  C   UNL     1      -0.515   0.659   1.225  0.00  0.00    +0.031 C 
ENDBRANCH  22  26
ENDBRANCH   1  22
BRANCH  19  28
ATOM     28  S   UNL     1      -4.265  -4.683  -2.449  0.00  0.00    +0.060 S 
ATOM     29  O   UNL     1      -5.518  -4.217  -2.931  0.00  0.00    -0.153 OA
ATOM     30  O   UNL     1      -3.720  -5.909  -2.918  0.00  0.00    -0.153 OA
BRANCH  28  31
ATOM     31  C   UNL     1      -4.237  -4.639  -0.636  0.00  0.00    +0.148 C 
ATOM     32  C   UNL     1      -5.304  -5.588  -0.086  0.00  0.00    +0.033 C 
ATOM     33  C   UNL     1      -2.859  -5.078  -0.136  0.00  0.00    +0.033 C 
ENDBRANCH  28  31
ENDBRANCH  19  28
BRANCH  16  34
ATOM     34  S   UNL     1       2.602  -4.236  -6.128  0.00  0.00    -0.128 S 
ATOM     35  C   UNL     1       4.199  -4.091  -6.977  0.00  0.00    +0.090 C 
ENDBRANCH  16  34
TORSDOF 5
