REMARK  Name = ZINC35870986
REMARK  6 active torsions:
REMARK  status: ('A' for Active; 'I' for Inactive)
REMARK    1  A    between atoms: C_5  and  C_7
REMARK    2  A    between atoms: C_7  and  N_8
REMARK    3  A    between atoms: C_9  and  C_11
REMARK    4  A    between atoms: C_16  and  N_35
REMARK    5  A    between atoms: N_24  and  C_27
REMARK    6  A    between atoms: C_27  and  C_28
REMARK                            x       y       z     vdW  Elec       q    Type
REMARK                         _______ _______ _______ _____ _____    ______ ____
ROOT
ATOM      1  C   UNL     1       1.817  -4.512   2.961  0.00  0.00    +0.098 C 
ATOM      2  C   UNL     1       0.748  -3.965   3.883  0.00  0.00    +0.051 C 
ATOM      3  C   UNL     1      -0.553  -4.698   3.736  0.00  0.00    -0.023 A 
ATOM      4  C   UNL     1      -1.744  -4.040   3.981  0.00  0.00    +0.038 A 
ATOM      5  C   UNL     1      -2.947  -4.708   3.851  0.00  0.00    +0.127 A 
ATOM      6  C   UNL     1      -2.964  -6.039   3.475  0.00  0.00    +0.034 A 
ATOM      7  C   UNL     1      -1.779  -6.702   3.228  0.00  0.00    +0.025 A 
ATOM      8  C   UNL     1      -0.567  -6.032   3.356  0.00  0.00    +0.033 A 
ATOM      9  N   UNL     1       0.624  -6.698   3.097  0.00  0.00    -0.329 N 
ATOM     10  C   UNL     1       1.892  -6.013   2.916  0.00  0.00    +0.069 C 
ATOM     11  C   UNL     1       2.903  -6.574   3.917  0.00  0.00    -0.055 C 
ATOM     12  N   UNL     1       2.980  -8.033   3.751  0.00  0.00    +0.385 N 
ATOM     13  C   UNL     1       1.685  -8.654   4.050  0.00  0.00    -0.059 C 
ATOM     14  C   UNL     1       0.641  -8.174   3.040  0.00  0.00    +0.087 C 
ATOM     15  H   UNL     1       3.240  -8.247   2.800  0.00  0.00    -0.081 HD
ENDROOT
BRANCH   1  17
ATOM     16  N   UNL     1       1.488  -2.679   1.333  0.00  0.00    -0.311 N 
ATOM     17  C   UNL     1       1.550  -4.005   1.567  0.00  0.00    +0.218 C 
ATOM     18  O   UNL     1       1.392  -4.790   0.656  0.00  0.00    -0.275 OA
ATOM     19  H   UNL     1       1.614  -2.051   2.062  0.00  0.00    +0.149 HD
BRANCH  16  20
ATOM     20  C   UNL     1       1.228  -2.186  -0.022  0.00  0.00    +0.142 C 
BRANCH  20  25
ATOM     21  C   UNL     1      -0.017   1.378   0.010  0.00  0.00    +0.000 A 
ATOM     22  C   UNL     1       1.171   2.087   0.002  0.00  0.00    +0.003 A 
ATOM     23  C   UNL     1       2.377   1.414  -0.013  0.00  0.00    +0.038 A 
ATOM     24  C   UNL     1       2.397   0.029  -0.021  0.00  0.00    +0.128 A 
ATOM     25  C   UNL     1       1.208  -0.679  -0.013  0.00  0.00    +0.005 A 
ATOM     26  C   UNL     1       0.002  -0.004   0.002  0.00  0.00    +0.008 A 
ATOM     27  F   UNL     1       3.577  -0.630  -0.036  0.00  0.00    -0.205 F 
ENDBRANCH  20  25
ENDBRANCH  16  20
ENDBRANCH   1  17
BRANCH   5  28
ATOM     28  N   UNL     1      -4.219  -3.998   4.113  0.00  0.00    +0.056 N 
ATOM     29  O   UNL     1      -4.205  -2.835   4.442  0.00  0.00    -0.126 OA
ATOM     30  O   UNL     1      -5.272  -4.582   4.000  0.00  0.00    -0.126 OA
ENDBRANCH   5  28
BRANCH  12  31
ATOM     31  C   UNL     1       3.998  -8.571   4.663  0.00  0.00    -0.043 C 
BRANCH  31  32
ATOM     32  C   UNL     1       4.168 -10.047   4.412  0.00  0.00    -0.064 A 
ATOM     33  C   UNL     1       3.392 -10.960   5.101  0.00  0.00    +0.003 A 
ATOM     34  C   UNL     1       3.547 -12.314   4.871  0.00  0.00    +0.020 A 
ATOM     35  C   UNL     1       4.480 -12.756   3.949  0.00  0.00    +0.041 A 
ATOM     36  C   UNL     1       5.256 -11.842   3.259  0.00  0.00    +0.020 A 
ATOM     37  C   UNL     1       5.096 -10.488   3.487  0.00  0.00    +0.003 A 
ATOM     38 CL   UNL     1       4.676 -14.456   3.659  0.00  0.00    -0.084 Cl
ENDBRANCH  31  32
ENDBRANCH  12  31
TORSDOF 6
