REMARK  Name = ZINC16957186
REMARK  8 active torsions:
REMARK  status: ('A' for Active; 'I' for Inactive)
REMARK    1  A    between atoms: C_1  and  C_2
REMARK    2  A    between atoms: C_8  and  C_12
REMARK    3  A    between atoms: C_12  and  C_13
REMARK    4  A    between atoms: C_13  and  N_14
REMARK    5  A    between atoms: C_17  and  C_28
REMARK    6  A    between atoms: N_21  and  C_22
REMARK    7  A    between atoms: C_28  and  C_29
REMARK    8  A    between atoms: N_31  and  C_32
REMARK                            x       y       z     vdW  Elec       q    Type
REMARK                         _______ _______ _______ _____ _____    ______ ____
ROOT
ATOM      1  N   UNL     1      -4.465   0.821  -1.413  0.00  0.00    -0.250 N 
ATOM      2  C   UNL     1      -4.682  -0.478  -1.530  0.00  0.00    +0.235 C 
ATOM      3  O   UNL     1      -3.775  -1.275  -1.641  0.00  0.00    -0.274 OA
ATOM      4  C   UNL     1      -6.139  -0.911  -1.511  0.00  0.00    +0.149 C 
ATOM      5  S   UNL     1      -6.966   0.719  -1.330  0.00  0.00    -0.077 S 
ATOM      6  C   UNL     1      -5.496   1.733  -1.291  0.00  0.00    +0.159 C 
ATOM      7  N   UNL     1      -5.415   3.028  -1.174  0.00  0.00    -0.260 NA
ENDROOT
BRANCH   7   8
ATOM      8  C   UNL     1      -6.634   3.830  -1.056  0.00  0.00    +0.108 C 
ATOM      9  C   UNL     1      -6.706   4.824  -2.217  0.00  0.00    +0.027 C 
ATOM     10  C   UNL     1      -7.979   5.663  -2.093  0.00  0.00    +0.002 C 
ATOM     11  C   UNL     1      -7.960   6.427  -0.768  0.00  0.00    +0.000 C 
ATOM     12  C   UNL     1      -7.889   5.433   0.393  0.00  0.00    +0.002 C 
ATOM     13  C   UNL     1      -6.615   4.595   0.270  0.00  0.00    +0.027 C 
ENDBRANCH   7   8
BRANCH   1  14
ATOM     14  C   UNL     1      -3.085   1.311  -1.418  0.00  0.00    +0.120 C 
BRANCH  14  15
ATOM     15  C   UNL     1      -2.551   1.349   0.015  0.00  0.00    +0.056 C 
BRANCH  15  23
ATOM     16  C   UNL     1      -1.403   6.961   0.068  0.00  0.00    +0.044 C 
ATOM     17  C   UNL     1      -0.672   5.643   0.046  0.00  0.00    -0.050 A 
ATOM     18  C   UNL     1       0.716   5.626   0.028  0.00  0.00    +0.005 A 
ATOM     19  C   UNL     1       1.404   4.433   0.007  0.00  0.00    +0.026 A 
ATOM     20  C   UNL     1       0.703   3.231   0.005  0.00  0.00    +0.047 A 
ATOM     21  C   UNL     1      -0.704   3.254   0.023  0.00  0.00    +0.003 A 
ATOM     22  C   UNL     1      -1.380   4.475   0.044  0.00  0.00    +0.013 A 
ATOM     23  C   UNL     1      -1.131   1.853   0.010  0.00  0.00    -0.021 A 
ATOM     24  C   UNL     1      -0.018   1.103  -0.006  0.00  0.00    +0.087 A 
ATOM     25  N   UNL     1       1.087   1.909  -0.013  0.00  0.00    -0.360 N 
ATOM     26  H   UNL     1       2.156   1.648  -0.029  0.00  0.00    +0.165 HD
ENDBRANCH  15  23
ENDBRANCH  14  15
ENDBRANCH   1  14
BRANCH   4  27
ATOM     27  C   UNL     1      -6.529  -1.587  -2.826  0.00  0.00    +0.120 C 
BRANCH  27  28
ATOM     28  C   UNL     1      -7.993  -1.943  -2.795  0.00  0.00    +0.219 C 
ATOM     29  O   UNL     1      -8.659  -1.681  -1.816  0.00  0.00    -0.275 OA
ATOM     30  N   UNL     1      -8.562  -2.552  -3.854  0.00  0.00    -0.285 N 
ATOM     31  H   UNL     1      -7.977  -2.721  -4.770  0.00  0.00    +0.155 HD
BRANCH  30  32
ATOM     32  C   UNL     1      -9.896  -2.969  -3.788  0.00  0.00    +0.033 A 
ATOM     33  C   UNL     1     -10.294  -4.130  -4.436  0.00  0.00    +0.023 A 
ATOM     34  C   UNL     1     -11.611  -4.542  -4.365  0.00  0.00    +0.002 A 
ATOM     35  C   UNL     1     -12.534  -3.793  -3.658  0.00  0.00    +0.000 A 
ATOM     36  C   UNL     1     -12.141  -2.633  -3.016  0.00  0.00    +0.002 A 
ATOM     37  C   UNL     1     -10.825  -2.219  -3.079  0.00  0.00    +0.023 A 
ENDBRANCH  30  32
ENDBRANCH  27  28
ENDBRANCH   4  27
TORSDOF 7
