REMARK  Name = ZINC12332052
REMARK  6 active torsions:
REMARK  status: ('A' for Active; 'I' for Inactive)
REMARK    1  A    between atoms: C_1  and  C_2
REMARK    2  A    between atoms: C_2  and  O_3
REMARK    3  A    between atoms: O_3  and  C_4
REMARK    4  A    between atoms: C_9  and  N_66
REMARK    5  A    between atoms: C_12  and  N_66
REMARK    6  A    between atoms: N_23  and  C_26
REMARK                            x       y       z     vdW  Elec       q    Type
REMARK                         _______ _______ _______ _____ _____    ______ ____
ROOT
ATOM      1  C   UNL     1     -11.224   2.220  -1.184  0.00  0.00    -0.066 C 
ATOM      2  C   UNL     1     -10.240   3.088  -1.974  0.00  0.00    -0.011 C 
ATOM      3  C   UNL     1      -8.812   2.587  -1.753  0.00  0.00    +0.035 C 
ATOM      4  C   UNL     1      -8.550   2.495  -0.252  0.00  0.00    -0.023 A 
ATOM      5  C   UNL     1      -9.575   2.462   0.626  0.00  0.00    -0.006 A 
ATOM      6  S   UNL     1      -8.809   2.357   2.221  0.00  0.00    -0.073 S 
ATOM      7  C   UNL     1      -7.112   2.357   1.702  0.00  0.00    +0.116 A 
ATOM      8  C   UNL     1      -7.199   2.439   0.303  0.00  0.00    +0.076 A 
ATOM      9  C   UNL     1      -5.947   2.462  -0.396  0.00  0.00    +0.263 A 
ATOM     10  O   UNL     1      -5.918   2.536  -1.612  0.00  0.00    -0.267 OA
ATOM     11  N   UNL     1      -4.805   2.396   0.313  0.00  0.00    -0.295 N 
ATOM     12  C   UNL     1      -4.819   2.318   1.669  0.00  0.00    +0.203 A 
ATOM     13  N   UNL     1      -5.943   2.300   2.334  0.00  0.00    -0.230 NA
ATOM     14  C   UNL     1     -11.040   2.505   0.313  0.00  0.00    +0.027 C 
ENDROOT
BRANCH  11  15
ATOM     15  C   UNL     1      -3.521   2.413  -0.392  0.00  0.00    +0.100 C 
ATOM     16  C   UNL     1      -2.640   1.220   0.034  0.00  0.00    +0.061 C 
ATOM     17  C   UNL     1      -1.222   1.750   0.017  0.00  0.00    -0.042 A 
ATOM     18  C   UNL     1      -0.013   1.076   0.008  0.00  0.00    +0.004 A 
ATOM     19  C   UNL     1       1.175   1.780   0.000  0.00  0.00    +0.000 A 
ATOM     20  C   UNL     1       1.157   3.163   0.008  0.00  0.00    +0.000 A 
ATOM     21  C   UNL     1      -0.048   3.836   0.023  0.00  0.00    +0.004 A 
ATOM     22  C   UNL     1      -1.240   3.132   0.030  0.00  0.00    -0.042 A 
ATOM     23  C   UNL     1      -2.671   3.625   0.046  0.00  0.00    +0.061 C 
ENDBRANCH  11  15
BRANCH   1  24
ATOM     24  N   UNL     1     -12.603   2.558  -1.586  0.00  0.00    +0.383 N 
ATOM     25  H   UNL     1     -12.925   3.367  -1.043  0.00  0.00    -0.085 HD
ATOM     26  H   UNL     1     -12.617   2.789  -2.586  0.00  0.00    -0.085 HD
BRANCH  24  32
ATOM     27  C   UNL     1     -16.791  -0.688  -2.616  0.00  0.00    +0.403 C 
ATOM     28  O   UNL     1     -17.898  -0.269  -2.342  0.00  0.00    -0.226 OA
ATOM     29  N   UNL     1     -15.715  -0.241  -1.939  0.00  0.00    -0.268 N 
ATOM     30  C   UNL     1     -15.864   0.752  -0.867  0.00  0.00    +0.109 C 
ATOM     31  C   UNL     1     -14.931   1.932  -1.155  0.00  0.00    +0.003 C 
ATOM     32  C   UNL     1     -13.502   1.415  -1.338  0.00  0.00    -0.069 C 
ATOM     33  C   UNL     1     -13.454   0.459  -2.532  0.00  0.00    +0.003 C 
ATOM     34  C   UNL     1     -14.370  -0.738  -2.260  0.00  0.00    +0.109 C 
BRANCH  27  35
ATOM     35  O   UNL     1     -16.640  -1.598  -3.597  0.00  0.00    -0.451 OA
BRANCH  35  37
ATOM     36  C   UNL     1     -17.475  -3.061  -5.356  0.00  0.00    +0.048 C 
ATOM     37  C   UNL     1     -17.843  -2.034  -4.283  0.00  0.00    +0.230 C 
ENDBRANCH  35  37
ENDBRANCH  27  35
ENDBRANCH  24  32
ENDBRANCH   1  24
TORSDOF 5
