REMARK  Name = ZINC46813869
REMARK  13 active torsions:
REMARK  status: ('A' for Active; 'I' for Inactive)
REMARK    1  A    between atoms: C_1  and  C_2
REMARK    2  A    between atoms: C_3  and  C_28
REMARK    3  A    between atoms: C_4  and  C_27
REMARK    4  A    between atoms: C_7  and  C_8
REMARK    5  A    between atoms: N_13  and  S_16
REMARK    6  A    between atoms: S_16  and  N_19
REMARK    7  A    between atoms: N_19  and  C_20
REMARK    8  A    between atoms: N_19  and  C_21
REMARK    9  A    between atoms: C_28  and  O_30
REMARK   10  A    between atoms: O_30  and  C_31
REMARK   11  A    between atoms: C_31  and  C_32
REMARK   12  A    between atoms: C_32  and  O_33
REMARK   13  A    between atoms: O_33  and  C_34
REMARK                            x       y       z     vdW  Elec       q    Type
REMARK                         _______ _______ _______ _____ _____    ______ ____
ROOT
ATOM      1  C   UNL     1       0.031  -0.383   2.495  0.00  0.00    +0.263 C 
ATOM      2  O   UNL     1       0.122   0.801   2.762  0.00  0.00    -0.268 OA
ATOM      3  N   UNL     1      -0.049  -1.293   3.486  0.00  0.00    -0.294 N 
ATOM      4  C   UNL     1      -0.028  -2.731   3.184  0.00  0.00    +0.125 C 
ATOM      5  C   UNL     1       1.105  -3.384   3.985  0.00  0.00    +0.129 C 
ATOM      6  N   UNL     1       0.996  -2.956   5.387  0.00  0.00    -0.163 NA
ATOM      7  C   UNL     1       0.975  -1.518   5.689  0.00  0.00    +0.129 C 
ATOM      8  C   UNL     1      -0.152  -0.865   4.888  0.00  0.00    +0.125 C 
ENDROOT
BRANCH   1  15
ATOM      9  C   UNL     1      -2.464  -1.490   0.985  0.00  0.00    +0.047 C 
ATOM     10  C   UNL     1      -1.077  -1.304   0.426  0.00  0.00    -0.006 A 
ATOM     11  C   UNL     1      -0.656  -1.594  -0.892  0.00  0.00    +0.083 A 
ATOM     12  C   UNL     1       0.687  -1.274  -0.969  0.00  0.00    +0.028 A 
ATOM     13  N   UNL     1       1.081  -0.813   0.228  0.00  0.00    -0.354 N 
ATOM     14  H   UNL     1       1.978  -0.517   0.449  0.00  0.00    +0.166 HD
ATOM     15  C   UNL     1       0.008  -0.820   1.093  0.00  0.00    +0.106 A 
ATOM     16  C   UNL     1       1.560  -1.419  -2.189  0.00  0.00    +0.064 C 
BRANCH  11  17
ATOM     17  C   UNL     1      -1.490  -2.135  -1.978  0.00  0.00    +0.341 C 
ATOM     18  O   UNL     1      -2.085  -1.380  -2.722  0.00  0.00    -0.245 OA
BRANCH  17  19
ATOM     19  O   UNL     1      -1.594  -3.468  -2.148  0.00  0.00    -0.459 OA
BRANCH  19  20
ATOM     20  C   UNL     1      -2.421  -3.923  -3.222  0.00  0.00    +0.260 C 
BRANCH  20  21
ATOM     21  C   UNL     1      -2.415  -5.452  -3.256  0.00  0.00    +0.200 C 
BRANCH  21  22
ATOM     22  O   UNL     1      -3.027  -5.958  -2.068  0.00  0.00    -0.380 OA
ATOM     23  C   UNL     1      -3.073  -7.385  -2.000  0.00  0.00    +0.194 C 
ENDBRANCH  21  22
ENDBRANCH  20  21
ENDBRANCH  19  20
ENDBRANCH  17  19
ENDBRANCH  11  17
ENDBRANCH   1  15
BRANCH   6  24
ATOM     24  S   UNL     1       0.898  -4.074   6.604  0.00  0.00    +0.100 S 
ATOM     25  O   UNL     1       0.261  -3.428   7.698  0.00  0.00    -0.141 OA
ATOM     26  O   UNL     1       0.389  -5.265   6.021  0.00  0.00    -0.141 OA
BRANCH  24  27
ATOM     27  N   UNL     1       2.446  -4.408   7.088  0.00  0.00    -0.166 NA
ATOM     28  C   UNL     1       3.066  -3.620   8.156  0.00  0.00    +0.133 C 
BRANCH  27  29
ATOM     29  C   UNL     1       3.196  -5.492   6.448  0.00  0.00    +0.081 C 
ATOM     30  C   UNL     1       4.461  -4.924   5.802  0.00  0.00    +0.020 C 
ATOM     31  C   UNL     1       5.244  -6.056   5.133  0.00  0.00    +0.002 C 
ATOM     32  C   UNL     1       5.631  -7.098   6.184  0.00  0.00    +0.000 C 
ATOM     33  C   UNL     1       4.366  -7.666   6.830  0.00  0.00    +0.002 C 
ATOM     34  C   UNL     1       3.583  -6.534   7.499  0.00  0.00    +0.020 C 
ENDBRANCH  27  29
ENDBRANCH  24  27
ENDBRANCH   6  24
TORSDOF 9
