REMARK  Name = ZINC08964161
REMARK  9 active torsions:
REMARK  status: ('A' for Active; 'I' for Inactive)
REMARK    1  A    between atoms: C_1  and  C_2
REMARK    2  A    between atoms: C_6  and  N_9
REMARK    3  A    between atoms: C_7  and  C_8
REMARK    4  A    between atoms: C_10  and  C_12
REMARK    5  A    between atoms: N_14  and  C_15
REMARK    6  A    between atoms: C_15  and  C_16
REMARK    7  A    between atoms: C_16  and  C_18
REMARK    8  A    between atoms: C_16  and  N_63
REMARK    9  A    between atoms: N_26  and  C_27
REMARK                            x       y       z     vdW  Elec       q    Type
REMARK                         _______ _______ _______ _____ _____    ______ ____
ROOT
ATOM      1  C   UNL     1      -2.796   7.421  -1.629  0.00  0.00    +0.094 C 
ENDROOT
BRANCH   1   4
ATOM      2  C   UNL     1      -3.585   9.266  -3.011  0.00  0.00    +0.299 C 
ATOM      3  O   UNL     1      -2.486   9.771  -2.913  0.00  0.00    -0.265 OA
ATOM      4  N   UNL     1      -3.843   8.090  -2.405  0.00  0.00    -0.309 N 
ATOM      5  H   UNL     1      -4.721   7.687  -2.483  0.00  0.00    +0.149 HD
BRANCH   2   7
ATOM      6  N   UNL     1      -4.395  11.125  -4.407  0.00  0.00    -0.278 N 
ATOM      7  C   UNL     1      -4.652   9.949  -3.802  0.00  0.00    +0.303 C 
ATOM      8  O   UNL     1      -5.752   9.444  -3.900  0.00  0.00    -0.265 OA
ATOM      9  H   UNL     1      -3.505  11.508  -4.364  0.00  0.00    +0.155 HD
BRANCH   6  15
ATOM     10  C   UNL     1      -6.363  15.337  -6.002  0.00  0.00    +0.044 C 
ATOM     11  C   UNL     1      -6.390  13.835  -5.886  0.00  0.00    -0.046 A 
ATOM     12  C   UNL     1      -7.420  13.115  -6.463  0.00  0.00    +0.004 A 
ATOM     13  C   UNL     1      -7.449  11.737  -6.359  0.00  0.00    +0.002 A 
ATOM     14  C   UNL     1      -6.447  11.073  -5.678  0.00  0.00    +0.023 A 
ATOM     15  C   UNL     1      -5.410  11.793  -5.097  0.00  0.00    +0.037 A 
ATOM     16  C   UNL     1      -5.387  13.178  -5.199  0.00  0.00    -0.026 A 
ATOM     17  C   UNL     1      -4.268  13.963  -4.566  0.00  0.00    +0.046 C 
ENDBRANCH   6  15
ENDBRANCH   2   7
ENDBRANCH   1   4
BRANCH   1  18
ATOM     18  C   UNL     1      -3.390   6.208  -0.910  0.00  0.00    -0.020 C 
BRANCH  18  19
ATOM     19  C   UNL     1      -2.280   5.393  -0.299  0.00  0.00    -0.059 A 
ATOM     20  C   UNL     1      -1.584   5.878   0.793  0.00  0.00    +0.004 A 
ATOM     21  C   UNL     1      -0.570   5.134   1.357  0.00  0.00    +0.023 A 
ATOM     22  C   UNL     1      -0.239   3.886   0.831  0.00  0.00    +0.033 A 
ATOM     23  C   UNL     1      -0.941   3.409  -0.270  0.00  0.00    -0.025 A 
ATOM     24  C   UNL     1      -1.956   4.157  -0.829  0.00  0.00    +0.007 A 
ATOM     25  C   UNL     1      -0.374   2.052  -0.633  0.00  0.00    +0.056 C 
ATOM     26  C   UNL     1       0.973   2.028   0.125  0.00  0.00    +0.109 C 
ATOM     27  N   UNL     1       0.736   2.965   1.244  0.00  0.00    -0.332 N 
ATOM     28  C   UNL     1       1.978   3.645   1.634  0.00  0.00    +0.129 C 
ENDBRANCH  18  19
BRANCH  18  33
ATOM     29  C   UNL     1      -5.506   7.315  -0.431  0.00  0.00    -0.078 C 
ATOM     30  C   UNL     1      -6.538   7.241   0.722  0.00  0.00    -0.020 C 
ATOM     31  C   UNL     1      -6.248   5.861   1.357  0.00  0.00    -0.020 C 
ATOM     32  C   UNL     1      -4.804   5.523   0.944  0.00  0.00    -0.078 C 
ATOM     33  N   UNL     1      -4.326   6.664   0.161  0.00  0.00    +0.385 N 
ATOM     34  H   UNL     1      -3.837   7.326   0.776  0.00  0.00    -0.081 HD
ENDBRANCH  18  33
ENDBRANCH   1  18
TORSDOF 6
