REMARK  Name = ZINC02259801
REMARK  10 active torsions:
REMARK  status: ('A' for Active; 'I' for Inactive)
REMARK    1  A    between atoms: C_1  and  C_2
REMARK    2  A    between atoms: C_9  and  N_17
REMARK    3  A    between atoms: C_10  and  C_11
REMARK    4  A    between atoms: C_11  and  O_13
REMARK    5  A    between atoms: O_13  and  C_14
REMARK    6  A    between atoms: C_14  and  C_15
REMARK    7  A    between atoms: C_14  and  C_16
REMARK    8  A    between atoms: C_18  and  C_20
REMARK    9  A    between atoms: C_20  and  C_21
REMARK   10  A    between atoms: C_21  and  C_22
REMARK                            x       y       z     vdW  Elec       q    Type
REMARK                         _______ _______ _______ _____ _____    ______ ____
ROOT
ATOM      1  C   UNL     1      -7.677  -2.505   0.121  0.00  0.00    +0.008 C 
ATOM      2  C   UNL     1      -6.688  -1.372   0.406  0.00  0.00    -0.009 C 
ATOM      3  C   UNL     1      -7.063  -0.140  -0.423  0.00  0.00    +0.008 C 
ATOM      4  C   UNL     1      -6.240   1.065   0.036  0.00  0.00    +0.037 C 
ATOM      5  C   UNL     1      -4.765   0.684   0.029  0.00  0.00    -0.021 A 
ATOM      6  C   UNL     1      -4.381  -0.611   0.020  0.00  0.00    -0.004 A 
ATOM      7  S   UNL     1      -2.612  -0.560   0.004  0.00  0.00    -0.077 S 
ATOM      8  C   UNL     1      -2.381   1.157   0.020  0.00  0.00    +0.086 A 
ATOM      9  C   UNL     1      -3.680   1.651   0.029  0.00  0.00    +0.091 A 
ATOM     10  C   UNL     1      -5.271  -1.817   0.018  0.00  0.00    +0.046 C 
ENDROOT
BRANCH   8  11
ATOM     11  N   UNL     1      -1.191   1.867   0.018  0.00  0.00    -0.279 N 
ATOM     12  C   UNL     1      -0.014   1.209   0.009  0.00  0.00    +0.218 C 
ATOM     13  O   UNL     1       0.002  -0.004   0.002  0.00  0.00    -0.275 OA
ATOM     14  H   UNL     1      -1.204   2.836   0.023  0.00  0.00    +0.155 HD
BRANCH  12  15
ATOM     15  C   UNL     1       1.280   1.980   0.001  0.00  0.00    +0.097 C 
BRANCH  15  16
ATOM     16  C   UNL     1       2.457   1.002  -0.016  0.00  0.00    +0.025 C 
BRANCH  16  17
ATOM     17  C   UNL     1       3.771   1.784  -0.024  0.00  0.00    +0.109 C 
ATOM     18 CL   UNL     1       5.157   0.632  -0.044  0.00  0.00    -0.125 Cl
ENDBRANCH  16  17
ENDBRANCH  15  16
ENDBRANCH  12  15
ENDBRANCH   8  11
BRANCH   9  19
ATOM     19  C   UNL     1      -3.945   3.091   0.037  0.00  0.00    +0.342 C 
ATOM     20  O   UNL     1      -4.060   3.694  -1.013  0.00  0.00    -0.245 OA
BRANCH  19  21
ATOM     21  O   UNL     1      -4.062   3.748   1.209  0.00  0.00    -0.458 OA
BRANCH  21  22
ATOM     22  C   UNL     1      -4.325   5.174   1.141  0.00  0.00    +0.171 C 
ATOM     23  C   UNL     1      -5.134   5.602   2.368  0.00  0.00    +0.052 C 
ATOM     24  C   UNL     1      -2.999   5.937   1.113  0.00  0.00    +0.052 C 
ENDBRANCH  21  22
ENDBRANCH  19  21
ENDBRANCH   9  19
TORSDOF 7
