REMARK  Name = ZINC33298596
REMARK  9 active torsions:
REMARK  status: ('A' for Active; 'I' for Inactive)
REMARK    1  A    between atoms: C_1  and  C_2
REMARK    2  A    between atoms: C_5  and  C_8
REMARK    3  A    between atoms: C_8  and  S_9
REMARK    4  A    between atoms: S_9  and  C_10
REMARK    5  A    between atoms: N_14  and  C_19
REMARK    6  A    between atoms: C_19  and  C_20
REMARK    7  A    between atoms: N_22  and  C_23
REMARK    8  A    between atoms: C_23  and  C_24
REMARK    9  A    between atoms: C_24  and  C_25
REMARK                            x       y       z     vdW  Elec       q    Type
REMARK                         _______ _______ _______ _____ _____    ______ ____
ROOT
ATOM      1  C   UNL     1       2.296   1.506  -0.012  0.00  0.00    +0.083 A 
ATOM      2  C   UNL     1       2.405   0.108  -0.020  0.00  0.00    +0.030 A 
ATOM      3  C   UNL     1       3.517  -0.841  -0.037  0.00  0.00    +0.030 A 
ATOM      4  C   UNL     1       2.980  -2.073  -0.038  0.00  0.00    +0.087 A 
ATOM      5  N   UNL     1       1.612  -1.984  -0.025  0.00  0.00    -0.338 N 
ATOM      6  C   UNL     1       1.231  -0.668  -0.013  0.00  0.00    +0.053 A 
ATOM      7  C   UNL     1       0.002  -0.004   0.002  0.00  0.00    +0.044 A 
ATOM      8  C   UNL     1      -0.016   1.361   0.009  0.00  0.00    +0.085 A 
ATOM      9  N   UNL     1       1.100   2.073   0.003  0.00  0.00    -0.355 N 
ATOM     10  H   UNL     1       1.011   3.170   0.010  0.00  0.00    +0.166 HD
ENDROOT
BRANCH   1  11
ATOM     11  S   UNL     1       3.747   2.505  -0.021  0.00  0.00    -0.103 S 
BRANCH  11  12
ATOM     12  C   UNL     1       2.995   4.152  -0.005  0.00  0.00    +0.111 C 
BRANCH  12  17
ATOM     13  C   UNL     1       7.151   8.167  -0.024  0.00  0.00    +0.044 C 
ATOM     14  C   UNL     1       6.067   7.120  -0.019  0.00  0.00    -0.050 A 
ATOM     15  C   UNL     1       5.559   6.646  -1.214  0.00  0.00    +0.003 A 
ATOM     16  C   UNL     1       4.565   5.685  -1.209  0.00  0.00    +0.005 A 
ATOM     17  C   UNL     1       4.079   5.199  -0.010  0.00  0.00    -0.037 A 
ATOM     18  C   UNL     1       4.584   5.677   1.185  0.00  0.00    +0.005 A 
ATOM     19  C   UNL     1       5.581   6.634   1.180  0.00  0.00    +0.003 A 
ENDBRANCH  12  17
ENDBRANCH  11  12
ENDBRANCH   1  11
BRANCH   5  20
ATOM     20  C   UNL     1       0.695  -3.126  -0.021  0.00  0.00    +0.217 C 
BRANCH  20  21
ATOM     21  C   UNL     1       0.270  -3.432  -1.434  0.00  0.00    +0.233 C 
ATOM     22  O   UNL     1       0.691  -2.763  -2.353  0.00  0.00    -0.274 OA
ATOM     23  N   UNL     1      -0.579  -4.451  -1.677  0.00  0.00    -0.314 N 
ATOM     24  H   UNL     1      -0.962  -5.058  -0.843  0.00  0.00    +0.149 HD
BRANCH  23  25
ATOM     25  C   UNL     1      -0.993  -4.748  -3.050  0.00  0.00    +0.108 C 
BRANCH  25  26
ATOM     26  C   UNL     1      -1.951  -5.941  -3.047  0.00  0.00    +0.049 C 
BRANCH  26  27
ATOM     27  C   UNL     1      -2.377  -6.247  -4.460  0.00  0.00    -0.072 C 
ATOM     28  C   UNL     1      -1.721  -7.156  -5.108  0.00  0.00    -0.028 C 
ATOM     29  C   UNL     1      -2.020  -7.562  -6.521  0.00  0.00    +0.027 C 
ATOM     30  C   UNL     1      -3.419  -7.088  -6.921  0.00  0.00    +0.004 C 
ATOM     31  C   UNL     1      -3.552  -5.604  -6.553  0.00  0.00    +0.005 C 
ATOM     32  C   UNL     1      -3.538  -5.484  -5.026  0.00  0.00    +0.030 C 
ENDBRANCH  26  27
ENDBRANCH  25  26
ENDBRANCH  23  25
ENDBRANCH  20  21
ENDBRANCH   5  20
TORSDOF 8
