REMARK  Name = ZINC08811794
REMARK  13 active torsions:
REMARK  status: ('A' for Active; 'I' for Inactive)
REMARK    1  A    between atoms: C_1  and  C_2
REMARK    2  A    between atoms: C_5  and  S_8
REMARK    3  A    between atoms: S_8  and  N_11
REMARK    4  A    between atoms: N_11  and  C_12
REMARK    5  A    between atoms: C_14  and  C_23
REMARK    6  A    between atoms: C_17  and  N_18
REMARK    7  A    between atoms: N_25  and  C_26
REMARK    8  A    between atoms: C_26  and  C_27
REMARK    9  A    between atoms: C_27  and  C_28
REMARK   10  A    between atoms: C_31  and  O_36
REMARK   11  A    between atoms: C_32  and  O_34
REMARK   12  A    between atoms: O_34  and  C_35
REMARK   13  A    between atoms: O_36  and  C_37
REMARK                            x       y       z     vdW  Elec       q    Type
REMARK                         _______ _______ _______ _____ _____    ______ ____
ROOT
ATOM      1  C   UNL     1       1.308   1.924  -0.394  0.00  0.00    +0.070 A 
ATOM      2  C   UNL     1       0.109   1.241  -0.454  0.00  0.00    +0.039 A 
ATOM      3  C   UNL     1      -1.097   1.942  -0.357  0.00  0.00    +0.039 A 
ATOM      4  C   UNL     1      -1.085   3.329  -0.189  0.00  0.00    +0.015 A 
ATOM      5  C   UNL     1       0.113   4.006  -0.130  0.00  0.00    +0.026 A 
ATOM      6  C   UNL     1       1.313   3.312  -0.231  0.00  0.00    +0.052 A 
ENDROOT
BRANCH   6   7
ATOM      7  N   UNL     1       2.522   4.002  -0.171  0.00  0.00    -0.328 N 
ATOM      8  C   UNL     1       2.296   5.467  -0.075  0.00  0.00    +0.105 C 
ATOM      9  C   UNL     1       3.634   5.995   0.500  0.00  0.00    +0.020 C 
ATOM     10  C   UNL     1       4.039   4.891   1.504  0.00  0.00    +0.020 C 
ATOM     11  C   UNL     1       3.283   3.631   1.042  0.00  0.00    +0.105 C 
ENDBRANCH   6   7
BRANCH   3  12
ATOM     12  C   UNL     1      -2.380   1.217  -0.427  0.00  0.00    +0.244 C 
ATOM     13  O   UNL     1      -2.389   0.009  -0.569  0.00  0.00    -0.270 OA
ATOM     14  N   UNL     1      -3.542   1.894  -0.334  0.00  0.00    -0.311 N 
ATOM     15  H   UNL     1      -3.535   2.857  -0.220  0.00  0.00    +0.149 HD
BRANCH  14  16
ATOM     16  C   UNL     1      -4.816   1.174  -0.403  0.00  0.00    +0.109 C 
BRANCH  16  17
ATOM     17  C   UNL     1      -5.971   2.169  -0.272  0.00  0.00    +0.054 C 
BRANCH  17  18
ATOM     18  C   UNL     1      -7.282   1.429  -0.344  0.00  0.00    -0.042 A 
ATOM     19  C   UNL     1      -7.899   1.234  -1.565  0.00  0.00    +0.007 A 
ATOM     20  C   UNL     1      -9.099   0.551  -1.637  0.00  0.00    +0.049 A 
ATOM     21  C   UNL     1      -9.691   0.069  -0.481  0.00  0.00    +0.161 A 
ATOM     22  C   UNL     1      -9.073   0.269   0.750  0.00  0.00    +0.162 A 
ATOM     23  C   UNL     1      -7.868   0.950   0.814  0.00  0.00    +0.053 A 
BRANCH  22  24
ATOM     24  O   UNL     1      -9.650  -0.203   1.887  0.00  0.00    -0.491 OA
ATOM     25  C   UNL     1      -8.959   0.040   3.114  0.00  0.00    +0.277 C 
ENDBRANCH  22  24
BRANCH  21  26
ATOM     26  O   UNL     1     -10.874  -0.599  -0.549  0.00  0.00    -0.491 OA
ATOM     27  C   UNL     1     -11.450  -0.767  -1.845  0.00  0.00    +0.277 C 
ENDBRANCH  21  26
ENDBRANCH  17  18
ENDBRANCH  16  17
ENDBRANCH  14  16
ENDBRANCH   3  12
BRANCH   1  28
ATOM     28  N   UNL     1       2.518   1.227  -0.496  0.00  0.00    -0.214 N 
ATOM     29  H   UNL     1       3.294   1.525   0.004  0.00  0.00    +0.174 HD
BRANCH  28  30
ATOM     30  S   UNL     1       2.625  -0.108  -1.470  0.00  0.00    +0.072 S 
ATOM     31  O   UNL     1       3.987  -0.514  -1.455  0.00  0.00    -0.150 OA
ATOM     32  O   UNL     1       1.567  -0.976  -1.088  0.00  0.00    -0.150 OA
BRANCH  30  37
ATOM     33  C   UNL     1       1.427   1.694  -7.103  0.00  0.00    +0.044 C 
ATOM     34  C   UNL     1       1.726   1.244  -5.696  0.00  0.00    -0.050 A 
ATOM     35  C   UNL     1       3.026   1.260  -5.227  0.00  0.00    +0.005 A 
ATOM     36  C   UNL     1       3.301   0.847  -3.937  0.00  0.00    +0.029 A 
ATOM     37  C   UNL     1       2.275   0.419  -3.115  0.00  0.00    +0.109 A 
ATOM     38  C   UNL     1       0.976   0.398  -3.586  0.00  0.00    +0.029 A 
ATOM     39  C   UNL     1       0.700   0.815  -4.874  0.00  0.00    +0.005 A 
ENDBRANCH  30  37
ENDBRANCH  28  30
ENDBRANCH   1  28
TORSDOF 10
