REMARK  Name = ZINC35777785
REMARK  12 active torsions:
REMARK  status: ('A' for Active; 'I' for Inactive)
REMARK    1  A    between atoms: C_1  and  C_2
REMARK    2  A    between atoms: C_3  and  C_22
REMARK    3  A    between atoms: C_4  and  O_13
REMARK    4  A    between atoms: N_5  and  C_7
REMARK    5  A    between atoms: O_13  and  C_14
REMARK    6  A    between atoms: C_22  and  N_23
REMARK    7  A    between atoms: N_23  and  C_24
REMARK    8  A    between atoms: N_23  and  C_35
REMARK    9  A    between atoms: C_24  and  C_25
REMARK   10  A    between atoms: C_25  and  C_27
REMARK   11  A    between atoms: C_25  and  O_34
REMARK   12  A    between atoms: C_27  and  C_28
REMARK                            x       y       z     vdW  Elec       q    Type
REMARK                         _______ _______ _______ _____ _____    ______ ____
ROOT
ATOM      1  C   UNL     1       0.513   1.270   0.093  0.00  0.00    +0.068 C 
ATOM      2  C   UNL     1       0.241  -0.209   0.002  0.00  0.00    +0.065 A 
ATOM      3  C   UNL     1      -0.002  -0.925  -1.174  0.00  0.00    +0.021 A 
ATOM      4  C   UNL     1      -0.200  -2.227  -0.838  0.00  0.00    +0.225 A 
ATOM      5  N   UNL     1      -0.084  -2.322   0.514  0.00  0.00    -0.200 N 
ATOM      6  N   UNL     1       0.198  -1.042   1.010  0.00  0.00    -0.168 NA
ENDROOT
BRANCH   5   7
ATOM      7  C   UNL     1      -0.216  -3.492   1.275  0.00  0.00    +0.069 A 
ATOM      8  C   UNL     1      -1.238  -4.390   0.997  0.00  0.00    +0.028 A 
ATOM      9  C   UNL     1      -1.366  -5.542   1.748  0.00  0.00    +0.002 A 
ATOM     10  C   UNL     1      -0.478  -5.801   2.776  0.00  0.00    +0.000 A 
ATOM     11  C   UNL     1       0.541  -4.909   3.055  0.00  0.00    +0.002 A 
ATOM     12  C   UNL     1       0.677  -3.757   2.304  0.00  0.00    +0.028 A 
ENDBRANCH   5   7
BRANCH   4  13
ATOM     13  O   UNL     1      -0.465  -3.246  -1.694  0.00  0.00    -0.435 OA
BRANCH  13  14
ATOM     14  C   UNL     1      -1.762  -3.471  -2.036  0.00  0.00    +0.166 A 
ATOM     15  C   UNL     1      -2.755  -2.605  -1.603  0.00  0.00    +0.052 A 
ATOM     16  C   UNL     1      -4.072  -2.835  -1.952  0.00  0.00    +0.042 A 
ATOM     17  C   UNL     1      -4.402  -3.930  -2.733  0.00  0.00    +0.126 A 
ATOM     18  C   UNL     1      -3.413  -4.797  -3.166  0.00  0.00    +0.080 A 
ATOM     19  C   UNL     1      -2.093  -4.567  -2.824  0.00  0.00    +0.168 A 
ATOM     20  F   UNL     1      -1.127  -5.409  -3.251  0.00  0.00    -0.202 F 
ATOM     21  F   UNL     1      -5.691  -4.152  -3.071  0.00  0.00    -0.205 F 
ENDBRANCH  13  14
ENDBRANCH   4  13
BRANCH   3  22
ATOM     22  C   UNL     1      -0.039  -0.354  -2.568  0.00  0.00    -0.035 C 
BRANCH  22  23
ATOM     23  N   UNL     1       1.329  -0.261  -3.096  0.00  0.00    +0.386 N 
ATOM     24  H   UNL     1       1.904   0.260  -2.450  0.00  0.00    -0.081 HD
BRANCH  23  25
ATOM     25  C   UNL     1       1.308   0.424  -4.395  0.00  0.00    -0.068 C 
ATOM     26  C   UNL     1       2.347   1.522  -4.631  0.00  0.00    -0.017 C 
ATOM     27  C   UNL     1       0.879   1.893  -4.412  0.00  0.00    -0.017 C 
ENDBRANCH  23  25
BRANCH  23  28
ATOM     28  C   UNL     1       1.882  -1.612  -3.264  0.00  0.00    -0.046 C 
BRANCH  28  29
ATOM     29  C   UNL     1       3.347  -1.514  -3.693  0.00  0.00    +0.102 C 
BRANCH  29  30
ATOM     30  O   UNL     1       4.113  -0.919  -2.643  0.00  0.00    -0.393 OA
ATOM     31  H   UNL     1       4.092  -1.414  -1.813  0.00  0.00    +0.210 HD
ENDBRANCH  29  30
BRANCH  29  32
ATOM     32  C   UNL     1       3.887  -2.914  -3.989  0.00  0.00    +0.064 C 
BRANCH  32  33
ATOM     33  C   UNL     1       5.290  -2.808  -4.529  0.00  0.00    -0.045 A 
ATOM     34  C   UNL     1       5.499  -2.687  -5.890  0.00  0.00    +0.004 A 
ATOM     35  C   UNL     1       6.786  -2.590  -6.385  0.00  0.00    +0.000 A 
ATOM     36  C   UNL     1       7.863  -2.614  -5.520  0.00  0.00    +0.000 A 
ATOM     37  C   UNL     1       7.654  -2.735  -4.159  0.00  0.00    +0.000 A 
ATOM     38  C   UNL     1       6.367  -2.828  -3.663  0.00  0.00    +0.004 A 
ENDBRANCH  32  33
ENDBRANCH  29  32
ENDBRANCH  28  29
ENDBRANCH  23  28
ENDBRANCH  22  23
ENDBRANCH   3  22
TORSDOF 11
