REMARK  Name = ZINC10066624
REMARK  13 active torsions:
REMARK  status: ('A' for Active; 'I' for Inactive)
REMARK    1  A    between atoms: C_1  and  C_2
REMARK    2  A    between atoms: C_2  and  C_3
REMARK    3  A    between atoms: N_12  and  C_13
REMARK    4  A    between atoms: C_13  and  C_14
REMARK    5  A    between atoms: C_14  and  N_60
REMARK    6  A    between atoms: C_15  and  C_16
REMARK    7  A    between atoms: C_15  and  N_60
REMARK    8  A    between atoms: C_17  and  C_18
REMARK    9  A    between atoms: C_17  and  N_60
REMARK   10  A    between atoms: C_19  and  C_21
REMARK   11  A    between atoms: C_24  and  C_27
REMARK   12  A    between atoms: C_27  and  O_29
REMARK   13  A    between atoms: O_29  and  C_30
REMARK                            x       y       z     vdW  Elec       q    Type
REMARK                         _______ _______ _______ _____ _____    ______ ____
ROOT
ATOM      1  C   UNL     1      -4.304  -3.500   1.735  0.00  0.00    -0.046 A 
ATOM      2  C   UNL     1      -3.508  -4.291   0.919  0.00  0.00    +0.006 A 
ATOM      3  C   UNL     1      -2.424  -3.775   0.258  0.00  0.00    +0.029 A 
ATOM      4  C   UNL     1      -2.081  -2.409   0.388  0.00  0.00    +0.080 A 
ATOM      5  C   UNL     1      -2.914  -1.634   1.227  0.00  0.00    +0.041 A 
ATOM      6  C   UNL     1      -3.998  -2.160   1.885  0.00  0.00    +0.021 A 
ATOM      7  S   UNL     1      -2.160  -0.028   1.129  0.00  0.00    -0.052 S 
ATOM      8  C   UNL     1      -0.838  -0.469   0.010  0.00  0.00    +0.168 A 
ATOM      9  N   UNL     1      -1.055  -1.748  -0.189  0.00  0.00    -0.224 NA
ATOM     10  N   UNL     1       0.163   0.333  -0.509  0.00  0.00    -0.248 N 
ATOM     11  C   UNL     1       0.218   1.639  -0.182  0.00  0.00    +0.252 C 
ATOM     12  O   UNL     1      -0.639   2.124   0.530  0.00  0.00    -0.270 OA
ENDROOT
BRANCH  11  13
ATOM     13  C   UNL     1       1.320   2.484  -0.693  0.00  0.00    +0.037 A 
ATOM     14  C   UNL     1       2.562   1.914  -0.980  0.00  0.00    +0.014 A 
ATOM     15  C   UNL     1       3.586   2.700  -1.461  0.00  0.00    +0.016 A 
ATOM     16  C   UNL     1       3.386   4.069  -1.651  0.00  0.00    +0.059 A 
ATOM     17  C   UNL     1       2.146   4.640  -1.359  0.00  0.00    +0.016 A 
ATOM     18  C   UNL     1       1.120   3.853  -0.883  0.00  0.00    +0.014 A 
BRANCH  16  19
ATOM     19  C   UNL     1       4.487   4.914  -2.163  0.00  0.00    +0.339 C 
ATOM     20  O   UNL     1       4.312   6.104  -2.329  0.00  0.00    -0.245 OA
BRANCH  19  21
ATOM     21  O   UNL     1       5.683   4.363  -2.445  0.00  0.00    -0.464 OA
ATOM     22  C   UNL     1       6.718   5.252  -2.943  0.00  0.00    +0.280 C 
ENDBRANCH  19  21
ENDBRANCH  16  19
ENDBRANCH  11  13
BRANCH   1  24
ATOM     23  C   UNL     1      -6.731  -3.978   1.563  0.00  0.00    +0.009 C 
ATOM     24  C   UNL     1      -5.490  -4.095   2.450  0.00  0.00    +0.032 C 
ENDBRANCH   1  24
BRANCH  10  25
ATOM     25  C   UNL     1       1.163  -0.238  -1.415  0.00  0.00    +0.097 C 
BRANCH  25  26
ATOM     26  C   UNL     1       2.128  -1.119  -0.620  0.00  0.00    -0.059 C 
BRANCH  26  27
ATOM     27  N   UNL     1       3.174  -1.627  -1.532  0.00  0.00    +0.380 N 
ATOM     28  H   UNL     1       3.625  -0.832  -1.998  0.00  0.00    -0.082 HD
BRANCH  27  29
ATOM     29  C   UNL     1       4.193  -2.375  -0.765  0.00  0.00    -0.082 C 
ATOM     30  C   UNL     1       5.370  -2.695  -1.690  0.00  0.00    -0.017 C 
ENDBRANCH  27  29
BRANCH  27  31
ATOM     31  C   UNL     1       2.569  -2.504  -2.557  0.00  0.00    -0.082 C 
ATOM     32  C   UNL     1       1.751  -3.616  -1.896  0.00  0.00    -0.017 C 
ENDBRANCH  27  31
ENDBRANCH  26  27
ENDBRANCH  25  26
ENDBRANCH  10  25
TORSDOF 9
