REMARK  Name = ZINC12347935
REMARK  9 active torsions:
REMARK  status: ('A' for Active; 'I' for Inactive)
REMARK    1  A    between atoms: C_1  and  C_2
REMARK    2  A    between atoms: C_6  and  N_9
REMARK    3  A    between atoms: C_7  and  C_8
REMARK    4  A    between atoms: C_10  and  C_12
REMARK    5  A    between atoms: C_12  and  S_13
REMARK    6  A    between atoms: S_13  and  C_14
REMARK    7  A    between atoms: C_17  and  C_22
REMARK    8  A    between atoms: N_20  and  N_21
REMARK    9  A    between atoms: C_22  and  C_23
REMARK                            x       y       z     vdW  Elec       q    Type
REMARK                         _______ _______ _______ _____ _____    ______ ____
ROOT
ATOM      1  C   UNL     1      -0.156   6.709  -3.918  0.00  0.00    +0.210 A 
ATOM      2  N   UNL     1      -0.142   5.422  -3.611  0.00  0.00    -0.122 NA
ATOM      3  N   UNL     1      -0.130   5.012  -2.394  0.00  0.00    -0.146 NA
ATOM      4  C   UNL     1      -0.143   5.854  -1.387  0.00  0.00    +0.134 A 
ATOM      5  C   UNL     1      -0.159   7.242  -1.645  0.00  0.00    +0.293 A 
ATOM      6  O   UNL     1      -0.166   8.049  -0.730  0.00  0.00    -0.264 OA
ATOM      7  N   UNL     1      -0.165   7.652  -2.934  0.00  0.00    -0.206 N 
ENDROOT
BRANCH   7   8
ATOM      8  N   UNL     1      -0.179   8.983  -3.243  0.00  0.00    -0.293 N 
ATOM      9  H   UNL     1      -0.182   9.122  -4.242  0.00  0.00    +0.163 HD
ATOM     10  H   UNL     1      -0.965   9.446  -2.811  0.00  0.00    +0.163 HD
ENDBRANCH   7   8
BRANCH   1  11
ATOM     11  S   UNL     1      -0.164   7.206  -5.608  0.00  0.00    -0.075 S 
BRANCH  11  12
ATOM     12  C   UNL     1      -0.147   5.585  -6.413  0.00  0.00    +0.173 C 
BRANCH  12  14
ATOM     13  N   UNL     1      -0.140   4.690  -8.719  0.00  0.00    -0.285 N 
ATOM     14  C   UNL     1      -0.151   5.767  -7.909  0.00  0.00    +0.227 C 
ATOM     15  O   UNL     1      -0.164   6.883  -8.384  0.00  0.00    -0.275 OA
ATOM     16  H   UNL     1      -0.049   3.800  -8.342  0.00  0.00    +0.155 HD
BRANCH  13  22
ATOM     17  C   UNL     1       0.674   3.008 -13.266  0.00  0.00    +0.044 C 
ATOM     18  C   UNL     1       0.126   4.054 -12.331  0.00  0.00    -0.046 A 
ATOM     19  C   UNL     1      -0.498   5.178 -12.841  0.00  0.00    +0.004 A 
ATOM     20  C   UNL     1      -1.003   6.140 -11.986  0.00  0.00    +0.002 A 
ATOM     21  C   UNL     1      -0.886   5.981 -10.618  0.00  0.00    +0.023 A 
ATOM     22  C   UNL     1      -0.260   4.854 -10.103  0.00  0.00    +0.037 A 
ATOM     23  C   UNL     1       0.251   3.892 -10.965  0.00  0.00    -0.026 A 
ATOM     24  C   UNL     1       0.937   2.670 -10.410  0.00  0.00    +0.046 C 
ENDBRANCH  13  22
ENDBRANCH  12  14
ENDBRANCH  11  12
ENDBRANCH   1  11
BRANCH   4  25
ATOM     25  C   UNL     1      -0.135   5.344   0.031  0.00  0.00    +0.098 C 
BRANCH  25  26
ATOM     26  C   UNL     1      -0.119   3.837   0.022  0.00  0.00    -0.041 A 
ATOM     27  C   UNL     1       1.086   3.159   0.017  0.00  0.00    +0.004 A 
ATOM     28  C   UNL     1       1.101   1.777   0.009  0.00  0.00    +0.000 A 
ATOM     29  C   UNL     1      -0.089   1.073   0.007  0.00  0.00    +0.000 A 
ATOM     30  C   UNL     1      -1.293   1.751   0.008  0.00  0.00    +0.000 A 
ATOM     31  C   UNL     1      -1.308   3.133   0.021  0.00  0.00    +0.004 A 
ENDBRANCH  25  26
ENDBRANCH   4  25
TORSDOF 7
