REMARK  Name = ZINC33666943
REMARK  9 active torsions:
REMARK  status: ('A' for Active; 'I' for Inactive)
REMARK    1  A    between atoms: C_1  and  C_2
REMARK    2  A    between atoms: C_2  and  C_3
REMARK    3  A    between atoms: C_2  and  C_4
REMARK    4  A    between atoms: C_2  and  C_5
REMARK    5  A    between atoms: C_5  and  C_6
REMARK    6  A    between atoms: C_15  and  C_19
REMARK    7  A    between atoms: N_21  and  C_22
REMARK    8  A    between atoms: C_22  and  C_23
REMARK    9  A    between atoms: C_23  and  C_24
REMARK                            x       y       z     vdW  Elec       q    Type
REMARK                         _______ _______ _______ _____ _____    ______ ____
ROOT
ATOM      1  C   UNL     1      -0.081   2.275  -2.130  0.00  0.00    +0.216 C 
ATOM      2  O   UNL     1       1.104   2.504  -2.014  0.00  0.00    -0.276 OA
ATOM      3  N   UNL     1      -0.729   1.575  -1.177  0.00  0.00    -0.302 N 
ATOM      4  C   UNL     1      -0.013   1.086   0.008  0.00  0.00    +0.107 C 
ATOM      5  C   UNL     1      -0.737   1.583   1.264  0.00  0.00    +0.017 C 
ATOM      6  C   UNL     1      -2.209   1.193   1.186  0.00  0.00    -0.016 C 
ATOM      7  C   UNL     1      -2.880   1.786  -0.044  0.00  0.00    +0.017 C 
ATOM      8  C   UNL     1      -2.165   1.289  -1.306  0.00  0.00    +0.107 C 
ATOM      9  N   UNL     1      -2.373  -0.270   1.228  0.00  0.00    +0.397 N 
ATOM     10  C   UNL     1      -3.234  -0.783   2.298  0.00  0.00    +0.028 C 
ATOM     11  C   UNL     1      -3.158   0.132   3.557  0.00  0.00    +0.061 C 
ATOM     12  S   UNL     1      -3.079   1.770   2.700  0.00  0.00    -0.174 S 
ATOM     13  H   UNL     1      -2.816  -0.616   0.283  0.00  0.00    -0.083 HD
ATOM     14  H   UNL     1      -1.391  -0.745   1.368  0.00  0.00    -0.083 HD
ENDROOT
BRANCH  10  15
ATOM     15  C   UNL     1      -2.787  -2.174   2.668  0.00  0.00    +0.200 C 
ATOM     16  O   UNL     1      -1.815  -2.661   2.131  0.00  0.00    -0.278 OA
ATOM     17  N   UNL     1      -3.466  -2.876   3.597  0.00  0.00    -0.316 N 
ATOM     18  H   UNL     1      -4.347  -2.433   4.085  0.00  0.00    +0.149 HD
BRANCH  17  19
ATOM     19  C   UNL     1      -3.031  -4.227   3.957  0.00  0.00    +0.109 C 
BRANCH  19  20
ATOM     20  C   UNL     1      -3.966  -4.797   5.025  0.00  0.00    +0.055 C 
BRANCH  20  21
ATOM     21  C   UNL     1      -3.519  -6.187   5.395  0.00  0.00    -0.027 A 
ATOM     22  C   UNL     1      -2.779  -6.392   6.545  0.00  0.00    +0.006 A 
ATOM     23  C   UNL     1      -2.369  -7.667   6.885  0.00  0.00    +0.020 A 
ATOM     24  C   UNL     1      -2.698  -8.740   6.075  0.00  0.00    +0.042 A 
ATOM     25  C   UNL     1      -3.439  -8.535   4.925  0.00  0.00    +0.040 A 
ATOM     26  C   UNL     1      -3.854  -7.259   4.588  0.00  0.00    +0.046 A 
ATOM     27 CL   UNL     1      -4.789  -7.003   3.148  0.00  0.00    -0.083 Cl
ATOM     28 CL   UNL     1      -2.182 -10.341   6.503  0.00  0.00    -0.083 Cl
ENDBRANCH  20  21
ENDBRANCH  19  20
ENDBRANCH  17  19
ENDBRANCH  10  15
BRANCH   1  29
ATOM     29  C   UNL     1      -0.829   2.771  -3.341  0.00  0.00    +0.102 C 
BRANCH  29  31
ATOM     30  C   UNL     1       1.257   2.592  -4.704  0.00  0.00    +0.011 C 
ATOM     31  C   UNL     1       0.132   3.528  -4.259  0.00  0.00    -0.029 C 
ATOM     32  C   UNL     1      -0.628   4.032  -5.488  0.00  0.00    +0.011 C 
ATOM     33  C   UNL     1       0.727   4.719  -3.504  0.00  0.00    +0.011 C 
ENDBRANCH  29  31
ENDBRANCH   1  29
TORSDOF 6
