REMARK  Name = ZINC58989992
REMARK  8 active torsions:
REMARK  status: ('A' for Active; 'I' for Inactive)
REMARK    1  A    between atoms: C_1  and  C_2
REMARK    2  A    between atoms: C_2  and  C_22
REMARK    3  A    between atoms: N_3  and  N_4
REMARK    4  A    between atoms: C_5  and  C_7
REMARK    5  A    between atoms: C_7  and  S_8
REMARK    6  A    between atoms: S_8  and  C_9
REMARK    7  A    between atoms: C_12  and  C_15
REMARK    8  A    between atoms: N_13  and  N_14
REMARK                            x       y       z     vdW  Elec       q    Type
REMARK                         _______ _______ _______ _____ _____    ______ ____
ROOT
ATOM      1  C   UNL     1      -2.231  -3.812   2.611  0.00  0.00    +0.174 C 
ENDROOT
BRANCH   1   3
ATOM      2  N   UNL     1      -1.010  -2.014   1.431  0.00  0.00    -0.206 N 
ATOM      3  C   UNL     1      -1.369  -2.577   2.602  0.00  0.00    +0.242 C 
ATOM      4  O   UNL     1      -0.997  -2.088   3.648  0.00  0.00    -0.273 OA
ATOM      5  H   UNL     1      -1.307  -2.404   0.594  0.00  0.00    +0.177 HD
BRANCH   2   8
ATOM      6  C   UNL     1       1.050   0.868   0.271  0.00  0.00    +0.068 C 
ATOM      7  C   UNL     1       0.066  -0.274   0.300  0.00  0.00    +0.063 C 
ATOM      8  N   UNL     1      -0.208  -0.865   1.422  0.00  0.00    -0.185 NA
BRANCH   7   9
ATOM      9  C   UNL     1      -0.584  -0.719  -0.946  0.00  0.00    +0.001 A 
ATOM     10  C   UNL     1      -1.927  -1.104  -0.937  0.00  0.00    +0.013 A 
ATOM     11  C   UNL     1      -2.532  -1.520  -2.104  0.00  0.00    +0.050 A 
ATOM     12  C   UNL     1      -1.812  -1.557  -3.289  0.00  0.00    +0.166 A 
ATOM     13  C   UNL     1      -0.472  -1.175  -3.306  0.00  0.00    +0.167 A 
ATOM     14  C   UNL     1       0.140  -0.751  -2.141  0.00  0.00    +0.059 A 
ATOM     15  O   UNL     1       0.002  -1.302  -4.580  0.00  0.00    -0.453 OA
ATOM     16  C   UNL     1      -0.941  -2.152  -5.258  0.00  0.00    +0.466 C 
ATOM     17  O   UNL     1      -2.176  -1.923  -4.553  0.00  0.00    -0.453 OA
ENDBRANCH   7   9
ENDBRANCH   2   8
ENDBRANCH   1   3
BRANCH   1  18
ATOM     18  S   UNL     1      -2.538  -4.323   4.324  0.00  0.00    -0.075 S 
BRANCH  18  19
ATOM     19  C   UNL     1      -3.545  -5.760   4.167  0.00  0.00    +0.209 A 
ATOM     20  N   UNL     1      -3.953  -6.307   3.043  0.00  0.00    -0.121 NA
ATOM     21  N   UNL     1      -4.672  -7.343   3.292  0.00  0.00    -0.127 NA
ATOM     22  C   UNL     1      -4.767  -7.521   4.589  0.00  0.00    +0.183 A 
ATOM     23  N   UNL     1      -4.043  -6.516   5.189  0.00  0.00    -0.224 N 
BRANCH  22  24
ATOM     24  C   UNL     1      -5.506  -8.602   5.276  0.00  0.00    +0.035 A 
ATOM     25  C   UNL     1      -6.523  -8.290   6.180  0.00  0.00    +0.013 A 
ATOM     26  C   UNL     1      -7.210  -9.303   6.817  0.00  0.00    +0.001 A 
ATOM     27  C   UNL     1      -6.893 -10.625   6.562  0.00  0.00    +0.001 A 
ATOM     28  C   UNL     1      -5.887 -10.942   5.667  0.00  0.00    +0.016 A 
ATOM     29  C   UNL     1      -5.195  -9.938   5.019  0.00  0.00    +0.029 A 
ATOM     30 BR   UNL     1      -3.825 -10.373   3.790  0.00  0.00    -0.050 Br
ENDBRANCH  22  24
BRANCH  23  31
ATOM     31  N   UNL     1      -3.864  -6.315   6.528  0.00  0.00    -0.295 N 
ATOM     32  H   UNL     1      -4.633  -5.795   6.922  0.00  0.00    +0.163 HD
ATOM     33  H   UNL     1      -3.734  -7.191   7.011  0.00  0.00    +0.163 HD
ENDBRANCH  23  31
ENDBRANCH  18  19
ENDBRANCH   1  18
TORSDOF 7
