REMARK  Name = ZINC35777327
REMARK  18 active torsions:
REMARK  status: ('A' for Active; 'I' for Inactive)
REMARK    1  A    between atoms: C_1  and  C_2
REMARK    2  A    between atoms: C_3  and  C_22
REMARK    3  A    between atoms: C_4  and  O_13
REMARK    4  A    between atoms: N_5  and  C_7
REMARK    5  A    between atoms: O_13  and  C_14
REMARK    6  A    between atoms: C_19  and  O_20
REMARK    7  A    between atoms: O_20  and  C_21
REMARK    8  A    between atoms: C_22  and  N_23
REMARK    9  A    between atoms: N_23  and  C_24
REMARK   10  A    between atoms: N_23  and  C_31
REMARK   11  A    between atoms: C_24  and  C_25
REMARK   12  A    between atoms: C_31  and  C_32
REMARK   13  A    between atoms: C_32  and  C_34
REMARK   14  A    between atoms: C_32  and  O_39
REMARK   15  A    between atoms: C_34  and  O_35
REMARK   16  A    between atoms: O_35  and  C_36
REMARK   17  A    between atoms: C_36  and  C_37
REMARK   18  A    between atoms: C_36  and  C_38
REMARK                            x       y       z     vdW  Elec       q    Type
REMARK                         _______ _______ _______ _____ _____    ______ ____
ROOT
ATOM      1  C   UNL     1       0.259   1.236   0.185  0.00  0.00    +0.068 C 
ATOM      2  C   UNL     1       0.038  -0.232  -0.074  0.00  0.00    +0.065 A 
ATOM      3  C   UNL     1      -0.010  -0.842  -1.331  0.00  0.00    +0.021 A 
ATOM      4  C   UNL     1      -0.226  -2.171  -1.143  0.00  0.00    +0.225 A 
ATOM      5  N   UNL     1      -0.311  -2.385   0.198  0.00  0.00    -0.200 N 
ATOM      6  N   UNL     1      -0.137  -1.152   0.840  0.00  0.00    -0.168 NA
ENDROOT
BRANCH   5   7
ATOM      7  C   UNL     1      -0.530  -3.619   0.825  0.00  0.00    +0.069 A 
ATOM      8  C   UNL     1      -1.467  -4.505   0.309  0.00  0.00    +0.028 A 
ATOM      9  C   UNL     1      -1.680  -5.721   0.929  0.00  0.00    +0.002 A 
ATOM     10  C   UNL     1      -0.962  -6.056   2.063  0.00  0.00    +0.000 A 
ATOM     11  C   UNL     1      -0.029  -5.176   2.579  0.00  0.00    +0.002 A 
ATOM     12  C   UNL     1       0.193  -3.961   1.960  0.00  0.00    +0.028 A 
ENDBRANCH   5   7
BRANCH   4  13
ATOM     13  O   UNL     1      -0.337  -3.113  -2.114  0.00  0.00    -0.434 OA
BRANCH  13  14
ATOM     14  C   UNL     1      -1.553  -3.291  -2.695  0.00  0.00    +0.172 A 
ATOM     15  C   UNL     1      -2.654  -2.589  -2.230  0.00  0.00    +0.050 A 
ATOM     16  C   UNL     1      -3.890  -2.771  -2.822  0.00  0.00    +0.004 A 
ATOM     17  C   UNL     1      -4.031  -3.652  -3.878  0.00  0.00    +0.004 A 
ATOM     18  C   UNL     1      -2.937  -4.355  -4.347  0.00  0.00    +0.049 A 
ATOM     19  C   UNL     1      -1.694  -4.174  -3.762  0.00  0.00    +0.162 A 
BRANCH  19  20
ATOM     20  O   UNL     1      -0.616  -4.860  -4.226  0.00  0.00    -0.491 OA
ATOM     21  C   UNL     1      -0.835  -5.749  -5.323  0.00  0.00    +0.277 C 
ENDBRANCH  19  20
ENDBRANCH  13  14
ENDBRANCH   4  13
BRANCH   3  22
ATOM     22  C   UNL     1       0.150  -0.149  -2.660  0.00  0.00    -0.036 C 
BRANCH  22  23
ATOM     23  N   UNL     1       1.514   0.384  -2.774  0.00  0.00    +0.386 N 
ATOM     24  H   UNL     1       1.775   0.827  -1.906  0.00  0.00    -0.081 HD
BRANCH  23  25
ATOM     25  C   UNL     1       2.446  -0.714  -3.063  0.00  0.00    -0.046 C 
BRANCH  25  26
ATOM     26  C   UNL     1       2.581  -1.607  -1.828  0.00  0.00    +0.102 C 
ATOM     27  C   UNL     1       3.717  -2.640  -2.034  0.00  0.00    +0.032 C 
ATOM     28  C   UNL     1       4.105  -2.949  -0.562  0.00  0.00    +0.030 C 
ATOM     29  C   UNL     1       3.882  -1.586   0.128  0.00  0.00    +0.160 C 
ATOM     30  O   UNL     1       2.981  -0.828  -0.690  0.00  0.00    -0.378 OA
ENDBRANCH  25  26
ENDBRANCH  23  25
BRANCH  23  31
ATOM     31  C   UNL     1       1.565   1.370  -3.862  0.00  0.00    -0.044 C 
BRANCH  31  32
ATOM     32  C   UNL     1       2.939   2.043  -3.876  0.00  0.00    +0.124 C 
BRANCH  32  33
ATOM     33  O   UNL     1       3.167   2.686  -2.620  0.00  0.00    -0.391 OA
ATOM     34  H   UNL     1       2.517   3.368  -2.404  0.00  0.00    +0.210 HD
ENDBRANCH  32  33
BRANCH  32  35
ATOM     35  C   UNL     1       2.986   3.083  -4.997  0.00  0.00    +0.189 C 
BRANCH  35  36
ATOM     36  O   UNL     1       4.304   3.628  -5.085  0.00  0.00    -0.375 OA
BRANCH  36  37
ATOM     37  C   UNL     1       4.457   4.615  -6.108  0.00  0.00    +0.112 C 
ATOM     38  C   UNL     1       4.148   5.998  -5.532  0.00  0.00    +0.037 C 
ATOM     39  C   UNL     1       5.895   4.590  -6.630  0.00  0.00    +0.037 C 
ENDBRANCH  36  37
ENDBRANCH  35  36
ENDBRANCH  32  35
ENDBRANCH  31  32
ENDBRANCH  23  31
ENDBRANCH  22  23
ENDBRANCH   3  22
TORSDOF 14
