REMARK  Name = ZINC64713517
REMARK  7 active torsions:
REMARK  status: ('A' for Active; 'I' for Inactive)
REMARK    1  A    between atoms: C_1  and  C_2
REMARK    2  A    between atoms: C_2  and  O_3
REMARK    3  A    between atoms: O_3  and  C_4
REMARK    4  A    between atoms: C_7  and  C_10
REMARK    5  A    between atoms: C_18  and  S_22
REMARK    6  A    between atoms: S_22  and  C_23
REMARK    7  A    between atoms: C_23  and  C_24
REMARK                            x       y       z     vdW  Elec       q    Type
REMARK                         _______ _______ _______ _____ _____    ______ ____
ROOT
ATOM      1  C   UNL     1      -1.998  -6.069  -0.013  0.00  0.00    +0.047 C 
ATOM      2  C   UNL     1      -3.187  -6.717  -0.016  0.00  0.00    +0.027 C 
ATOM      3  C   UNL     1      -2.816  -8.175  -0.041  0.00  0.00    +0.193 C 
ATOM      4  C   UNL     1      -3.631  -9.088   0.823  0.00  0.00    +0.276 C 
ATOM      5  O   UNL     1      -4.797  -8.874   1.054  0.00  0.00    -0.270 OA
ATOM      6  N   UNL     1      -2.986 -10.168   1.331  0.00  0.00    -0.081 NA
ATOM      7  N   UNL     1      -1.774 -10.362   1.209  0.00  0.00    -0.163 NA
ATOM      8  C   UNL     1      -0.866  -9.421   0.529  0.00  0.00    +0.272 C 
ATOM      9  N   UNL     1      -1.462  -8.107   0.597  0.00  0.00    -0.178 NA
ATOM     10  N   UNL     1      -0.947  -7.017  -0.024  0.00  0.00    -0.274 N 
ATOM     11  H   UNL     1      -0.057  -6.910  -0.393  0.00  0.00    +0.167 HD
ENDROOT
BRANCH   1  15
ATOM     12  C   UNL     1      -1.498  -1.848   0.006  0.00  0.00    +0.121 A 
ATOM     13  C   UNL     1      -0.385  -2.677  -0.003  0.00  0.00    +0.046 A 
ATOM     14  C   UNL     1      -0.543  -4.047  -0.009  0.00  0.00    +0.013 A 
ATOM     15  C   UNL     1      -1.824  -4.599  -0.006  0.00  0.00    -0.003 A 
ATOM     16  C   UNL     1      -2.941  -3.763   0.004  0.00  0.00    +0.013 A 
ATOM     17  C   UNL     1      -2.775  -2.394   0.016  0.00  0.00    +0.046 A 
BRANCH  12  18
ATOM     18  O   UNL     1      -1.339  -0.499   0.012  0.00  0.00    -0.492 OA
BRANCH  18  20
ATOM     19  C   UNL     1      -0.019   1.526   0.010  0.00  0.00    +0.048 C 
ATOM     20  C   UNL     1       0.002  -0.004   0.002  0.00  0.00    +0.225 C 
ENDBRANCH  18  20
ENDBRANCH  12  18
ENDBRANCH   1  15
BRANCH   8  21
ATOM     21  S   UNL     1       0.751  -9.415   1.352  0.00  0.00    -0.110 S 
BRANCH  21  22
ATOM     22  C   UNL     1       0.378  -8.890   3.048  0.00  0.00    +0.128 C 
BRANCH  22  23
ATOM     23  C   UNL     1       1.652  -8.843   3.851  0.00  0.00    +0.059 A 
ATOM     24  C   UNL     1       2.225  -7.626   4.164  0.00  0.00    +0.094 A 
ATOM     25  C   UNL     1       3.409  -7.608   4.911  0.00  0.00    +0.259 A 
ATOM     26  O   UNL     1       3.941  -6.549   5.205  0.00  0.00    -0.267 OA
ATOM     27  N   UNL     1       3.954  -8.780   5.302  0.00  0.00    -0.268 N 
ATOM     28  C   UNL     1       5.105  -8.779   6.029  0.00  0.00    +0.096 A 
ATOM     29  C   UNL     1       5.669  -9.940   6.432  0.00  0.00    +0.018 A 
ATOM     30  C   UNL     1       5.072 -11.164   6.103  0.00  0.00    +0.005 A 
ATOM     31  C   UNL     1       3.919 -11.176   5.375  0.00  0.00    +0.047 A 
ATOM     32  C   UNL     1       3.347  -9.958   4.966  0.00  0.00    +0.140 A 
ATOM     33  N   UNL     1       2.218  -9.968   4.260  0.00  0.00    -0.233 NA
ENDBRANCH  22  23
ENDBRANCH  21  22
ENDBRANCH   8  21
TORSDOF 6
