REMARK  Name = ZINC66366979
REMARK  9 active torsions:
REMARK  status: ('A' for Active; 'I' for Inactive)
REMARK    1  A    between atoms: C_1  and  C_2
REMARK    2  A    between atoms: C_2  and  C_3
REMARK    3  A    between atoms: C_3  and  C_5
REMARK    4  A    between atoms: C_3  and  N_8
REMARK    5  A    between atoms: C_5  and  C_6
REMARK    6  A    between atoms: C_5  and  C_7
REMARK    7  A    between atoms: N_11  and  C_12
REMARK    8  A    between atoms: C_12  and  C_13
REMARK    9  A    between atoms: C_13  and  C_14
REMARK                            x       y       z     vdW  Elec       q    Type
REMARK                         _______ _______ _______ _____ _____    ______ ____
ROOT
ATOM      1  C   UNL     1       4.215   2.817   2.018  0.00  0.00    +0.107 C 
ENDROOT
BRANCH   1   5
ATOM      2  N   UNL     1       2.148  -0.104   1.172  0.00  0.00    -0.296 N 
ATOM      3  C   UNL     1       2.518   1.116   1.608  0.00  0.00    +0.300 C 
ATOM      4  O   UNL     1       1.686   1.879   2.060  0.00  0.00    -0.253 OA
ATOM      5  N   UNL     1       3.812   1.491   1.544  0.00  0.00    -0.299 N 
ATOM      6  H   UNL     1       2.812  -0.712   0.811  0.00  0.00    +0.151 HD
ATOM      7  H   UNL     1       4.475   0.882   1.183  0.00  0.00    +0.150 HD
BRANCH   2   8
ATOM      8  C   UNL     1       0.742  -0.511   1.242  0.00  0.00    +0.077 C 
BRANCH   8   9
ATOM      9  C   UNL     1       0.655  -2.037   1.299  0.00  0.00    +0.003 C 
ATOM     10  C   UNL     1       1.395  -2.544   2.538  0.00  0.00    +0.009 C 
ATOM     11  C   UNL     1      -0.812  -2.462   1.372  0.00  0.00    +0.009 C 
ENDBRANCH   8   9
BRANCH   8  13
ATOM     12  C   UNL     1      -0.019   1.526   0.010  0.00  0.00    +0.006 C 
ATOM     13  C   UNL     1       0.002  -0.004   0.002  0.00  0.00    +0.019 C 
ENDBRANCH   8  13
ENDBRANCH   2   8
ENDBRANCH   1   5
BRANCH   1  14
ATOM     14  C   UNL     1       5.724   2.987   1.834  0.00  0.00    +0.036 C 
BRANCH  14  15
ATOM     15  C   UNL     1       6.145   4.372   2.329  0.00  0.00    +0.108 C 
ATOM     16  C   UNL     1       7.644   4.538   2.229  0.00  0.00    -0.014 A 
ATOM     17  C   UNL     1       8.700   3.872   2.808  0.00  0.00    +0.006 A 
ATOM     18  C   UNL     1       9.999   4.255   2.521  0.00  0.00    +0.000 A 
ATOM     19  C   UNL     1      10.229   5.308   1.653  0.00  0.00    +0.002 A 
ATOM     20  C   UNL     1       9.172   5.977   1.072  0.00  0.00    +0.023 A 
ATOM     21  C   UNL     1       7.862   5.596   1.356  0.00  0.00    +0.037 A 
ATOM     22  N   UNL     1       6.645   6.107   0.902  0.00  0.00    -0.285 N 
ATOM     23  C   UNL     1       5.590   5.451   1.423  0.00  0.00    +0.225 C 
ATOM     24  O   UNL     1       4.419   5.679   1.207  0.00  0.00    -0.275 OA
ATOM     25  H   UNL     1       6.568   6.850   0.284  0.00  0.00    +0.155 HD
ENDBRANCH  14  15
ENDBRANCH   1  14
TORSDOF 6
