REMARK  Name = ZINC35394123
REMARK  10 active torsions:
REMARK  status: ('A' for Active; 'I' for Inactive)
REMARK    1  A    between atoms: C_1  and  C_2
REMARK    2  A    between atoms: C_5  and  N_9
REMARK    3  A    between atoms: C_10  and  C_12
REMARK    4  A    between atoms: N_23  and  C_40
REMARK    5  A    between atoms: C_24  and  C_26
REMARK    6  A    between atoms: N_28  and  C_29
REMARK    7  A    between atoms: C_34  and  C_39
REMARK    8  A    between atoms: C_36  and  C_38
REMARK    9  A    between atoms: C_40  and  C_41
REMARK   10  A    between atoms: C_40  and  C_42
REMARK                            x       y       z     vdW  Elec       q    Type
REMARK                         _______ _______ _______ _____ _____    ______ ____
ROOT
ATOM      1  C   UNL     1       0.097  -6.355   1.347  0.00  0.00    +0.123 C 
ATOM      2  C   UNL     1      -1.186  -6.979   0.708  0.00  0.00    +0.155 C 
ATOM      3  C   UNL     1      -1.024  -8.502   0.779  0.00  0.00    +0.004 C 
ATOM      4  C   UNL     1      -1.186  -8.861   2.059  0.00  0.00    +0.009 C 
ATOM      5  C   UNL     1      -1.405  -7.569   2.762  0.00  0.00    +0.127 C 
ATOM      6  C   UNL     1      -0.029  -6.807   2.813  0.00  0.00    +0.128 C 
ATOM      7  C   UNL     1      -0.323  -5.706   3.792  0.00  0.00    +0.224 C 
ATOM      8  O   UNL     1       0.253  -4.640   3.842  0.00  0.00    -0.275 OA
ATOM      9  N   UNL     1      -1.335  -6.092   4.610  0.00  0.00    -0.284 N 
ATOM     10  C   UNL     1      -1.873  -7.438   4.177  0.00  0.00    +0.199 C 
ATOM     11  O   UNL     1      -2.151  -6.748   1.798  0.00  0.00    -0.358 OA
ENDROOT
BRANCH   1  13
ATOM     12  N   UNL     1       1.231  -4.162   1.203  0.00  0.00    -0.285 N 
ATOM     13  C   UNL     1       0.074  -4.852   1.243  0.00  0.00    +0.224 C 
ATOM     14  O   UNL     1      -0.985  -4.263   1.195  0.00  0.00    -0.275 OA
ATOM     15  H   UNL     1       2.077  -4.636   1.174  0.00  0.00    +0.155 HD
BRANCH  12  20
ATOM     16  C   UNL     1       1.155   1.511   1.204  0.00  0.00    +0.045 C 
ATOM     17  C   UNL     1       1.175   0.004   1.203  0.00  0.00    -0.032 A 
ATOM     18  C   UNL     1       2.188  -0.673   1.858  0.00  0.00    +0.006 A 
ATOM     19  C   UNL     1       2.209  -2.053   1.860  0.00  0.00    +0.023 A 
ATOM     20  C   UNL     1       1.212  -2.763   1.203  0.00  0.00    +0.035 A 
ATOM     21  C   UNL     1       0.196  -2.082   0.546  0.00  0.00    +0.043 A 
ATOM     22  C   UNL     1       0.177  -0.699   0.552  0.00  0.00    +0.046 A 
ATOM     23 CL   UNL     1      -1.095   0.155  -0.263  0.00  0.00    -0.083 Cl
ENDBRANCH  12  20
ENDBRANCH   1  13
BRANCH  10  24
ATOM     24  C   UNL     1      -1.324  -8.559   5.021  0.00  0.00    +0.237 C 
ATOM     25  O   UNL     1      -0.358  -8.367   5.729  0.00  0.00    -0.274 OA
ATOM     26  N   UNL     1      -1.906  -9.774   4.990  0.00  0.00    -0.311 N 
ATOM     27  H   UNL     1      -2.678  -9.928   4.423  0.00  0.00    +0.149 HD
BRANCH  26  28
ATOM     28  C   UNL     1      -1.371 -10.864   5.810  0.00  0.00    +0.076 C 
ATOM     29  C   UNL     1      -0.229 -11.553   5.061  0.00  0.00    +0.022 C 
ATOM     30  C   UNL     1       0.329 -12.691   5.919  0.00  0.00    +0.002 C 
ATOM     31  C   UNL     1      -0.780 -13.706   6.204  0.00  0.00    +0.003 C 
ATOM     32  C   UNL     1      -1.922 -13.017   6.952  0.00  0.00    -0.009 C 
ATOM     33  C   UNL     1      -2.480 -11.879   6.095  0.00  0.00    +0.009 C 
ATOM     34  C   UNL     1      -3.005 -12.445   4.774  0.00  0.00    +0.009 C 
ATOM     35  C   UNL     1      -3.031 -14.032   7.237  0.00  0.00    +0.008 C 
ENDBRANCH  26  28
ENDBRANCH  10  24
BRANCH   9  36
ATOM     36  C   UNL     1      -1.812  -5.323   5.763  0.00  0.00    +0.071 C 
ATOM     37  C   UNL     1      -0.667  -5.138   6.761  0.00  0.00    +0.028 C 
ATOM     38  C   UNL     1      -2.306  -3.954   5.293  0.00  0.00    +0.028 C 
ENDBRANCH   9  36
TORSDOF 5
