REMARK  Name = ZINC09673288
REMARK  19 active torsions:
REMARK  status: ('A' for Active; 'I' for Inactive)
REMARK    1  A    between atoms: C_1  and  C_2
REMARK    2  A    between atoms: C_2  and  C_3
REMARK    3  A    between atoms: C_3  and  C_4
REMARK    4  A    between atoms: C_4  and  C_5
REMARK    5  A    between atoms: C_5  and  C_6
REMARK    6  A    between atoms: C_9  and  C_12
REMARK    7  A    between atoms: C_15  and  C_18
REMARK    8  A    between atoms: N_20  and  C_21
REMARK    9  A    between atoms: C_21  and  C_23
REMARK   10  A    between atoms: C_21  and  C_26
REMARK   11  A    between atoms: C_23  and  C_24
REMARK   12  A    between atoms: C_23  and  C_25
REMARK   13  A    between atoms: N_28  and  C_29
REMARK   14  A    between atoms: C_29  and  C_31
REMARK   15  A    between atoms: C_29  and  C_34
REMARK   16  A    between atoms: C_31  and  C_32
REMARK   17  A    between atoms: C_31  and  C_33
REMARK   18  A    between atoms: C_34  and  O_36
REMARK   19  A    between atoms: O_36  and  C_37
REMARK                            x       y       z     vdW  Elec       q    Type
REMARK                         _______ _______ _______ _____ _____    ______ ____
ROOT
ATOM      1  C   UNL     1      -5.830   5.213   3.763  0.00  0.00    +0.245 C 
ATOM      2  O   UNL     1      -6.356   4.566   4.647  0.00  0.00    -0.270 OA
ATOM      3  N   UNL     1      -4.752   4.724   3.120  0.00  0.00    -0.300 N 
ATOM      4  H   UNL     1      -4.332   5.240   2.414  0.00  0.00    +0.150 HD
ENDROOT
BRANCH   1   8
ATOM      5  C   UNL     1      -7.393   9.017   2.699  0.00  0.00    -0.044 A 
ATOM      6  C   UNL     1      -7.994   8.282   3.706  0.00  0.00    +0.004 A 
ATOM      7  C   UNL     1      -7.492   7.046   4.056  0.00  0.00    +0.013 A 
ATOM      8  C   UNL     1      -6.375   6.537   3.392  0.00  0.00    +0.037 A 
ATOM      9  C   UNL     1      -5.770   7.285   2.381  0.00  0.00    +0.013 A 
ATOM     10  C   UNL     1      -6.285   8.518   2.037  0.00  0.00    +0.004 A 
BRANCH   5  14
ATOM     11  C   UNL     1      -7.859  12.792   0.681  0.00  0.00    -0.011 C 
ATOM     12  C   UNL     1      -7.437  12.806   2.152  0.00  0.00    +0.004 C 
ATOM     13  C   UNL     1      -6.875  11.436   2.535  0.00  0.00    +0.008 C 
ATOM     14  C   UNL     1      -7.947  10.366   2.322  0.00  0.00    +0.019 C 
ATOM     15  C   UNL     1      -8.369  10.352   0.851  0.00  0.00    +0.008 C 
ATOM     16  C   UNL     1      -8.931  11.722   0.468  0.00  0.00    +0.004 C 
BRANCH  11  17
ATOM     17  C   UNL     1      -8.421  14.162   0.298  0.00  0.00    +0.003 C 
BRANCH  17  18
ATOM     18  C   UNL     1      -8.726  14.187  -1.201  0.00  0.00    +0.000 C 
BRANCH  18  19
ATOM     19  C   UNL     1      -9.289  15.557  -1.584  0.00  0.00    -0.000 C 
BRANCH  19  21
ATOM     20  C   UNL     1     -10.157  16.953  -3.466  0.00  0.00    +0.004 C 
ATOM     21  C   UNL     1      -9.594  15.582  -3.083  0.00  0.00    -0.003 C 
ENDBRANCH  19  21
ENDBRANCH  18  19
ENDBRANCH  17  18
ENDBRANCH  11  17
ENDBRANCH   5  14
ENDBRANCH   1   8
BRANCH   3  22
ATOM     22  C   UNL     1      -4.212   3.412   3.487  0.00  0.00    +0.162 C 
BRANCH  22  23
ATOM     23  C   UNL     1      -3.470   2.828   2.312  0.00  0.00    +0.234 C 
ATOM     24  O   UNL     1      -3.399   3.446   1.272  0.00  0.00    -0.274 OA
ATOM     25  N   UNL     1      -2.886   1.618   2.419  0.00  0.00    -0.301 N 
ATOM     26  H   UNL     1      -2.943   1.123   3.252  0.00  0.00    +0.150 HD
BRANCH  25  27
ATOM     27  C   UNL     1      -2.164   1.050   1.278  0.00  0.00    +0.184 C 
BRANCH  27  28
ATOM     28  C   UNL     1      -0.729   1.579   1.267  0.00  0.00    +0.014 C 
ATOM     29  C   UNL     1      -0.013   1.086   0.008  0.00  0.00    +0.009 C 
ATOM     30  C   UNL     1       0.011   1.072   2.506  0.00  0.00    +0.009 C 
ENDBRANCH  27  28
BRANCH  27  31
ATOM     31  C   UNL     1      -2.144  -0.453   1.393  0.00  0.00    +0.328 C 
ATOM     32  O   UNL     1      -2.678  -0.994   2.333  0.00  0.00    -0.249 OA
BRANCH  31  33
ATOM     33  O   UNL     1      -1.534  -1.190   0.453  0.00  0.00    -0.467 OA
ATOM     34  C   UNL     1      -1.554  -2.631   0.629  0.00  0.00    +0.280 C 
ENDBRANCH  31  33
ENDBRANCH  27  31
ENDBRANCH  25  27
ENDBRANCH  22  23
BRANCH  22  35
ATOM     35  C   UNL     1      -3.254   3.567   4.670  0.00  0.00    +0.012 C 
ATOM     36  C   UNL     1      -2.175   4.595   4.321  0.00  0.00    +0.009 C 
ATOM     37  C   UNL     1      -4.033   4.043   5.898  0.00  0.00    +0.009 C 
ENDBRANCH  22  35
ENDBRANCH   3  22
TORSDOF 13
