REMARK  Name = ZINC12414381
REMARK  10 active torsions:
REMARK  status: ('A' for Active; 'I' for Inactive)
REMARK    1  A    between atoms: C_1  and  C_2
REMARK    2  A    between atoms: C_2  and  C_3
REMARK    3  A    between atoms: C_3  and  N_4
REMARK    4  A    between atoms: C_5  and  C_7
REMARK    5  A    between atoms: C_10  and  C_13
REMARK    6  A    between atoms: C_13  and  N_14
REMARK    7  A    between atoms: N_22  and  C_25
REMARK    8  A    between atoms: C_25  and  C_26
REMARK    9  A    between atoms: N_28  and  C_29
REMARK   10  A    between atoms: C_32  and  C_35
REMARK                            x       y       z     vdW  Elec       q    Type
REMARK                         _______ _______ _______ _____ _____    ______ ____
ROOT
ATOM      1  N   UNL     1       3.950  -1.151  -0.033  0.00  0.00    -0.260 N 
ATOM      2  C   UNL     1       2.613  -1.353  -0.029  0.00  0.00    +0.271 A 
ATOM      3  O   UNL     1       2.159  -2.483  -0.030  0.00  0.00    -0.266 OA
ATOM      4  C   UNL     1       1.760  -0.245  -0.023  0.00  0.00    +0.100 A 
ATOM      5  C   UNL     1       2.258   1.061  -0.022  0.00  0.00    +0.066 A 
ATOM      6  C   UNL     1       1.285   2.057  -0.016  0.00  0.00    +0.034 A 
ATOM      7  C   UNL     1      -0.026   1.722  -0.013  0.00  0.00    +0.048 A 
ATOM      8  S   UNL     1       0.003  -0.012  -0.017  0.00  0.00    -0.090 S 
ATOM      9  N   UNL     1       3.657   1.186  -0.026  0.00  0.00    -0.284 N 
ATOM     10  C   UNL     1       4.443   0.100  -0.031  0.00  0.00    +0.333 A 
ATOM     11  O   UNL     1       5.649   0.252  -0.035  0.00  0.00    -0.246 OA
ENDROOT
BRANCH   1  12
ATOM     12  C   UNL     1       4.863  -2.297  -0.039  0.00  0.00    +0.133 C 
BRANCH  12  16
ATOM     13  C   UNL     1       5.261  -4.697  -3.618  0.00  0.00    +0.075 C 
ATOM     14  C   UNL     1       6.538  -4.201  -2.936  0.00  0.00    +0.013 C 
ATOM     15  C   UNL     1       6.225  -3.806  -1.492  0.00  0.00    +0.006 C 
ATOM     16  C   UNL     1       5.176  -2.692  -1.483  0.00  0.00    +0.009 C 
ATOM     17  C   UNL     1       3.900  -3.188  -2.165  0.00  0.00    +0.006 C 
ATOM     18  C   UNL     1       4.213  -3.583  -3.609  0.00  0.00    +0.013 C 
BRANCH  13  20
ATOM     19  N   UNL     1       3.602  -6.503  -3.296  0.00  0.00    -0.315 N 
ATOM     20  C   UNL     1       4.728  -5.894  -2.874  0.00  0.00    +0.216 C 
ATOM     21  O   UNL     1       5.311  -6.310  -1.895  0.00  0.00    -0.276 OA
ATOM     22  H   UNL     1       3.135  -6.171  -4.079  0.00  0.00    +0.149 HD
BRANCH  19  23
ATOM     23  C   UNL     1       3.083  -7.667  -2.573  0.00  0.00    +0.104 C 
BRANCH  23  25
ATOM     24  C   UNL     1       1.265  -9.379  -2.499  0.00  0.00    +0.005 C 
ATOM     25  C   UNL     1       1.807  -8.164  -3.254  0.00  0.00    +0.015 C 
ENDBRANCH  23  25
ENDBRANCH  19  23
ENDBRANCH  13  20
ENDBRANCH  12  16
ENDBRANCH   1  12
BRANCH   9  26
ATOM     26  C   UNL     1       4.264   2.519  -0.025  0.00  0.00    +0.222 C 
BRANCH  26  27
ATOM     27  C   UNL     1       4.468   2.979  -1.445  0.00  0.00    +0.237 C 
ATOM     28  O   UNL     1       4.138   2.264  -2.368  0.00  0.00    -0.274 OA
ATOM     29  N   UNL     1       5.017   4.186  -1.691  0.00  0.00    -0.284 N 
ATOM     30  H   UNL     1       5.219   4.785  -0.955  0.00  0.00    +0.155 HD
BRANCH  29  31
ATOM     31  C   UNL     1       5.295   4.573  -3.006  0.00  0.00    +0.033 A 
ATOM     32  C   UNL     1       6.411   5.354  -3.280  0.00  0.00    +0.023 A 
ATOM     33  C   UNL     1       6.685   5.731  -4.580  0.00  0.00    +0.005 A 
ATOM     34  C   UNL     1       5.845   5.341  -5.607  0.00  0.00    -0.050 A 
ATOM     35  C   UNL     1       4.731   4.568  -5.336  0.00  0.00    +0.005 A 
ATOM     36  C   UNL     1       4.453   4.184  -4.039  0.00  0.00    +0.023 A 
ATOM     37  C   UNL     1       6.144   5.759  -7.023  0.00  0.00    +0.044 C 
ENDBRANCH  29  31
ENDBRANCH  26  27
ENDBRANCH   9  26
TORSDOF 8
