REMARK  Name = ZINC23332334
REMARK  11 active torsions:
REMARK  status: ('A' for Active; 'I' for Inactive)
REMARK    1  A    between atoms: C_1  and  C_2
REMARK    2  A    between atoms: C_2  and  O_3
REMARK    3  A    between atoms: O_3  and  C_4
REMARK    4  A    between atoms: C_4  and  C_6
REMARK    5  A    between atoms: C_7  and  C_33
REMARK    6  A    between atoms: C_12  and  C_16
REMARK    7  A    between atoms: C_16  and  C_18
REMARK    8  A    between atoms: C_16  and  N_19
REMARK    9  A    between atoms: N_22  and  C_25
REMARK   10  A    between atoms: C_25  and  C_26
REMARK   11  A    between atoms: C_31  and  C_32
REMARK                            x       y       z     vdW  Elec       q    Type
REMARK                         _______ _______ _______ _____ _____    ______ ____
ROOT
ATOM      1  C   UNL     1       3.213  -2.877   0.217  0.00  0.00    +0.102 A 
ATOM      2  C   UNL     1       3.480  -1.539   0.209  0.00  0.00    -0.015 A 
ATOM      3  C   UNL     1       2.428  -0.621   0.183  0.00  0.00    +0.076 A 
ATOM      4  C   UNL     1       2.477   0.859   0.170  0.00  0.00    +0.282 A 
ATOM      5  O   UNL     1       3.543   1.449   0.182  0.00  0.00    -0.265 OA
ATOM      6  N   UNL     1       1.313   1.536   0.145  0.00  0.00    -0.197 NA
ATOM      7  C   UNL     1       0.121   0.890   0.131  0.00  0.00    +0.098 A 
ATOM      8  N   UNL     1       0.042  -0.413   0.141  0.00  0.00    -0.339 N 
ATOM      9  C   UNL     1       1.127  -1.175   0.166  0.00  0.00    +0.092 A 
ATOM     10  S   UNL     1       1.429  -2.924   0.187  0.00  0.00    -0.064 S 
ATOM     11  C   UNL     1       4.906  -1.053   0.228  0.00  0.00    +0.046 C 
ATOM     12  H   UNL     1      -0.942  -0.904   0.129  0.00  0.00    +0.167 HD
ENDROOT
BRANCH   1  13
ATOM     13  C   UNL     1       4.157  -3.997   0.243  0.00  0.00    +0.346 C 
ATOM     14  O   UNL     1       5.354  -3.784   0.261  0.00  0.00    -0.244 OA
BRANCH  13  15
ATOM     15  O   UNL     1       3.698  -5.266   0.247  0.00  0.00    -0.461 OA
BRANCH  15  17
ATOM     16  C   UNL     1       3.985  -7.684   0.275  0.00  0.00    +0.048 C 
ATOM     17  C   UNL     1       4.690  -6.326   0.274  0.00  0.00    +0.229 C 
ENDBRANCH  15  17
ENDBRANCH  13  15
ENDBRANCH   1  13
BRANCH   7  18
ATOM     18  C   UNL     1      -1.149   1.700   0.096  0.00  0.00    -0.004 C 
ATOM     19  C   UNL     1      -1.109   2.661  -1.094  0.00  0.00    -0.005 C 
BRANCH  18  20
ATOM     20  N   UNL     1      -2.301   0.799  -0.041  0.00  0.00    +0.388 N 
ATOM     21  C   UNL     1      -2.224   0.033  -1.293  0.00  0.00    -0.062 C 
ATOM     22  C   UNL     1      -3.396  -0.949  -1.360  0.00  0.00    +0.066 C 
ATOM     23  N   UNL     1      -4.661  -0.204  -1.279  0.00  0.00    -0.302 NA
ATOM     24  C   UNL     1      -4.738   0.561  -0.027  0.00  0.00    +0.066 C 
ATOM     25  C   UNL     1      -3.565   1.543   0.040  0.00  0.00    -0.062 C 
ATOM     26  H   UNL     1      -2.272   0.086   0.796  0.00  0.00    -0.081 HD
BRANCH  23  27
ATOM     27  C   UNL     1      -5.812  -1.106  -1.416  0.00  0.00    +0.119 C 
BRANCH  27  28
ATOM     28  C   UNL     1      -5.911  -1.581  -2.843  0.00  0.00    -0.030 A 
ATOM     29  C   UNL     1      -5.540  -2.873  -3.168  0.00  0.00    +0.005 A 
ATOM     30  C   UNL     1      -5.635  -3.310  -4.476  0.00  0.00    +0.000 A 
ATOM     31  C   UNL     1      -6.092  -2.453  -5.460  0.00  0.00    +0.000 A 
ATOM     32  C   UNL     1      -6.458  -1.160  -5.135  0.00  0.00    +0.003 A 
ATOM     33  C   UNL     1      -6.368  -0.724  -3.826  0.00  0.00    -0.046 A 
ATOM     34  C   UNL     1      -6.766   0.685  -3.472  0.00  0.00    +0.044 C 
ENDBRANCH  27  28
ENDBRANCH  23  27
ENDBRANCH  18  20
ENDBRANCH   7  18
TORSDOF 7
