REMARK  Name = ZINC65025262
REMARK  13 active torsions:
REMARK  status: ('A' for Active; 'I' for Inactive)
REMARK    1  A    between atoms: C_1  and  C_2
REMARK    2  A    between atoms: C_2  and  C_3
REMARK    3  A    between atoms: C_3  and  C_5
REMARK    4  A    between atoms: C_3  and  N_6
REMARK    5  A    between atoms: C_7  and  C_9
REMARK    6  A    between atoms: C_11  and  N_21
REMARK    7  A    between atoms: C_14  and  N_15
REMARK    8  A    between atoms: N_21  and  S_22
REMARK    9  A    between atoms: S_22  and  C_25
REMARK   10  A    between atoms: C_28  and  C_31
REMARK   11  A    between atoms: C_31  and  C_32
REMARK   12  A    between atoms: C_32  and  C_33
REMARK   13  A    between atoms: C_32  and  C_34
REMARK                            x       y       z     vdW  Elec       q    Type
REMARK                         _______ _______ _______ _____ _____    ______ ____
ROOT
ATOM      1  C   UNL     1      -0.219   0.398  -4.827  0.00  0.00    +0.078 A 
ATOM      2  C   UNL     1      -1.611   0.525  -4.757  0.00  0.00    +0.044 A 
ATOM      3  C   UNL     1      -2.295   0.907  -5.904  0.00  0.00    +0.093 A 
ATOM      4  C   UNL     1      -1.584   1.151  -7.072  0.00  0.00    +0.139 A 
ATOM      5  N   UNL     1      -0.272   1.024  -7.111  0.00  0.00    -0.238 NA
ATOM      6  C   UNL     1       0.426   0.667  -6.045  0.00  0.00    +0.133 A 
ENDROOT
BRANCH   6   7
ATOM      7  N   UNL     1       1.804   0.552  -6.133  0.00  0.00    -0.318 N 
ATOM      8  C   UNL     1       2.431  -0.691  -6.607  0.00  0.00    +0.087 C 
ATOM      9  C   UNL     1       3.440  -0.339  -7.705  0.00  0.00    -0.063 C 
ATOM     10  N   UNL     1       4.386   0.662  -7.196  0.00  0.00    +0.381 N 
ATOM     11  C   UNL     1       3.679   1.912  -6.894  0.00  0.00    -0.063 C 
ATOM     12  C   UNL     1       2.682   1.673  -5.761  0.00  0.00    +0.087 C 
ATOM     13  H   UNL     1       4.824   0.312  -6.357  0.00  0.00    -0.086 HD
ATOM     14  H   UNL     1       5.095   0.838  -7.893  0.00  0.00    -0.086 HD
ENDBRANCH   6   7
BRANCH   1  16
ATOM     15  N   UNL     1      -0.057  -0.145  -2.448  0.00  0.00    -0.309 N 
ATOM     16  C   UNL     1       0.558  -0.005  -3.640  0.00  0.00    +0.248 C 
ATOM     17  O   UNL     1       1.752  -0.211  -3.736  0.00  0.00    -0.270 OA
ATOM     18  H   UNL     1      -1.009   0.020  -2.372  0.00  0.00    +0.149 HD
BRANCH  15  19
ATOM     19  C   UNL     1       0.715  -0.545  -1.269  0.00  0.00    +0.070 C 
ATOM     20  C   UNL     1       0.826  -2.071  -1.226  0.00  0.00    +0.028 C 
BRANCH  19  22
ATOM     21  C   UNL     1       0.009   1.481   0.011  0.00  0.00    +0.005 C 
ATOM     22  C   UNL     1       0.009  -0.049  -0.005  0.00  0.00    +0.018 C 
ENDBRANCH  19  22
ENDBRANCH  15  19
ENDBRANCH   1  16
BRANCH   3  23
ATOM     23  N   UNL     1      -3.689   1.047  -5.882  0.00  0.00    -0.096 NA
BRANCH  23  24
ATOM     24  S   UNL     1      -4.497   1.504  -7.253  0.00  0.00    +0.092 S 
ATOM     25  O   UNL     1      -4.093   2.836  -7.538  0.00  0.00    -0.148 OA
ATOM     26  O   UNL     1      -4.342   0.445  -8.188  0.00  0.00    -0.148 OA
BRANCH  24  27
ATOM     27  C   UNL     1      -6.211   1.573  -6.850  0.00  0.00    +0.110 A 
ATOM     28  C   UNL     1      -7.002   0.449  -6.998  0.00  0.00    +0.029 A 
ATOM     29  C   UNL     1      -8.346   0.503  -6.682  0.00  0.00    +0.005 A 
ATOM     30  C   UNL     1      -8.900   1.681  -6.216  0.00  0.00    -0.047 A 
ATOM     31  C   UNL     1      -8.108   2.805  -6.067  0.00  0.00    +0.005 A 
ATOM     32  C   UNL     1      -6.763   2.749  -6.379  0.00  0.00    +0.029 A 
BRANCH  30  33
ATOM     33  C   UNL     1     -10.366   1.740  -5.872  0.00  0.00    +0.038 C 
BRANCH  33  34
ATOM     34  C   UNL     1     -10.560   1.367  -4.401  0.00  0.00    -0.013 C 
ATOM     35  C   UNL     1      -9.893   2.421  -3.515  0.00  0.00    +0.007 C 
ATOM     36  C   UNL     1     -12.055   1.305  -4.083  0.00  0.00    +0.007 C 
ENDBRANCH  33  34
ENDBRANCH  30  33
ENDBRANCH  24  27
ENDBRANCH  23  24
ENDBRANCH   3  23
TORSDOF 9
