REMARK  Name = ZINC63830590
REMARK  9 active torsions:
REMARK  status: ('A' for Active; 'I' for Inactive)
REMARK    1  A    between atoms: C_1  and  O_2
REMARK    2  A    between atoms: O_2  and  C_3
REMARK    3  A    between atoms: C_6  and  C_16
REMARK    4  A    between atoms: C_8  and  S_9
REMARK    5  A    between atoms: S_9  and  N_12
REMARK    6  A    between atoms: N_12  and  C_13
REMARK    7  A    between atoms: N_18  and  C_19
REMARK    8  A    between atoms: C_19  and  C_20
REMARK    9  A    between atoms: C_20  and  C_21
REMARK                            x       y       z     vdW  Elec       q    Type
REMARK                         _______ _______ _______ _____ _____    ______ ____
ROOT
ATOM      1  C   UNL     1       0.815  -0.967  -1.259  0.00  0.00    +0.146 A 
ATOM      2  C   UNL     1       1.432  -0.386  -2.361  0.00  0.00    +0.048 A 
ATOM      3  C   UNL     1       1.918  -1.178  -3.377  0.00  0.00    +0.017 A 
ATOM      4  C   UNL     1       1.790  -2.568  -3.299  0.00  0.00    +0.039 A 
ATOM      5  C   UNL     1       1.170  -3.148  -2.190  0.00  0.00    +0.045 A 
ATOM      6  C   UNL     1       0.691  -2.349  -1.175  0.00  0.00    +0.147 A 
ENDROOT
BRANCH   4   7
ATOM      7  C   UNL     1       2.310  -3.420  -4.386  0.00  0.00    +0.244 C 
ATOM      8  O   UNL     1       2.198  -4.629  -4.317  0.00  0.00    -0.270 OA
ATOM      9  N   UNL     1       2.908  -2.859  -5.456  0.00  0.00    -0.311 N 
ATOM     10  H   UNL     1       2.997  -1.895  -5.511  0.00  0.00    +0.149 HD
BRANCH   9  11
ATOM     11  C   UNL     1       3.423  -3.705  -6.535  0.00  0.00    +0.109 C 
BRANCH  11  12
ATOM     12  C   UNL     1       4.049  -2.825  -7.619  0.00  0.00    +0.052 C 
BRANCH  12  13
ATOM     13  C   UNL     1       4.579  -3.696  -8.729  0.00  0.00    -0.040 C 
ATOM     14  C   UNL     1       3.945  -4.025  -9.877  0.00  0.00    -0.001 A 
ATOM     15  C   UNL     1       2.623  -3.685 -10.416  0.00  0.00    +0.010 A 
ATOM     16  C   UNL     1       2.259  -4.177 -11.622  0.00  0.00    +0.001 A 
ATOM     17  C   UNL     1       3.111  -5.003 -12.368  0.00  0.00    +0.002 A 
ATOM     18  C   UNL     1       4.341  -5.359 -11.940  0.00  0.00    +0.026 A 
ATOM     19  C   UNL     1       4.827  -4.898 -10.685  0.00  0.00    +0.043 A 
ATOM     20  N   UNL     1       5.961  -5.100 -10.061  0.00  0.00    -0.380 N 
ATOM     21  C   UNL     1       5.930  -4.373  -8.787  0.00  0.00    +0.144 C 
ATOM     22  H   UNL     1       6.699  -5.638 -10.388  0.00  0.00    +0.160 HD
ENDBRANCH  12  13
ENDBRANCH  11  12
ENDBRANCH   9  11
ENDBRANCH   4   7
BRANCH   6  23
ATOM     23  S   UNL     1      -0.086  -3.079   0.227  0.00  0.00    +0.062 S 
ATOM     24  O   UNL     1      -0.099  -4.482  -0.000  0.00  0.00    -0.153 OA
ATOM     25  O   UNL     1       0.518  -2.499   1.375  0.00  0.00    -0.153 OA
BRANCH  23  26
ATOM     26  N   UNL     1      -1.667  -2.585   0.224  0.00  0.00    -0.187 NA
ATOM     27  H   UNL     1      -2.000  -2.021   0.940  0.00  0.00    +0.148 HD
BRANCH  26  28
ATOM     28  C   UNL     1      -2.562  -2.998  -0.860  0.00  0.00    +0.077 C 
ATOM     29  C   UNL     1      -3.653  -2.015  -1.288  0.00  0.00    +0.022 C 
ATOM     30  C   UNL     1      -4.023  -3.275  -0.502  0.00  0.00    +0.022 C 
ENDBRANCH  26  28
ENDBRANCH  23  26
ENDBRANCH   6  23
BRANCH   1  32
ATOM     31  C   UNL     1       0.498   1.229  -0.409  0.00  0.00    +0.277 C 
ATOM     32  O   UNL     1       0.338  -0.183  -0.259  0.00  0.00    -0.493 OA
ENDBRANCH   1  32
TORSDOF 8
