REMARK  Name = ZINC08603862
REMARK  6 active torsions:
REMARK  status: ('A' for Active; 'I' for Inactive)
REMARK    1  A    between atoms: C_1  and  C_2
REMARK    2  A    between atoms: C_5  and  N_9
REMARK    3  A    between atoms: C_7  and  C_8
REMARK    4  A    between atoms: N_21  and  C_24
REMARK    5  A    between atoms: C_24  and  C_25
REMARK    6  A    between atoms: N_27  and  C_28
REMARK                            x       y       z     vdW  Elec       q    Type
REMARK                         _______ _______ _______ _____ _____    ______ ____
ROOT
ATOM      1  N   UNL     1       0.322  -4.194  -0.031  0.00  0.00    -0.228 N 
ATOM      2  C   UNL     1       0.190  -4.855   1.140  0.00  0.00    +0.275 A 
ATOM      3  O   UNL     1       0.285  -4.261   2.199  0.00  0.00    -0.266 OA
ATOM      4  C   UNL     1      -0.058  -6.238   1.118  0.00  0.00    +0.102 A 
ATOM      5  C   UNL     1      -0.171  -6.933  -0.073  0.00  0.00    +0.074 A 
ATOM      6  C   UNL     1      -0.430  -8.374   0.032  0.00  0.00    +0.014 A 
ATOM      7  C   UNL     1      -0.585  -9.302  -1.027  0.00  0.00    +0.011 A 
ATOM      8  C   UNL     1      -0.823 -10.615  -0.769  0.00  0.00    +0.001 A 
ATOM      9  C   UNL     1      -0.922 -11.092   0.532  0.00  0.00    +0.001 A 
ATOM     10  C   UNL     1      -0.777 -10.219   1.591  0.00  0.00    +0.016 A 
ATOM     11  C   UNL     1      -0.535  -8.883   1.341  0.00  0.00    +0.022 A 
ATOM     12  S   UNL     1      -0.292  -7.464   2.378  0.00  0.00    -0.081 S 
ATOM     13  N   UNL     1      -0.023  -6.178  -1.246  0.00  0.00    -0.283 N 
ATOM     14  C   UNL     1       0.209  -4.859  -1.193  0.00  0.00    +0.337 A 
ATOM     15  O   UNL     1       0.326  -4.243  -2.235  0.00  0.00    -0.246 OA
ENDROOT
BRANCH   1  20
ATOM     16  C   UNL     1       1.325   1.392  -0.041  0.00  0.00    +0.044 C 
ATOM     17  C   UNL     1       1.059  -0.091  -0.038  0.00  0.00    -0.047 A 
ATOM     18  C   UNL     1      -0.243  -0.558  -0.051  0.00  0.00    +0.005 A 
ATOM     19  C   UNL     1      -0.490  -1.917  -0.049  0.00  0.00    +0.027 A 
ATOM     20  C   UNL     1       0.569  -2.814  -0.034  0.00  0.00    +0.055 A 
ATOM     21  C   UNL     1       1.875  -2.342  -0.021  0.00  0.00    +0.030 A 
ATOM     22  C   UNL     1       2.116  -0.982  -0.029  0.00  0.00    -0.046 A 
ATOM     23  C   UNL     1       3.533  -0.469  -0.023  0.00  0.00    +0.044 C 
ENDBRANCH   1  20
BRANCH  13  24
ATOM     24  C   UNL     1      -0.129  -6.841  -2.549  0.00  0.00    +0.222 C 
BRANCH  24  25
ATOM     25  C   UNL     1      -1.581  -6.977  -2.927  0.00  0.00    +0.233 C 
ATOM     26  O   UNL     1      -2.443  -6.561  -2.182  0.00  0.00    -0.274 OA
ATOM     27  N   UNL     1      -1.922  -7.560  -4.093  0.00  0.00    -0.311 N 
ATOM     28  H   UNL     1      -1.232  -7.893  -4.689  0.00  0.00    +0.149 HD
BRANCH  27  29
ATOM     29  C   UNL     1      -3.334  -7.692  -4.461  0.00  0.00    +0.073 C 
ATOM     30  C   UNL     1      -3.909  -9.004  -3.887  0.00  0.00    +0.022 C 
ATOM     31  C   UNL     1      -4.878  -9.507  -4.986  0.00  0.00    +0.002 C 
ATOM     32  C   UNL     1      -4.129  -9.147  -6.293  0.00  0.00    +0.002 C 
ATOM     33  C   UNL     1      -3.474  -7.783  -5.990  0.00  0.00    +0.022 C 
ENDBRANCH  27  29
ENDBRANCH  24  25
ENDBRANCH  13  24
TORSDOF 4
