REMARK  Name = ZINC36122506
REMARK  14 active torsions:
REMARK  status: ('A' for Active; 'I' for Inactive)
REMARK    1  A    between atoms: C_1  and  C_2
REMARK    2  A    between atoms: C_2  and  C_3
REMARK    3  A    between atoms: C_3  and  C_5
REMARK    4  A    between atoms: C_3  and  C_6
REMARK    5  A    between atoms: C_6  and  N_7
REMARK    6  A    between atoms: N_7  and  C_8
REMARK    7  A    between atoms: C_8  and  C_9
REMARK    8  A    between atoms: C_19  and  C_21
REMARK    9  A    between atoms: C_21  and  O_22
REMARK   10  A    between atoms: O_22  and  C_23
REMARK   11  A    between atoms: C_28  and  O_29
REMARK   12  A    between atoms: O_29  and  C_30
REMARK   13  A    between atoms: N_33  and  C_34
REMARK   14  A    between atoms: C_37  and  C_40
REMARK                            x       y       z     vdW  Elec       q    Type
REMARK                         _______ _______ _______ _____ _____    ______ ____
ROOT
ATOM      1  C   UNL     1      -3.337  -4.361  -1.271  0.00  0.00    +0.234 C 
ATOM      2  O   UNL     1      -2.611  -5.042  -0.578  0.00  0.00    -0.274 OA
ATOM      3  N   UNL     1      -3.951  -4.905  -2.340  0.00  0.00    -0.289 N 
ATOM      4  C   UNL     1      -4.829  -4.088  -3.191  0.00  0.00    +0.114 C 
ATOM      5  C   UNL     1      -6.260  -4.636  -3.075  0.00  0.00    +0.061 C 
ATOM      6  C   UNL     1      -6.207  -6.128  -3.129  0.00  0.00    -0.004 A 
ATOM      7  C   UNL     1      -5.124  -6.933  -2.952  0.00  0.00    -0.014 A 
ATOM      8  C   UNL     1      -5.344  -8.307  -3.045  0.00  0.00    +0.013 A 
ATOM      9  C   UNL     1      -6.585  -8.777  -3.306  0.00  0.00    +0.046 A 
ATOM     10  S   UNL     1      -7.531  -7.268  -3.435  0.00  0.00    -0.101 S 
ATOM     11  C   UNL     1      -3.748  -6.321  -2.676  0.00  0.00    +0.144 C 
ENDROOT
BRANCH   1  12
ATOM     12  C   UNL     1      -3.553  -2.908  -0.936  0.00  0.00    +0.205 C 
BRANCH  12  13
ATOM     13  N   UNL     1      -2.782  -2.563   0.261  0.00  0.00    -0.276 N 
ATOM     14  C   UNL     1      -3.339  -2.694   1.482  0.00  0.00    +0.307 C 
ATOM     15  O   UNL     1      -4.480  -3.098   1.589  0.00  0.00    -0.252 OA
ATOM     16  N   UNL     1      -2.630  -2.376   2.583  0.00  0.00    -0.269 N 
ATOM     17  H   UNL     1      -1.698  -2.117   2.502  0.00  0.00    +0.156 HD
BRANCH  16  18
ATOM     18  C   UNL     1      -3.237  -2.420   3.843  0.00  0.00    +0.035 A 
ATOM     19  C   UNL     1      -2.889  -1.492   4.816  0.00  0.00    +0.023 A 
ATOM     20  C   UNL     1      -3.490  -1.538   6.058  0.00  0.00    +0.005 A 
ATOM     21  C   UNL     1      -4.438  -2.506   6.334  0.00  0.00    -0.050 A 
ATOM     22  C   UNL     1      -4.787  -3.432   5.367  0.00  0.00    +0.005 A 
ATOM     23  C   UNL     1      -4.193  -3.388   4.121  0.00  0.00    +0.023 A 
ATOM     24  C   UNL     1      -5.093  -2.553   7.691  0.00  0.00    +0.044 C 
ENDBRANCH  16  18
BRANCH  13  25
ATOM     25  C   UNL     1      -1.407  -2.075   0.131  0.00  0.00    +0.113 C 
BRANCH  25  26
ATOM     26  C   UNL     1      -1.416  -0.550   0.009  0.00  0.00    +0.003 C 
ATOM     27  C   UNL     1      -2.113  -0.147  -1.292  0.00  0.00    +0.009 C 
BRANCH  26  29
ATOM     28  C   UNL     1       0.013   1.499   0.003  0.00  0.00    +0.004 C 
ATOM     29  C   UNL     1       0.023  -0.031  -0.001  0.00  0.00    +0.001 C 
ENDBRANCH  26  29
ENDBRANCH  25  26
ENDBRANCH  13  25
ENDBRANCH  12  13
ENDBRANCH   1  12
BRANCH  11  30
ATOM     30  C   UNL     1      -2.865  -6.436  -3.921  0.00  0.00    +0.256 C 
BRANCH  30  31
ATOM     31  O   UNL     1      -3.551  -5.880  -5.044  0.00  0.00    -0.486 OA
BRANCH  31  32
ATOM     32  C   UNL     1      -2.901  -5.904  -6.238  0.00  0.00    +0.162 A 
ATOM     33  C   UNL     1      -1.633  -6.456  -6.328  0.00  0.00    +0.049 A 
ATOM     34  C   UNL     1      -0.974  -6.479  -7.542  0.00  0.00    +0.004 A 
ATOM     35  C   UNL     1      -1.576  -5.953  -8.670  0.00  0.00    +0.004 A 
ATOM     36  C   UNL     1      -2.840  -5.400  -8.588  0.00  0.00    +0.049 A 
ATOM     37  C   UNL     1      -3.510  -5.379  -7.374  0.00  0.00    +0.161 A 
BRANCH  37  38
ATOM     38  O   UNL     1      -4.756  -4.841  -7.293  0.00  0.00    -0.491 OA
ATOM     39  C   UNL     1      -5.318  -4.321  -8.499  0.00  0.00    +0.277 C 
ENDBRANCH  37  38
ENDBRANCH  31  32
ENDBRANCH  30  31
ENDBRANCH  11  30
TORSDOF 10
