REMARK  Name = ZINC39665358
REMARK  9 active torsions:
REMARK  status: ('A' for Active; 'I' for Inactive)
REMARK    1  A    between atoms: C_1  and  C_2
REMARK    2  A    between atoms: C_2  and  C_4
REMARK    3  A    between atoms: C_2  and  O_34
REMARK    4  A    between atoms: C_4  and  N_5
REMARK    5  A    between atoms: C_6  and  C_8
REMARK    6  A    between atoms: C_19  and  C_21
REMARK    7  A    between atoms: C_24  and  O_27
REMARK    8  A    between atoms: O_27  and  C_28
REMARK    9  A    between atoms: O_34  and  C_35
REMARK                            x       y       z     vdW  Elec       q    Type
REMARK                         _______ _______ _______ _____ _____    ______ ____
ROOT
ATOM      1  C   UNL     1       0.880  -3.787  -2.334  0.00  0.00    +0.100 C 
ATOM      2  C   UNL     1       1.498  -4.414  -1.064  0.00  0.00    +0.121 C 
ATOM      3  N   UNL     1       2.158  -5.652  -1.541  0.00  0.00    -0.296 N 
ATOM      4  C   UNL     1       2.761  -5.271  -2.841  0.00  0.00    +0.115 C 
ATOM      5  C   UNL     1       1.712  -4.351  -3.498  0.00  0.00    -0.004 C 
ATOM      6  C   UNL     1       0.823  -5.155  -4.442  0.00  0.00    -0.010 C 
ATOM      7  C   UNL     1       1.662  -5.658  -5.621  0.00  0.00    -0.082 C 
ATOM      8  N   UNL     1       2.253  -4.514  -6.327  0.00  0.00    +0.379 N 
ATOM      9  C   UNL     1       3.178  -3.800  -5.438  0.00  0.00    -0.082 C 
ATOM     10  C   UNL     1       2.403  -3.219  -4.252  0.00  0.00    -0.010 C 
ATOM     11  C   UNL     1       2.201  -6.853  -0.931  0.00  0.00    +0.248 C 
ATOM     12  O   UNL     1       1.562  -7.042   0.086  0.00  0.00    -0.270 OA
ATOM     13  H   UNL     1       2.754  -4.844  -7.138  0.00  0.00    -0.086 HD
ATOM     14  H   UNL     1       1.519  -3.887  -6.620  0.00  0.00    -0.086 HD
ENDROOT
BRANCH  11  15
ATOM     15  C   UNL     1       3.024  -7.940  -1.498  0.00  0.00    +0.055 A 
ATOM     16  C   UNL     1       4.127  -7.646  -2.314  0.00  0.00    +0.020 A 
ATOM     17  C   UNL     1       4.865  -8.696  -2.820  0.00  0.00    +0.068 A 
ATOM     18  C   UNL     1       4.496 -10.001  -2.507  0.00  0.00    +0.220 A 
ATOM     19  N   UNL     1       3.449 -10.245  -1.733  0.00  0.00    -0.220 NA
ATOM     20  C   UNL     1       2.721  -9.274  -1.224  0.00  0.00    +0.127 A 
BRANCH  18  21
ATOM     21  O   UNL     1       5.218 -11.036  -3.001  0.00  0.00    -0.438 OA
BRANCH  21  22
ATOM     22  C   UNL     1       4.770 -12.296  -2.763  0.00  0.00    +0.130 A 
ATOM     23  C   UNL     1       3.683 -12.793  -3.468  0.00  0.00    +0.046 A 
ATOM     24  C   UNL     1       3.231 -14.075  -3.224  0.00  0.00    +0.004 A 
ATOM     25  C   UNL     1       3.860 -14.863  -2.277  0.00  0.00    +0.000 A 
ATOM     26  C   UNL     1       4.943 -14.370  -1.573  0.00  0.00    +0.004 A 
ATOM     27  C   UNL     1       5.403 -13.091  -1.818  0.00  0.00    +0.046 A 
ENDBRANCH  21  22
ENDBRANCH  18  21
ENDBRANCH  11  15
BRANCH   1  29
ATOM     28  N   UNL     1       0.065  -1.518  -2.890  0.00  0.00    -0.312 N 
ATOM     29  C   UNL     1       0.995  -2.285  -2.287  0.00  0.00    +0.218 C 
ATOM     30  O   UNL     1       1.925  -1.766  -1.706  0.00  0.00    -0.275 OA
ATOM     31  H   UNL     1      -0.679  -1.933  -3.354  0.00  0.00    +0.149 HD
BRANCH  28  32
ATOM     32  C   UNL     1       0.177  -0.059  -2.843  0.00  0.00    +0.148 C 
BRANCH  32  34
ATOM     33  C   UNL     1      -0.815   2.085  -3.658  0.00  0.00    +0.053 C 
ATOM     34  C   UNL     1      -0.998   0.567  -3.599  0.00  0.00    +0.187 C 
BRANCH  34  35
ATOM     35  O   UNL     1      -2.217   0.260  -2.921  0.00  0.00    -0.488 OA
BRANCH  35  36
ATOM     36  C   UNL     1      -3.355   0.268  -3.664  0.00  0.00    +0.121 A 
ATOM     37  C   UNL     1      -3.287   0.461  -5.036  0.00  0.00    +0.045 A 
ATOM     38  C   UNL     1      -4.445   0.468  -5.790  0.00  0.00    +0.004 A 
ATOM     39  C   UNL     1      -5.671   0.283  -5.177  0.00  0.00    +0.000 A 
ATOM     40  C   UNL     1      -5.741   0.091  -3.810  0.00  0.00    +0.004 A 
ATOM     41  C   UNL     1      -4.586   0.077  -3.053  0.00  0.00    +0.045 A 
ENDBRANCH  35  36
ENDBRANCH  34  35
ENDBRANCH  32  34
ENDBRANCH  28  32
ENDBRANCH   1  29
TORSDOF 8
