REMARK  Name = ZINC08178156
REMARK  6 active torsions:
REMARK  status: ('A' for Active; 'I' for Inactive)
REMARK    1  A    between atoms: C_1  and  C_2
REMARK    2  A    between atoms: C_7  and  N_12
REMARK    3  A    between atoms: C_9  and  C_11
REMARK    4  A    between atoms: N_12  and  C_13
REMARK    5  A    between atoms: C_16  and  C_22
REMARK    6  A    between atoms: C_18  and  N_19
REMARK                            x       y       z     vdW  Elec       q    Type
REMARK                         _______ _______ _______ _____ _____    ______ ____
ROOT
ATOM      1  C   UNL     1       3.493   1.012  -1.212  0.00  0.00    +0.058 A 
ATOM      2  C   UNL     1       4.235   1.445  -0.117  0.00  0.00    +0.026 A 
ATOM      3  C   UNL     1       5.608   1.350  -0.133  0.00  0.00    +0.015 A 
ATOM      4  C   UNL     1       6.257   0.819  -1.252  0.00  0.00    +0.039 A 
ATOM      5  C   UNL     1       5.509   0.385  -2.350  0.00  0.00    +0.047 A 
ATOM      6  C   UNL     1       4.136   0.477  -2.325  0.00  0.00    +0.148 A 
ENDROOT
BRANCH   4   7
ATOM      7  C   UNL     1       7.729   0.716  -1.273  0.00  0.00    +0.242 C 
ATOM      8  O   UNL     1       8.292   0.254  -2.246  0.00  0.00    -0.270 OA
ATOM      9  N   UNL     1       8.448   1.135  -0.213  0.00  0.00    -0.325 N 
ATOM     10  H   UNL     1       7.999   1.504   0.563  0.00  0.00    +0.145 HD
ATOM     11  H   UNL     1       9.416   1.068  -0.227  0.00  0.00    +0.145 HD
ENDBRANCH   4   7
BRANCH   6  12
ATOM     12  N   UNL     1       3.343   0.013  -3.485  0.00  0.00    +0.058 N 
ATOM     13  O   UNL     1       3.894  -0.553  -4.413  0.00  0.00    -0.126 OA
ATOM     14  O   UNL     1       2.139   0.196  -3.513  0.00  0.00    -0.126 OA
ENDBRANCH   6  12
BRANCH   1  15
ATOM     15  N   UNL     1       2.106   1.109  -1.193  0.00  0.00    -0.339 N 
ATOM     16  H   UNL     1       1.593   0.888  -1.986  0.00  0.00    +0.146 HD
BRANCH  15  22
ATOM     17  C   UNL     1      -2.155   0.908   1.306  0.00  0.00    +0.008 C 
ATOM     18  C   UNL     1      -0.727   1.455   1.302  0.00  0.00    -0.009 C 
ATOM     19  C   UNL     1      -0.765   2.984   1.345  0.00  0.00    +0.003 C 
ATOM     20  C   UNL     1       0.663   3.530   1.341  0.00  0.00    +0.002 C 
ATOM     21  C   UNL     1       1.380   3.075   0.069  0.00  0.00    +0.022 C 
ATOM     22  C   UNL     1       1.419   1.546   0.025  0.00  0.00    +0.074 C 
ATOM     23  C   UNL     1      -0.009   0.999   0.029  0.00  0.00    +0.009 C 
ATOM     24  C   UNL     1      -0.760   1.525  -1.196  0.00  0.00    +0.009 C 
ENDBRANCH  15  22
ENDBRANCH   1  15
TORSDOF 4
