REMARK  Name = ZINC43212134
REMARK  6 active torsions:
REMARK  status: ('A' for Active; 'I' for Inactive)
REMARK    1  A    between atoms: C_1  and  C_2
REMARK    2  A    between atoms: C_2  and  C_3
REMARK    3  A    between atoms: C_2  and  C_4
REMARK    4  A    between atoms: C_4  and  C_33
REMARK    5  A    between atoms: C_9  and  C_12
REMARK    6  A    between atoms: N_24  and  C_27
REMARK                            x       y       z     vdW  Elec       q    Type
REMARK                         _______ _______ _______ _____ _____    ______ ____
ROOT
ATOM      1  C   UNL     1      -1.418  -0.538  -0.195  0.00  0.00    +0.050 C 
ATOM      2  C   UNL     1      -1.450  -2.068   0.001  0.00  0.00    +0.086 C 
ATOM      3  C   UNL     1      -1.857  -2.270   1.485  0.00  0.00    +0.077 C 
ATOM      4  C   UNL     1      -2.018  -0.843   2.050  0.00  0.00    -0.027 C 
ATOM      5  N   UNL     1      -2.322  -0.004   0.855  0.00  0.00    +0.396 N 
ATOM      6  C   UNL     1      -3.211  -2.938   1.388  0.00  0.00    +0.225 C 
ATOM      7  O   UNL     1      -3.894  -3.276   2.330  0.00  0.00    -0.275 OA
ATOM      8  N   UNL     1      -3.536  -3.096   0.100  0.00  0.00    -0.239 N 
ATOM      9  C   UNL     1      -2.610  -2.646  -0.778  0.00  0.00    +0.225 C 
ATOM     10  O   UNL     1      -2.689  -2.691  -1.987  0.00  0.00    -0.275 OA
ATOM     11  H   UNL     1      -2.109   0.964   1.046  0.00  0.00    -0.083 HD
ATOM     12  H   UNL     1      -3.287  -0.106   0.576  0.00  0.00    -0.083 HD
ENDROOT
BRANCH   4  13
ATOM     13  C   UNL     1      -3.169  -0.789   3.021  0.00  0.00    -0.060 A 
ATOM     14  C   UNL     1      -4.473  -0.705   2.535  0.00  0.00    +0.002 A 
ATOM     15  C   UNL     1      -5.535  -0.654   3.385  0.00  0.00    +0.009 A 
ATOM     16  C   UNL     1      -5.317  -0.688   4.773  0.00  0.00    -0.018 A 
ATOM     17  C   UNL     1      -6.388  -0.637   5.681  0.00  0.00    +0.008 A 
ATOM     18  C   UNL     1      -6.140  -0.673   7.019  0.00  0.00    +0.001 A 
ATOM     19  C   UNL     1      -4.836  -0.758   7.504  0.00  0.00    +0.001 A 
ATOM     20  C   UNL     1      -3.774  -0.808   6.654  0.00  0.00    +0.008 A 
ATOM     21  C   UNL     1      -3.991  -0.774   5.266  0.00  0.00    -0.018 A 
ATOM     22  C   UNL     1      -2.920  -0.830   4.358  0.00  0.00    +0.010 A 
ENDBRANCH   4  13
BRANCH   8  23
ATOM     23  C   UNL     1      -4.792  -3.716  -0.329  0.00  0.00    +0.084 C 
ATOM     24  C   UNL     1      -4.866  -5.146   0.210  0.00  0.00    +0.023 C 
ATOM     25  C   UNL     1      -6.178  -5.793  -0.239  0.00  0.00    +0.002 C 
ATOM     26  C   UNL     1      -7.357  -4.983   0.302  0.00  0.00    +0.000 C 
ATOM     27  C   UNL     1      -7.283  -3.553  -0.236  0.00  0.00    +0.002 C 
ATOM     28  C   UNL     1      -5.971  -2.906   0.212  0.00  0.00    +0.023 C 
ENDBRANCH   8  23
BRANCH   1  30
ATOM     29  C   UNL     1       0.940  -0.664  -1.010  0.00  0.00    +0.006 C 
ATOM     30  C   UNL     1       0.002  -0.004   0.002  0.00  0.00    -0.017 C 
ATOM     31  C   UNL     1       0.011   1.512  -0.207  0.00  0.00    +0.006 C 
ENDBRANCH   1  30
BRANCH   1  32
ATOM     32  C   UNL     1      -1.930  -0.171  -1.565  0.00  0.00    +0.346 C 
ATOM     33  O   UNL     1      -1.349  -0.569  -2.560  0.00  0.00    -0.248 OA
ATOM     34  O   UNL     1      -2.926   0.523  -1.677  0.00  0.00    -0.248 OA
ENDBRANCH   1  32
TORSDOF 4
