REMARK  Name = ZINC06192979
REMARK  20 active torsions:
REMARK  status: ('A' for Active; 'I' for Inactive)
REMARK    1  A    between atoms: C_1  and  C_2
REMARK    2  A    between atoms: C_2  and  N_70
REMARK    3  A    between atoms: C_3  and  C_4
REMARK    4  A    between atoms: C_3  and  N_70
REMARK    5  A    between atoms: C_5  and  C_6
REMARK    6  A    between atoms: C_5  and  N_70
REMARK    7  A    between atoms: C_6  and  C_7
REMARK    8  A    between atoms: C_7  and  N_8
REMARK    9  A    between atoms: N_8  and  C_9
REMARK   10  A    between atoms: N_8  and  C_24
REMARK   11  A    between atoms: C_9  and  C_10
REMARK   12  A    between atoms: C_14  and  O_22
REMARK   13  A    between atoms: O_22  and  C_23
REMARK   14  A    between atoms: C_24  and  N_26
REMARK   15  A    between atoms: N_26  and  C_27
REMARK   16  A    between atoms: C_27  and  C_28
REMARK   17  A    between atoms: C_28  and  C_29
REMARK   18  A    between atoms: C_29  and  O_30
REMARK   19  A    between atoms: O_30  and  C_31
REMARK   20  A    between atoms: C_31  and  C_32
REMARK                            x       y       z     vdW  Elec       q    Type
REMARK                         _______ _______ _______ _____ _____    ______ ____
ROOT
ATOM      1  N   UNL     1      -1.360  -0.067  -0.302  0.00  0.00    -0.308 N 
ENDROOT
BRANCH   1   2
ATOM      2  C   UNL     1      -0.349  -0.900   0.012  0.00  0.00    +0.133 C 
ATOM      3  S   UNL     1      -0.599  -2.593   0.002  0.00  0.00    -0.019 S 
BRANCH   2   4
ATOM      4  N   UNL     1       0.860  -0.400   0.336  0.00  0.00    -0.326 N 
ATOM      5  H   UNL     1       1.002   0.560   0.342  0.00  0.00    +0.148 HD
BRANCH   4   6
ATOM      6  C   UNL     1       1.960  -1.305   0.678  0.00  0.00    +0.105 C 
BRANCH   6   7
ATOM      7  C   UNL     1       3.212  -0.487   1.002  0.00  0.00    +0.047 C 
BRANCH   7   8
ATOM      8  C   UNL     1       4.361  -1.433   1.359  0.00  0.00    +0.161 C 
BRANCH   8   9
ATOM      9  O   UNL     1       5.530  -0.669   1.661  0.00  0.00    -0.380 OA
BRANCH   9  10
ATOM     10  C   UNL     1       6.667  -1.461   2.010  0.00  0.00    +0.156 C 
ATOM     11  C   UNL     1       7.854  -0.544   2.312  0.00  0.00    +0.034 C 
ENDBRANCH   9  10
ENDBRANCH   8   9
ENDBRANCH   7   8
ENDBRANCH   6   7
ENDBRANCH   4   6
ENDBRANCH   2   4
ENDBRANCH   1   2
BRANCH   1  12
ATOM     12  C   UNL     1      -2.675  -0.611  -0.653  0.00  0.00    +0.147 C 
BRANCH  12  13
ATOM     13  C   UNL     1      -2.740  -0.845  -2.141  0.00  0.00    +0.035 A 
ATOM     14  C   UNL     1      -2.457  -2.072  -2.644  0.00  0.00    +0.020 A 
ATOM     15  C   UNL     1      -2.529  -2.268  -4.093  0.00  0.00    +0.002 A 
ATOM     16  C   UNL     1      -2.248  -3.511  -4.669  0.00  0.00    +0.055 A 
ATOM     17  C   UNL     1      -2.326  -3.661  -6.038  0.00  0.00    +0.121 A 
ATOM     18  C   UNL     1      -2.683  -2.583  -6.845  0.00  0.00    +0.047 A 
ATOM     19  C   UNL     1      -2.962  -1.354  -6.290  0.00  0.00    +0.030 A 
ATOM     20  C   UNL     1      -2.889  -1.181  -4.912  0.00  0.00    +0.049 A 
ATOM     21  N   UNL     1      -3.165   0.043  -4.336  0.00  0.00    -0.322 N 
ATOM     22  H   UNL     1      -3.417   0.816  -4.919  0.00  0.00    +0.169 HD
ATOM     23  C   UNL     1      -3.102   0.211  -3.004  0.00  0.00    +0.254 A 
ATOM     24  O   UNL     1      -3.358   1.304  -2.530  0.00  0.00    -0.268 OA
BRANCH  17  25
ATOM     25  O   UNL     1      -2.054  -4.868  -6.604  0.00  0.00    -0.495 OA
ATOM     26  C   UNL     1      -2.154  -4.955  -8.026  0.00  0.00    +0.277 C 
ENDBRANCH  17  25
ENDBRANCH  12  13
ENDBRANCH   1  12
BRANCH   1  27
ATOM     27  C   UNL     1      -1.146   1.382  -0.293  0.00  0.00    +0.105 C 
BRANCH  27  28
ATOM     28  C   UNL     1      -1.462   1.936   1.098  0.00  0.00    +0.000 C 
BRANCH  28  29
ATOM     29  C   UNL     1      -1.238   3.449   1.108  0.00  0.00    -0.077 C 
BRANCH  29  30
ATOM     30  N   UNL     1      -1.568   3.971   2.450  0.00  0.00    +0.379 N 
ATOM     31  H   UNL     1      -2.503   3.641   2.716  0.00  0.00    -0.082 HD
BRANCH  30  33
ATOM     32  C   UNL     1       0.827   3.932   3.063  0.00  0.00    -0.017 C 
ATOM     33  C   UNL     1      -0.586   3.480   3.439  0.00  0.00    -0.082 C 
ENDBRANCH  30  33
BRANCH  30  34
ATOM     34  C   UNL     1      -1.569   5.449   2.432  0.00  0.00    -0.082 C 
ATOM     35  C   UNL     1      -2.258   5.957   3.700  0.00  0.00    -0.017 C 
ENDBRANCH  30  34
ENDBRANCH  29  30
ENDBRANCH  28  29
ENDBRANCH  27  28
ENDBRANCH   1  27
TORSDOF 16
