REMARK  Name = ZINC14157986
REMARK  14 active torsions:
REMARK  status: ('A' for Active; 'I' for Inactive)
REMARK    1  A    between atoms: C_1  and  C_2
REMARK    2  A    between atoms: C_4  and  C_35
REMARK    3  A    between atoms: N_10  and  C_11
REMARK    4  A    between atoms: C_11  and  N_13
REMARK    5  A    between atoms: N_13  and  C_14
REMARK    6  A    between atoms: C_16  and  O_22
REMARK    7  A    between atoms: C_19  and  O_20
REMARK    8  A    between atoms: O_20  and  C_21
REMARK    9  A    between atoms: O_22  and  C_23
REMARK   10  A    between atoms: N_24  and  C_25
REMARK   11  A    between atoms: C_27  and  C_33
REMARK   12  A    between atoms: C_27  and  C_34
REMARK   13  A    between atoms: C_29  and  C_31
REMARK   14  A    between atoms: C_29  and  C_32
REMARK                            x       y       z     vdW  Elec       q    Type
REMARK                         _______ _______ _______ _____ _____    ______ ____
ROOT
ATOM      1  C   UNL     1       3.893  -2.368   1.443  0.00  0.00    +0.066 C 
ATOM      2  C   UNL     1       2.529  -2.908   1.100  0.00  0.00    +0.044 A 
ATOM      3  C   UNL     1       2.368  -3.781   0.035  0.00  0.00    +0.046 A 
ATOM      4  C   UNL     1       1.096  -4.254  -0.246  0.00  0.00    +0.044 A 
ATOM      5  N   UNL     1       0.081  -3.861   0.504  0.00  0.00    -0.217 NA
ATOM      6  C   UNL     1       0.269  -3.025   1.514  0.00  0.00    +0.231 A 
ATOM      7  N   UNL     1       1.472  -2.559   1.814  0.00  0.00    -0.217 NA
ATOM      8  N   UNL     1      -0.820  -2.633   2.281  0.00  0.00    -0.297 N 
ATOM      9  C   UNL     1      -0.625  -1.917   3.432  0.00  0.00    +0.196 C 
ATOM     10  N   UNL     1      -0.907  -2.459   4.603  0.00  0.00    -0.159 NA
ATOM     11  N   UNL     1      -0.137  -0.643   3.369  0.00  0.00    -0.355 N 
ATOM     12  C   UNL     1       0.873  -5.205  -1.394  0.00  0.00    +0.066 C 
ATOM     13  H   UNL     1      -1.719  -2.866   2.002  0.00  0.00    +0.171 HD
ATOM     14  H   UNL     1       0.419  -0.301   4.086  0.00  0.00    +0.163 HD
ENDROOT
BRANCH  11  15
ATOM     15  C   UNL     1      -0.455   0.208   2.215  0.00  0.00    +0.079 C 
ATOM     16  C   UNL     1       0.759   0.269   1.287  0.00  0.00    +0.011 C 
ATOM     17  C   UNL     1       0.448   1.163   0.086  0.00  0.00    -0.071 C 
ATOM     18  N   UNL     1      -0.013   2.483   0.490  0.00  0.00    +0.386 N 
ATOM     19  C   UNL     1      -1.031   2.555   1.526  0.00  0.00    -0.071 C 
ATOM     20  C   UNL     1      -0.758   1.624   2.703  0.00  0.00    +0.011 C 
ATOM     21  C   UNL     1      -1.031   4.002   2.076  0.00  0.00    -0.010 C 
ATOM     22  C   UNL     1      -2.430   2.291   0.964  0.00  0.00    -0.010 C 
ATOM     23  C   UNL     1      -0.542   0.468  -0.848  0.00  0.00    -0.010 C 
ATOM     24  C   UNL     1       1.766   1.349  -0.700  0.00  0.00    -0.010 C 
ATOM     25  H   UNL     1       0.798   3.026   0.797  0.00  0.00    -0.084 HD
ATOM     26  H   UNL     1      -0.362   2.969  -0.340  0.00  0.00    -0.084 HD
ENDBRANCH  11  15
BRANCH  10  27
ATOM     27  C   UNL     1      -1.194  -3.767   4.686  0.00  0.00    +0.162 C 
ATOM     28  S   UNL     1      -0.998  -4.774   3.315  0.00  0.00    -0.016 S 
BRANCH  27  29
ATOM     29  N   UNL     1      -1.636  -4.288   5.847  0.00  0.00    -0.292 N 
ATOM     30  H   UNL     1      -1.800  -3.708   6.608  0.00  0.00    +0.154 HD
BRANCH  29  31
ATOM     31  C   UNL     1      -1.859  -5.666   5.956  0.00  0.00    +0.078 A 
ATOM     32  C   UNL     1      -3.155  -6.160   5.989  0.00  0.00    +0.072 A 
ATOM     33  C   UNL     1      -3.373  -7.524   6.098  0.00  0.00    +0.122 A 
ATOM     34  C   UNL     1      -2.296  -8.396   6.173  0.00  0.00    +0.049 A 
ATOM     35  C   UNL     1      -1.004  -7.907   6.140  0.00  0.00    +0.051 A 
ATOM     36  C   UNL     1      -0.780  -6.545   6.025  0.00  0.00    +0.141 A 
BRANCH  36  37
ATOM     37  O   UNL     1       0.492  -6.064   5.987  0.00  0.00    -0.493 OA
ATOM     38  C   UNL     1       1.550  -7.022   6.062  0.00  0.00    +0.277 C 
ENDBRANCH  36  37
BRANCH  33  39
ATOM     39  O   UNL     1      -4.643  -8.009   6.130  0.00  0.00    -0.495 OA
ATOM     40  C   UNL     1      -4.794  -9.426   6.243  0.00  0.00    +0.277 C 
ENDBRANCH  33  39
ENDBRANCH  29  31
ENDBRANCH  27  29
ENDBRANCH  10  27
TORSDOF 6
