REMARK  Name = ZINC02099682
REMARK  5 active torsions:
REMARK  status: ('A' for Active; 'I' for Inactive)
REMARK    1  A    between atoms: C_1  and  C_2
REMARK    2  A    between atoms: C_8  and  C_32
REMARK    3  A    between atoms: C_8  and  C_33
REMARK    4  A    between atoms: C_9  and  C_16
REMARK    5  A    between atoms: C_17  and  C_18
REMARK                            x       y       z     vdW  Elec       q    Type
REMARK                         _______ _______ _______ _____ _____    ______ ____
ROOT
ATOM      1  C   UNL     1       4.269   4.257   0.637  0.00  0.00    +0.044 C 
ATOM      2  C   UNL     1       3.501   3.016   0.260  0.00  0.00    -0.050 A 
ATOM      3  C   UNL     1       4.190   1.901  -0.173  0.00  0.00    +0.005 A 
ATOM      4  C   UNL     1       3.539   0.735  -0.542  0.00  0.00    +0.024 A 
ATOM      5  C   UNL     1       2.146   0.724  -0.463  0.00  0.00    +0.035 A 
ATOM      6  C   UNL     1       1.456   1.862  -0.002  0.00  0.00    -0.016 A 
ATOM      7  C   UNL     1       2.114   3.019   0.355  0.00  0.00    +0.009 A 
ATOM      8  C   UNL     1      -0.019   1.539   0.011  0.00  0.00    +0.034 C 
ATOM      9  C   UNL     1       0.002  -0.004   0.002  0.00  0.00    +0.130 C 
ATOM     10  N   UNL     1       1.248  -0.262  -0.778  0.00  0.00    -0.304 N 
ATOM     11  C   UNL     1       1.620  -1.654  -0.674  0.00  0.00    +0.117 C 
ATOM     12  C   UNL     1       0.428  -2.559  -0.984  0.00  0.00    +0.115 C 
ATOM     13  C   UNL     1      -0.814  -1.797  -1.340  0.00  0.00    +0.216 C 
ATOM     14  O   UNL     1      -1.604  -2.288  -2.119  0.00  0.00    -0.276 OA
ATOM     15  N   UNL     1      -1.080  -0.573  -0.813  0.00  0.00    -0.290 N 
ATOM     16  C   UNL     1      -0.710   2.085  -1.240  0.00  0.00    +0.020 C 
ATOM     17  C   UNL     1      -0.686   2.071   1.280  0.00  0.00    +0.020 C 
ATOM     18  H   UNL     1      -1.919  -0.110  -0.964  0.00  0.00    +0.151 HD
ENDROOT
BRANCH   9  19
ATOM     19  C   UNL     1       0.046  -0.590   1.390  0.00  0.00    +0.020 C 
ATOM     20  C   UNL     1      -0.927  -1.390   1.803  0.00  0.00    +0.007 C 
BRANCH  20  21
ATOM     21  C   UNL     1      -0.883  -1.964   3.164  0.00  0.00    -0.025 A 
ATOM     22  C   UNL     1       0.185  -1.664   4.017  0.00  0.00    +0.010 A 
ATOM     23  C   UNL     1       0.233  -2.193   5.285  0.00  0.00    +0.027 A 
ATOM     24  C   UNL     1      -0.783  -3.035   5.734  0.00  0.00    +0.048 A 
ATOM     25  C   UNL     1      -1.856  -3.339   4.881  0.00  0.00    +0.008 A 
ATOM     26  C   UNL     1      -1.907  -2.799   3.601  0.00  0.00    +0.018 A 
ATOM     27  C   UNL     1      -2.748  -4.238   5.637  0.00  0.00    +0.007 A 
ATOM     28  C   UNL     1      -3.953  -4.868   5.334  0.00  0.00    +0.010 A 
ATOM     29  C   UNL     1      -4.561  -5.670   6.276  0.00  0.00    +0.001 A 
ATOM     30  C   UNL     1      -3.978  -5.851   7.521  0.00  0.00    +0.002 A 
ATOM     31  C   UNL     1      -2.787  -5.232   7.833  0.00  0.00    +0.026 A 
ATOM     32  C   UNL     1      -2.157  -4.419   6.896  0.00  0.00    +0.047 A 
ATOM     33  N   UNL     1      -0.981  -3.691   6.935  0.00  0.00    -0.354 N 
ATOM     34  H   UNL     1      -0.382  -3.647   7.696  0.00  0.00    +0.166 HD
ENDBRANCH  20  21
ENDBRANCH   9  19
TORSDOF 2
