REMARK  Name = ZINC38965042
REMARK  6 active torsions:
REMARK  status: ('A' for Active; 'I' for Inactive)
REMARK    1  A    between atoms: C_1  and  C_2
REMARK    2  A    between atoms: C_2  and  C_3
REMARK    3  A    between atoms: C_7  and  N_9
REMARK    4  A    between atoms: N_9  and  C_10
REMARK    5  A    between atoms: N_13  and  S_14
REMARK    6  A    between atoms: S_14  and  C_17
REMARK                            x       y       z     vdW  Elec       q    Type
REMARK                         _______ _______ _______ _____ _____    ______ ____
ROOT
ATOM      1  C   UNL     1       4.766  -1.952  -3.510  0.00  0.00    +0.237 C 
ATOM      2  C   UNL     1       6.036  -1.167  -3.751  0.00  0.00    +0.192 C 
ATOM      3  N   UNL     1       5.990   0.117  -3.951  0.00  0.00    -0.110 NA
ATOM      4  N   UNL     1       7.211  -1.816  -3.756  0.00  0.00    -0.226 NA
ATOM      5  C   UNL     1       7.283  -3.116  -3.555  0.00  0.00    +0.089 A 
ATOM      6  C   UNL     1       8.542  -3.768  -3.567  0.00  0.00    +0.030 A 
ATOM      7  C   UNL     1       8.622  -5.101  -3.363  0.00  0.00    +0.002 A 
ATOM      8  C   UNL     1       7.492  -5.904  -3.132  0.00  0.00    +0.002 A 
ATOM      9  C   UNL     1       6.245  -5.384  -3.102  0.00  0.00    +0.027 A 
ATOM     10  C   UNL     1       6.073  -3.939  -3.314  0.00  0.00    +0.063 A 
ATOM     11  N   UNL     1       4.886  -3.401  -3.290  0.00  0.00    -0.359 N 
ATOM     12  H   UNL     1       4.099  -3.946  -3.131  0.00  0.00    +0.162 HD
ENDROOT
BRANCH   3  13
ATOM     13  S   UNL     1       7.389   0.964  -4.213  0.00  0.00    +0.100 S 
ATOM     14  O   UNL     1       8.135   0.900  -3.006  0.00  0.00    -0.146 OA
ATOM     15  O   UNL     1       7.910   0.512  -5.455  0.00  0.00    -0.146 OA
BRANCH  13  16
ATOM     16  C   UNL     1       6.940   2.652  -4.440  0.00  0.00    +0.113 A 
ATOM     17  C   UNL     1       6.651   3.126  -5.706  0.00  0.00    +0.032 A 
ATOM     18  C   UNL     1       6.299   4.451  -5.885  0.00  0.00    +0.040 A 
ATOM     19  C   UNL     1       6.236   5.303  -4.796  0.00  0.00    +0.124 A 
ATOM     20  C   UNL     1       6.526   4.827  -3.528  0.00  0.00    +0.040 A 
ATOM     21  C   UNL     1       6.872   3.501  -3.351  0.00  0.00    +0.032 A 
ATOM     22  F   UNL     1       5.892   6.598  -4.970  0.00  0.00    -0.205 F 
ENDBRANCH  13  16
ENDBRANCH   3  13
BRANCH   1  23
ATOM     23  N   UNL     1       4.099  -1.375  -2.340  0.00  0.00    -0.318 N 
ATOM     24  H   UNL     1       4.594  -1.245  -1.516  0.00  0.00    +0.148 HD
BRANCH  23  29
ATOM     25  C   UNL     1       0.665  -0.997  -3.592  0.00  0.00    -0.046 A 
ATOM     26  C   UNL     1       0.083  -0.298  -2.550  0.00  0.00    +0.004 A 
ATOM     27  C   UNL     1       0.832   0.044  -1.439  0.00  0.00    +0.002 A 
ATOM     28  C   UNL     1       2.164  -0.312  -1.366  0.00  0.00    +0.023 A 
ATOM     29  C   UNL     1       2.752  -1.014  -2.410  0.00  0.00    +0.029 A 
ATOM     30  C   UNL     1       1.996  -1.361  -3.523  0.00  0.00    +0.026 A 
BRANCH  25  32
ATOM     31  C   UNL     1      -0.804  -2.734  -4.577  0.00  0.00    +0.009 C 
ATOM     32  C   UNL     1      -0.154  -1.367  -4.801  0.00  0.00    +0.032 C 
ENDBRANCH  25  32
ENDBRANCH  23  29
ENDBRANCH   1  23
TORSDOF 5
