REMARK  Name = ZINC65297877
REMARK  5 active torsions:
REMARK  status: ('A' for Active; 'I' for Inactive)
REMARK    1  A    between atoms: C_4  and  C_7
REMARK    2  A    between atoms: C_7  and  N_8
REMARK    3  A    between atoms: C_15  and  C_27
REMARK    4  A    between atoms: C_18  and  C_20
REMARK    5  A    between atoms: C_32  and  O_33
REMARK                            x       y       z     vdW  Elec       q    Type
REMARK                         _______ _______ _______ _____ _____    ______ ____
ROOT
ATOM      1  N   UNL     1       4.153  -0.953   1.342  0.00  0.00    +0.383 N 
ATOM      2  C   UNL     1       3.203  -1.854   2.005  0.00  0.00    -0.075 C 
ATOM      3  C   UNL     1       3.615  -2.051   3.465  0.00  0.00    +0.027 C 
ATOM      4  C   UNL     1       5.018  -2.665   3.514  0.00  0.00    +0.109 C 
ATOM      5  C   UNL     1       5.987  -1.748   2.759  0.00  0.00    +0.027 C 
ATOM      6  C   UNL     1       5.488  -1.562   1.325  0.00  0.00    -0.075 C 
ATOM      7  N   UNL     1       5.449  -2.775   4.915  0.00  0.00    -0.286 NA
ATOM      8  C   UNL     1       4.648  -3.795   5.613  0.00  0.00    +0.095 C 
ATOM      9  C   UNL     1       5.002  -5.165   5.025  0.00  0.00    +0.079 C 
ATOM     10  C   UNL     1       4.986  -5.085   3.524  0.00  0.00    +0.047 C 
ATOM     11  N   UNL     1       4.998  -3.979   2.882  0.00  0.00    -0.266 NA
ATOM     12  H   UNL     1       6.434  -2.985   4.975  0.00  0.00    +0.125 HD
ATOM     13  H   UNL     1       4.190  -0.078   1.843  0.00  0.00    -0.081 HD
ENDROOT
BRANCH  10  14
ATOM     14  C   UNL     1       4.954  -6.344   2.754  0.00  0.00    -0.004 A 
ATOM     15  C   UNL     1       4.935  -7.572   3.419  0.00  0.00    +0.011 A 
ATOM     16  C   UNL     1       4.906  -8.745   2.694  0.00  0.00    +0.016 A 
ATOM     17  C   UNL     1       4.896  -8.706   1.310  0.00  0.00    +0.018 A 
ATOM     18  C   UNL     1       4.915  -7.492   0.645  0.00  0.00    +0.016 A 
ATOM     19  C   UNL     1       4.938  -6.312   1.358  0.00  0.00    +0.011 A 
ATOM     20 BR   UNL     1       4.856 -10.319   0.323  0.00  0.00    -0.050 Br
ENDBRANCH  10  14
BRANCH   8  21
ATOM     21  C   UNL     1       4.970  -3.774   7.085  0.00  0.00    +0.011 A 
ATOM     22  C   UNL     1       6.146  -3.201   7.528  0.00  0.00    +0.009 A 
ATOM     23  C   UNL     1       6.442  -3.181   8.878  0.00  0.00    +0.001 A 
ATOM     24  C   UNL     1       5.561  -3.735   9.789  0.00  0.00    +0.004 A 
ATOM     25  C   UNL     1       4.383  -4.308   9.352  0.00  0.00    +0.046 A 
ATOM     26  C   UNL     1       4.082  -4.324   7.998  0.00  0.00    +0.122 A 
BRANCH  26  27
ATOM     27  O   UNL     1       2.921  -4.883   7.565  0.00  0.00    -0.506 OA
ATOM     28  H   UNL     1       2.990  -5.826   7.363  0.00  0.00    +0.292 HD
ENDBRANCH  26  27
ENDBRANCH   8  21
BRANCH   1  29
ATOM     29  C   UNL     1       3.711  -0.707  -0.038  0.00  0.00    -0.043 C 
BRANCH  29  33
ATOM     30  C   UNL     1      -0.017   1.378   0.010  0.00  0.00    +0.000 A 
ATOM     31  C   UNL     1       1.171   2.086   0.002  0.00  0.00    +0.000 A 
ATOM     32  C   UNL     1       2.377   1.411  -0.013  0.00  0.00    +0.002 A 
ATOM     33  C   UNL     1       2.396   0.029  -0.020  0.00  0.00    -0.064 A 
ATOM     34  C   UNL     1       1.208  -0.679  -0.012  0.00  0.00    +0.002 A 
ATOM     35  C   UNL     1       0.002  -0.004   0.002  0.00  0.00    +0.000 A 
ENDBRANCH  29  33
ENDBRANCH   1  29
TORSDOF 5
