REMARK  Name = ZINC35641995
REMARK  11 active torsions:
REMARK  status: ('A' for Active; 'I' for Inactive)
REMARK    1  A    between atoms: C_1  and  C_2
REMARK    2  A    between atoms: C_2  and  O_3
REMARK    3  A    between atoms: O_3  and  C_4
REMARK    4  A    between atoms: C_4  and  C_6
REMARK    5  A    between atoms: C_7  and  C_24
REMARK    6  A    between atoms: N_8  and  C_21
REMARK    7  A    between atoms: C_12  and  C_14
REMARK    8  A    between atoms: C_21  and  C_22
REMARK    9  A    between atoms: C_24  and  N_25
REMARK   10  A    between atoms: C_29  and  C_32
REMARK   11  A    between atoms: C_33  and  C_35
REMARK                            x       y       z     vdW  Elec       q    Type
REMARK                         _______ _______ _______ _____ _____    ______ ____
ROOT
ATOM      1  C   UNL     1      -2.867  -2.423   0.169  0.00  0.00    +0.080 C 
ATOM      2  C   UNL     1      -3.121  -3.740   0.015  0.00  0.00    +0.041 C 
ATOM      3  N   UNL     1      -4.396  -4.224   0.078  0.00  0.00    -0.254 N 
ATOM      4  C   UNL     1      -5.473  -3.457   0.291  0.00  0.00    +0.307 C 
ATOM      5  O   UNL     1      -6.569  -3.979   0.331  0.00  0.00    -0.252 OA
ATOM      6  N   UNL     1      -5.379  -2.123   0.464  0.00  0.00    -0.288 N 
ATOM      7  C   UNL     1      -4.045  -1.502   0.420  0.00  0.00    +0.144 C 
ATOM      8  H   UNL     1      -6.172  -1.586   0.617  0.00  0.00    +0.151 HD
ENDROOT
BRANCH   7   9
ATOM      9  C   UNL     1      -3.812  -0.797   1.731  0.00  0.00    -0.021 A 
ATOM     10  C   UNL     1      -4.078  -1.446   2.922  0.00  0.00    +0.006 A 
ATOM     11  C   UNL     1      -3.865  -0.799   4.125  0.00  0.00    +0.002 A 
ATOM     12  C   UNL     1      -3.385   0.497   4.137  0.00  0.00    +0.020 A 
ATOM     13  C   UNL     1      -3.118   1.147   2.946  0.00  0.00    +0.041 A 
ATOM     14  C   UNL     1      -3.326   0.497   1.742  0.00  0.00    +0.025 A 
ATOM     15 CL   UNL     1      -2.515   2.775   2.961  0.00  0.00    -0.084 Cl
ENDBRANCH   7   9
BRANCH   1  16
ATOM     16  C   UNL     1      -1.547  -1.920   0.104  0.00  0.00    +0.339 C 
ATOM     17  O   UNL     1      -0.967  -1.599   1.125  0.00  0.00    -0.245 OA
BRANCH  16  18
ATOM     18  O   UNL     1      -0.930  -1.796  -1.090  0.00  0.00    -0.462 OA
BRANCH  18  20
ATOM     19  C   UNL     1       0.933  -1.213  -2.514  0.00  0.00    +0.048 C 
ATOM     20  C   UNL     1       0.403  -1.281  -1.081  0.00  0.00    +0.229 C 
ENDBRANCH  18  20
ENDBRANCH  16  18
ENDBRANCH   1  16
BRANCH   3  21
ATOM     21  C   UNL     1      -4.599  -5.665  -0.098  0.00  0.00    +0.141 C 
BRANCH  21  22
ATOM     22  C   UNL     1      -4.526  -6.349   1.242  0.00  0.00    -0.015 C 
ATOM     23  C   UNL     1      -5.517  -7.106   1.646  0.00  0.00    +0.005 C 
ENDBRANCH  21  22
ENDBRANCH   3  21
BRANCH   2  24
ATOM     24  C   UNL     1      -1.979  -4.691  -0.232  0.00  0.00    +0.136 C 
BRANCH  24  25
ATOM     25  N   UNL     1      -1.823  -5.580   0.927  0.00  0.00    -0.294 NA
ATOM     26  C   UNL     1      -1.409  -4.825   2.118  0.00  0.00    +0.104 C 
ATOM     27  C   UNL     1      -1.433  -5.750   3.339  0.00  0.00    +0.124 C 
ATOM     28  N   UNL     1      -0.619  -6.939   3.042  0.00  0.00    -0.290 N 
ATOM     29  C   UNL     1      -0.885  -7.670   1.794  0.00  0.00    +0.087 C 
ATOM     30  C   UNL     1      -0.882  -6.669   0.633  0.00  0.00    +0.107 C 
ATOM     31  C   UNL     1       0.203  -8.723   1.573  0.00  0.00    +0.029 C 
ATOM     32  C   UNL     1       0.345  -7.347   3.890  0.00  0.00    +0.282 C 
ATOM     33  O   UNL     1       1.078  -8.267   3.581  0.00  0.00    -0.267 OA
BRANCH  32  34
ATOM     34  C   UNL     1       0.510  -6.682   5.187  0.00  0.00    +0.189 A 
ATOM     35  C   UNL     1       1.515  -6.909   6.083  0.00  0.00    +0.054 A 
ATOM     36  C   UNL     1       1.281  -6.060   7.176  0.00  0.00    +0.042 A 
ATOM     37  C   UNL     1       0.157  -5.361   6.903  0.00  0.00    +0.196 A 
ATOM     38  O   UNL     1      -0.301  -5.735   5.701  0.00  0.00    -0.458 OA
ENDBRANCH  32  34
ENDBRANCH  24  25
ENDBRANCH   2  24
TORSDOF 9
