REMARK  Name = ZINC08623163
REMARK  6 active torsions:
REMARK  status: ('A' for Active; 'I' for Inactive)
REMARK    1  A    between atoms: C_1  and  C_2
REMARK    2  A    between atoms: C_4  and  C_29
REMARK    3  A    between atoms: C_6  and  C_8
REMARK    4  A    between atoms: C_16  and  C_18
REMARK    5  A    between atoms: C_18  and  N_19
REMARK    6  A    between atoms: N_22  and  C_23
REMARK                            x       y       z     vdW  Elec       q    Type
REMARK                         _______ _______ _______ _____ _____    ______ ____
ROOT
ATOM      1  C   UNL     1      -1.183   1.144   0.802  0.00  0.00    +0.024 C 
ATOM      2  C   UNL     1      -0.406   0.780  -0.466  0.00  0.00    -0.068 C 
ATOM      3  C   UNL     1      -1.661   2.395  -1.765  0.00  0.00    -0.078 C 
ATOM      4  C   UNL     1      -2.474   2.805  -0.534  0.00  0.00    -0.015 C 
ATOM      5  C   UNL     1      -2.594   1.598   0.405  0.00  0.00    -0.007 C 
ATOM      6  C   UNL     1      -3.280   0.454  -0.353  0.00  0.00    -0.010 C 
ATOM      7  C   UNL     1      -2.445   0.110  -1.590  0.00  0.00    -0.051 C 
ATOM      8  N   UNL     1      -1.251   0.978  -1.664  0.00  0.00    +0.383 N 
ATOM      9  H   UNL     1      -0.708   0.728  -2.499  0.00  0.00    -0.081 HD
ENDROOT
BRANCH   1  15
ATOM     10  C   UNL     1       0.611  -3.160   2.272  0.00  0.00    +0.088 C 
ATOM     11  C   UNL     1      -0.440  -2.087   2.402  0.00  0.00    +0.127 A 
ATOM     12  N   UNL     1      -1.399  -2.236   3.292  0.00  0.00    -0.232 NA
ATOM     13  C   UNL     1      -2.344  -1.309   3.434  0.00  0.00    +0.076 A 
ATOM     14  C   UNL     1      -2.298  -0.169   2.626  0.00  0.00    +0.052 A 
ATOM     15  C   UNL     1      -1.274  -0.061   1.702  0.00  0.00    +0.047 A 
ATOM     16  N   UNL     1      -0.372  -1.027   1.622  0.00  0.00    -0.237 NA
BRANCH  13  17
ATOM     17  C   UNL     1      -3.422  -1.479   4.437  0.00  0.00    +0.014 A 
ATOM     18  C   UNL     1      -3.760  -0.427   5.287  0.00  0.00    +0.011 A 
ATOM     19  C   UNL     1      -4.765  -0.591   6.218  0.00  0.00    +0.001 A 
ATOM     20  C   UNL     1      -5.438  -1.796   6.310  0.00  0.00    +0.001 A 
ATOM     21  C   UNL     1      -5.108  -2.844   5.469  0.00  0.00    +0.016 A 
ATOM     22  C   UNL     1      -4.107  -2.690   4.530  0.00  0.00    +0.027 A 
ATOM     23 BR   UNL     1      -3.663  -4.121   3.376  0.00  0.00    -0.050 Br
ENDBRANCH  13  17
ENDBRANCH   1  15
BRANCH   7  24
ATOM     24  C   UNL     1      -1.995  -1.350  -1.511  0.00  0.00    +0.090 C 
BRANCH  24  25
ATOM     25  N   UNL     1      -1.081  -1.640  -2.620  0.00  0.00    -0.301 N 
ATOM     26  C   UNL     1      -0.632  -2.896  -2.812  0.00  0.00    +0.304 C 
ATOM     27  O   UNL     1      -1.053  -3.804  -2.123  0.00  0.00    -0.253 OA
ATOM     28  N   UNL     1       0.286  -3.144  -3.767  0.00  0.00    -0.269 N 
ATOM     29  H   UNL     1      -0.801  -0.927  -3.216  0.00  0.00    +0.150 HD
ATOM     30  H   UNL     1       0.572  -2.433  -4.362  0.00  0.00    +0.156 HD
BRANCH  28  31
ATOM     31  C   UNL     1       0.826  -4.428  -3.901  0.00  0.00    +0.035 A 
ATOM     32  C   UNL     1       2.154  -4.588  -4.274  0.00  0.00    +0.023 A 
ATOM     33  C   UNL     1       2.686  -5.857  -4.401  0.00  0.00    +0.002 A 
ATOM     34  C   UNL     1       1.894  -6.966  -4.168  0.00  0.00    +0.000 A 
ATOM     35  C   UNL     1       0.570  -6.810  -3.801  0.00  0.00    +0.002 A 
ATOM     36  C   UNL     1       0.034  -5.544  -3.668  0.00  0.00    +0.023 A 
ENDBRANCH  28  31
ENDBRANCH  24  25
ENDBRANCH   7  24
TORSDOF 5
