REMARK  Name = ZINC14466991
REMARK  2 active torsions:
REMARK  status: ('A' for Active; 'I' for Inactive)
REMARK    1  A    between atoms: C_15  and  C_18
REMARK    2  A    between atoms: C_23  and  O_24
REMARK                            x       y       z     vdW  Elec       q    Type
REMARK                         _______ _______ _______ _____ _____    ______ ____
ROOT
ATOM      1  C   UNL     1       1.289   0.020  -4.632  0.00  0.00    +0.040 A 
ATOM      2  C   UNL     1       1.984   0.299  -3.473  0.00  0.00    +0.026 A 
ATOM      3  C   UNL     1       1.324   0.822  -2.368  0.00  0.00    +0.032 A 
ATOM      4  C   UNL     1      -0.051   1.071  -2.447  0.00  0.00    -0.017 A 
ATOM      5  C   UNL     1      -0.739   0.783  -3.605  0.00  0.00    +0.044 A 
ATOM      6  C   UNL     1      -0.073   0.258  -4.700  0.00  0.00    +0.124 A 
ATOM      7  F   UNL     1      -0.753  -0.023  -5.834  0.00  0.00    -0.205 F 
ATOM      8  C   UNL     1      -0.707   1.665  -1.262  0.00  0.00    +0.049 C 
ATOM      9  C   UNL     1      -2.151   1.442  -0.991  0.00  0.00    -0.023 C 
ATOM     10  C   UNL     1      -2.340   1.439   0.323  0.00  0.00    -0.030 C 
ATOM     11  C   UNL     1      -0.984   1.630   1.064  0.00  0.00    +0.033 C 
ATOM     12  C   UNL     1      -0.013   1.086   0.008  0.00  0.00    +0.029 C 
ATOM     13  C   UNL     1       1.393   1.659  -0.002  0.00  0.00    +0.109 C 
ATOM     14  N   UNL     1       2.049   1.083  -1.196  0.00  0.00    -0.336 N 
ATOM     15  H   UNL     1       2.998   0.884  -1.169  0.00  0.00    +0.147 HD
ENDROOT
BRANCH  13  16
ATOM     16  C   UNL     1       1.342   3.162  -0.110  0.00  0.00    +0.017 A 
ATOM     17  C   UNL     1       1.454   3.770  -1.345  0.00  0.00    +0.029 A 
ATOM     18  C   UNL     1       1.401   5.149  -1.446  0.00  0.00    +0.043 A 
ATOM     19  C   UNL     1       1.248   5.922  -0.309  0.00  0.00    +0.043 A 
ATOM     20  C   UNL     1       1.141   5.318   0.930  0.00  0.00    +0.084 A 
ATOM     21  C   UNL     1       1.188   3.934   1.031  0.00  0.00    +0.140 A 
ATOM     22 CL   UNL     1       0.948   6.288   2.356  0.00  0.00    -0.080 Cl
ATOM     23 CL   UNL     1       1.536   5.911  -3.000  0.00  0.00    -0.083 Cl
BRANCH  21  24
ATOM     24  O   UNL     1       1.083   3.337   2.248  0.00  0.00    -0.505 OA
ATOM     25  H   UNL     1       1.930   3.200   2.694  0.00  0.00    +0.292 HD
ENDBRANCH  21  24
ENDBRANCH  13  16
TORSDOF 2
