REMARK  Name = ZINC03460389
REMARK  7 active torsions:
REMARK  status: ('A' for Active; 'I' for Inactive)
REMARK    1  A    between atoms: C_1  and  C_2
REMARK    2  A    between atoms: C_2  and  C_4
REMARK    3  A    between atoms: C_2  and  N_12
REMARK    4  A    between atoms: C_13  and  C_15
REMARK    5  A    between atoms: C_15  and  N_16
REMARK    6  A    between atoms: C_19  and  C_23
REMARK    7  A    between atoms: C_19  and  C_24
REMARK                            x       y       z     vdW  Elec       q    Type
REMARK                         _______ _______ _______ _____ _____    ______ ____
ROOT
ATOM      1  C   UNL     1       1.266   1.673  -0.717  0.00  0.00    +0.213 C 
ENDROOT
BRANCH   1   2
ATOM      2  N   UNL     1       2.299   0.648  -0.887  0.00  0.00    -0.215 N 
ATOM      3  C   UNL     1       2.618   0.083  -2.068  0.00  0.00    +0.251 C 
ATOM      4  O   UNL     1       2.123   0.318  -3.150  0.00  0.00    -0.272 OA
ATOM      5  C   UNL     1       3.725  -0.906  -1.764  0.00  0.00    +0.135 C 
ATOM      6  N   UNL     1       3.919  -0.771  -0.310  0.00  0.00    -0.281 N 
ATOM      7  C   UNL     1       3.046   0.162   0.111  0.00  0.00    +0.310 C 
ATOM      8  O   UNL     1       2.945   0.521   1.267  0.00  0.00    -0.252 OA
ATOM      9  C   UNL     1       5.003  -0.532  -2.515  0.00  0.00    +0.047 C 
ATOM     10  H   UNL     1       4.675  -1.385   0.203  0.00  0.00    +0.152 HD
BRANCH   5  11
ATOM     11  C   UNL     1       3.294  -2.308  -2.113  0.00  0.00    -0.016 A 
ATOM     12  C   UNL     1       2.388  -2.518  -3.136  0.00  0.00    +0.006 A 
ATOM     13  C   UNL     1       1.997  -3.803  -3.460  0.00  0.00    +0.000 A 
ATOM     14  C   UNL     1       2.503  -4.878  -2.753  0.00  0.00    +0.000 A 
ATOM     15  C   UNL     1       3.405  -4.668  -1.727  0.00  0.00    +0.000 A 
ATOM     16  C   UNL     1       3.800  -3.383  -1.407  0.00  0.00    +0.006 A 
ENDBRANCH   5  11
ENDBRANCH   1   2
BRANCH   1  18
ATOM     17  N   UNL     1      -1.161   1.761  -0.248  0.00  0.00    -0.307 N 
ATOM     18  C   UNL     1      -0.058   1.010  -0.435  0.00  0.00    +0.231 C 
ATOM     19  O   UNL     1      -0.131  -0.199  -0.382  0.00  0.00    -0.274 OA
ATOM     20  H   UNL     1      -1.095   2.858  -0.297  0.00  0.00    +0.149 HD
BRANCH  17  22
ATOM     21  C   UNL     1      -2.595   0.875   1.523  0.00  0.00    +0.033 C 
ATOM     22  C   UNL     1      -2.449   1.117   0.020  0.00  0.00    +0.102 C 
BRANCH  22  23
ATOM     23  C   UNL     1      -3.566   2.010  -0.456  0.00  0.00    -0.009 A 
ATOM     24  C   UNL     1      -3.381   3.378  -0.513  0.00  0.00    +0.008 A 
ATOM     25  C   UNL     1      -4.403   4.197  -0.955  0.00  0.00    +0.020 A 
ATOM     26  C   UNL     1      -5.616   3.648  -1.329  0.00  0.00    +0.042 A 
ATOM     27  C   UNL     1      -5.805   2.279  -1.267  0.00  0.00    +0.040 A 
ATOM     28  C   UNL     1      -4.779   1.460  -0.830  0.00  0.00    +0.047 A 
ATOM     29 CL   UNL     1      -5.014  -0.259  -0.753  0.00  0.00    -0.083 Cl
ATOM     30 CL   UNL     1      -6.903   4.677  -1.877  0.00  0.00    -0.083 Cl
ENDBRANCH  22  23
ENDBRANCH  17  22
ENDBRANCH   1  18
TORSDOF 5
