REMARK  Name = ZINC00549820
REMARK  6 active torsions:
REMARK  status: ('A' for Active; 'I' for Inactive)
REMARK    1  A    between atoms: C_1  and  C_2
REMARK    2  A    between atoms: C_2  and  C_3
REMARK    3  A    between atoms: C_3  and  C_4
REMARK    4  A    between atoms: C_11  and  N_24
REMARK    5  A    between atoms: C_12  and  C_22
REMARK    6  A    between atoms: C_13  and  C_15
REMARK                            x       y       z     vdW  Elec       q    Type
REMARK                         _______ _______ _______ _____ _____    ______ ____
ROOT
ATOM      1  C   UNL     1      -1.278  -2.353  -0.110  0.00  0.00    +0.070 A 
ATOM      2  C   UNL     1      -1.289  -2.916  -1.379  0.00  0.00    +0.046 A 
ATOM      3  C   UNL     1      -1.317  -4.276  -1.239  0.00  0.00    +0.222 A 
ATOM      4  N   UNL     1      -1.321  -4.548   0.075  0.00  0.00    -0.246 N 
ATOM      5  H   UNL     1      -1.338  -5.432   0.475  0.00  0.00    +0.192 HD
ATOM      6  N   UNL     1      -1.292  -3.328   0.768  0.00  0.00    -0.176 NA
ATOM      7  O   UNL     1      -1.336  -5.120  -2.300  0.00  0.00    -0.423 OA
ATOM      8  C   UNL     1      -1.605  -4.595  -3.512  0.00  0.00    +0.200 C 
ATOM      9  C   UNL     1      -1.595  -3.269  -3.776  0.00  0.00    +0.094 C 
ATOM     10  C   UNL     1      -1.274  -2.237  -2.724  0.00  0.00    +0.078 C 
ENDROOT
BRANCH  10  11
ATOM     11  C   UNL     1       0.112  -1.644  -2.988  0.00  0.00    +0.024 C 
ATOM     12  C   UNL     1       1.148  -2.770  -3.014  0.00  0.00    +0.009 C 
ATOM     13  C   UNL     1       2.473  -2.197  -3.533  0.00  0.00    +0.005 C 
ATOM     14  C   UNL     1       2.294  -1.818  -5.004  0.00  0.00    +0.027 C 
ATOM     15  C   UNL     1       1.053  -0.993  -5.178  0.00  0.00    -0.031 C 
ATOM     16  C   UNL     1       0.102  -0.923  -4.304  0.00  0.00    -0.027 C 
ENDBRANCH  10  11
BRANCH   8  17
ATOM     17  N   UNL     1      -1.905  -5.456  -4.538  0.00  0.00    -0.328 N 
ATOM     18  H   UNL     1      -1.920  -6.413  -4.380  0.00  0.00    +0.145 HD
ATOM     19  H   UNL     1      -2.103  -5.107  -5.422  0.00  0.00    +0.145 HD
ENDBRANCH   8  17
BRANCH   9  20
ATOM     20  C   UNL     1      -1.901  -2.829  -5.104  0.00  0.00    +0.100 C 
ATOM     21  N   UNL     1      -2.144  -2.479  -6.157  0.00  0.00    -0.191 NA
ENDBRANCH   9  20
BRANCH   1  22
ATOM     22  C   UNL     1      -1.249  -0.879   0.204  0.00  0.00    +0.057 C 
BRANCH  22  24
ATOM     23  C   UNL     1       0.237   1.074   0.671  0.00  0.00    +0.004 C 
ATOM     24  C   UNL     1       0.195  -0.440   0.458  0.00  0.00    +0.003 C 
ENDBRANCH  22  24
ENDBRANCH   1  22
TORSDOF 5
