REMARK  Name = ZINC38728538
REMARK  12 active torsions:
REMARK  status: ('A' for Active; 'I' for Inactive)
REMARK    1  A    between atoms: C_1  and  C_2
REMARK    2  A    between atoms: C_2  and  C_3
REMARK    3  A    between atoms: N_16  and  C_27
REMARK    4  A    between atoms: C_17  and  C_19
REMARK    5  A    between atoms: C_24  and  O_25
REMARK    6  A    between atoms: O_25  and  C_26
REMARK    7  A    between atoms: C_27  and  C_28
REMARK    8  A    between atoms: C_28  and  N_29
REMARK    9  A    between atoms: N_29  and  C_30
REMARK   10  A    between atoms: N_29  and  C_32
REMARK   11  A    between atoms: C_30  and  C_31
REMARK   12  A    between atoms: C_32  and  C_33
REMARK                            x       y       z     vdW  Elec       q    Type
REMARK                         _______ _______ _______ _____ _____    ______ ____
ROOT
ATOM      1  C   UNL     1       0.600  -2.955   1.242  0.00  0.00    -0.047 A 
ATOM      2  C   UNL     1       1.984  -2.875   1.183  0.00  0.00    +0.007 A 
ATOM      3  C   UNL     1       2.746  -2.983   2.324  0.00  0.00    +0.047 A 
ATOM      4  C   UNL     1       2.130  -3.174   3.561  0.00  0.00    +0.139 A 
ATOM      5  C   UNL     1       0.728  -3.247   3.609  0.00  0.00    +0.065 A 
ATOM      6  C   UNL     1      -0.029  -3.134   2.442  0.00  0.00    +0.019 A 
ATOM      7  C   UNL     1       0.061  -3.435   4.922  0.00  0.00    +0.199 A 
ATOM      8  O   UNL     1      -1.127  -3.676   5.039  0.00  0.00    -0.287 OA
ATOM      9  C   UNL     1       0.970  -3.303   6.066  0.00  0.00    +0.072 A 
ATOM     10  C   UNL     1       2.322  -3.231   5.886  0.00  0.00    +0.199 A 
ATOM     11  O   UNL     1       2.897  -3.285   4.668  0.00  0.00    -0.450 OA
ATOM     12  C   UNL     1       2.958  -3.095   7.208  0.00  0.00    +0.283 C 
ATOM     13  O   UNL     1       4.154  -3.003   7.399  0.00  0.00    -0.267 OA
ATOM     14  N   UNL     1       2.018  -3.088   8.176  0.00  0.00    -0.285 N 
ATOM     15  C   UNL     1       0.701  -3.220   7.532  0.00  0.00    +0.148 C 
ENDROOT
BRANCH  15  16
ATOM     16  C   UNL     1       0.014  -4.474   8.007  0.00  0.00    +0.019 A 
ATOM     17  C   UNL     1       0.746  -5.476   8.616  0.00  0.00    +0.009 A 
ATOM     18  C   UNL     1       0.117  -6.627   9.051  0.00  0.00    +0.001 A 
ATOM     19  C   UNL     1      -1.247  -6.780   8.877  0.00  0.00    +0.004 A 
ATOM     20  C   UNL     1      -1.983  -5.782   8.269  0.00  0.00    +0.046 A 
ATOM     21  C   UNL     1      -1.355  -4.623   7.837  0.00  0.00    +0.125 A 
BRANCH  21  22
ATOM     22  O   UNL     1      -2.078  -3.637   7.243  0.00  0.00    -0.495 OA
ATOM     23  C   UNL     1      -3.482  -3.859   7.102  0.00  0.00    +0.277 C 
ENDBRANCH  21  22
ENDBRANCH  15  16
BRANCH   1  25
ATOM     24  C   UNL     1      -0.558  -1.367  -0.271  0.00  0.00    +0.009 C 
ATOM     25  C   UNL     1      -0.213  -2.837  -0.021  0.00  0.00    +0.032 C 
ENDBRANCH   1  25
BRANCH  14  26
ATOM     26  C   UNL     1       2.266  -2.970   9.615  0.00  0.00    +0.090 C 
BRANCH  26  27
ATOM     27  C   UNL     1       2.258  -1.494  10.015  0.00  0.00    -0.060 C 
BRANCH  27  28
ATOM     28  N   UNL     1       2.506  -1.376  11.458  0.00  0.00    +0.380 N 
ATOM     29  H   UNL     1       1.832  -1.933  11.961  0.00  0.00    -0.082 HD
BRANCH  28  30
ATOM     30  C   UNL     1       3.861  -1.853  11.762  0.00  0.00    -0.082 C 
ATOM     31  C   UNL     1       4.069  -1.865  13.278  0.00  0.00    -0.017 C 
ENDBRANCH  28  30
BRANCH  28  32
ATOM     32  C   UNL     1       2.380   0.031  11.863  0.00  0.00    -0.082 C 
ATOM     33  C   UNL     1       0.931   0.487  11.678  0.00  0.00    -0.017 C 
ENDBRANCH  28  32
ENDBRANCH  27  28
ENDBRANCH  26  27
ENDBRANCH  14  26
TORSDOF 8
