REMARK  Name = ZINC40636081
REMARK  4 active torsions:
REMARK  status: ('A' for Active; 'I' for Inactive)
REMARK    1  A    between atoms: C_1  and  O_2
REMARK    2  A    between atoms: O_2  and  C_3
REMARK    3  A    between atoms: C_6  and  C_10
REMARK    4  A    between atoms: C_15  and  N_18
REMARK                            x       y       z     vdW  Elec       q    Type
REMARK                         _______ _______ _______ _____ _____    ______ ____
ROOT
ATOM      1  C   UNL     1       1.550  -4.039   2.097  0.00  0.00    +0.202 C 
ATOM      2  O   UNL     1       2.076  -3.981   3.188  0.00  0.00    -0.277 OA
ATOM      3  N   UNL     1       1.833  -5.061   1.266  0.00  0.00    -0.303 N 
ATOM      4  C   UNL     1       1.209  -5.142  -0.062  0.00  0.00    +0.109 C 
ATOM      5  C   UNL     1       2.310  -5.286  -1.117  0.00  0.00    +0.041 C 
ATOM      6  C   UNL     1       3.195  -6.484  -0.765  0.00  0.00    +0.081 C 
ATOM      7  C   UNL     1       3.857  -6.249   0.595  0.00  0.00    +0.041 C 
ATOM      8  C   UNL     1       2.777  -6.113   1.667  0.00  0.00    +0.109 C 
ENDROOT
BRANCH   1  11
ATOM      9  C   UNL     1       0.673  -0.582   1.123  0.00  0.00    +0.100 C 
ATOM     10  C   UNL     1       1.274  -1.951   0.741  0.00  0.00    +0.023 C 
ATOM     11  C   UNL     1       0.579  -2.968   1.671  0.00  0.00    +0.019 C 
ATOM     12  N   UNL     1       0.141  -2.166   2.842  0.00  0.00    +0.388 N 
ATOM     13  C   UNL     1      -0.334  -0.886   2.253  0.00  0.00    -0.050 C 
ATOM     14  H   UNL     1      -0.611  -2.632   3.327  0.00  0.00    -0.085 HD
ATOM     15  H   UNL     1       0.916  -2.000   3.466  0.00  0.00    -0.085 HD
BRANCH   9  17
ATOM     16  C   UNL     1      -0.017   1.425   0.010  0.00  0.00    +0.194 C 
ATOM     17  O   UNL     1       0.002  -0.004   0.002  0.00  0.00    -0.382 OA
ENDBRANCH   9  17
ENDBRANCH   1  11
BRANCH   6  18
ATOM     18  N   UNL     1       4.229  -6.644  -1.790  0.00  0.00    -0.281 N 
ATOM     19  C   UNL     1       4.415  -7.834  -2.634  0.00  0.00    +0.128 C 
ATOM     20  C   UNL     1       5.623  -7.473  -3.520  0.00  0.00    +0.124 C 
ATOM     21  N   UNL     1       5.991  -6.119  -3.080  0.00  0.00    -0.298 N 
ATOM     22  C   UNL     1       5.153  -5.729  -2.111  0.00  0.00    +0.303 C 
ATOM     23  O   UNL     1       5.226  -4.643  -1.568  0.00  0.00    -0.253 OA
ATOM     24  H   UNL     1       6.721  -5.590  -3.438  0.00  0.00    +0.150 HD
ENDBRANCH   6  18
TORSDOF 3
