REMARK  Name = ZINC49935037
REMARK  6 active torsions:
REMARK  status: ('A' for Active; 'I' for Inactive)
REMARK    1  A    between atoms: C_1  and  C_2
REMARK    2  A    between atoms: C_2  and  C_3
REMARK    3  A    between atoms: C_2  and  C_4
REMARK    4  A    between atoms: C_4  and  C_6
REMARK    5  A    between atoms: C_4  and  N_20
REMARK    6  A    between atoms: C_21  and  C_23
REMARK                            x       y       z     vdW  Elec       q    Type
REMARK                         _______ _______ _______ _____ _____    ______ ____
ROOT
ATOM      1  C   UNL     1      -1.420  -2.315   0.308  0.00  0.00    +0.236 C 
ATOM      2  O   UNL     1      -1.834  -3.034  -0.577  0.00  0.00    -0.274 OA
ATOM      3  N   UNL     1      -0.865  -2.856   1.411  0.00  0.00    -0.297 N 
ATOM      4  C   UNL     1      -0.262  -1.998   2.442  0.00  0.00    +0.127 C 
ATOM      5  C   UNL     1      -0.917  -2.321   3.791  0.00  0.00    +0.125 C 
ATOM      6  N   UNL     1      -0.903  -3.777   3.984  0.00  0.00    -0.314 N 
ATOM      7  C   UNL     1      -1.505  -4.634   2.953  0.00  0.00    +0.125 C 
ATOM      8  C   UNL     1      -0.855  -4.312   1.607  0.00  0.00    +0.127 C 
ATOM      9  C   UNL     1      -0.330  -4.335   5.121  0.00  0.00    +0.099 A 
ATOM     10  C   UNL     1       0.110  -3.506   6.149  0.00  0.00    +0.042 A 
ATOM     11  C   UNL     1       0.678  -4.074   7.274  0.00  0.00    +0.005 A 
ATOM     12  C   UNL     1       0.788  -5.457   7.335  0.00  0.00    +0.018 A 
ATOM     13  C   UNL     1       0.332  -6.219   6.279  0.00  0.00    +0.084 A 
ATOM     14  N   UNL     1      -0.212  -5.650   5.219  0.00  0.00    -0.350 N 
ATOM     15  H   UNL     1      -0.528  -6.209   4.492  0.00  0.00    +0.166 HD
ENDROOT
BRANCH   1  16
ATOM     16  C   UNL     1      -1.528  -0.818   0.175  0.00  0.00    +0.162 C 
BRANCH  16  17
ATOM     17  N   UNL     1      -2.738  -0.480  -0.578  0.00  0.00    -0.300 N 
ATOM     18  C   UNL     1      -3.322   0.723  -0.411  0.00  0.00    +0.245 C 
ATOM     19  O   UNL     1      -2.845   1.527   0.365  0.00  0.00    -0.270 OA
ATOM     20  H   UNL     1      -3.118  -1.122  -1.198  0.00  0.00    +0.150 HD
BRANCH  18  21
ATOM     21  C   UNL     1      -4.543   1.064  -1.172  0.00  0.00    +0.037 A 
ATOM     22  C   UNL     1      -5.096   0.140  -2.060  0.00  0.00    +0.013 A 
ATOM     23  C   UNL     1      -6.236   0.464  -2.766  0.00  0.00    +0.001 A 
ATOM     24  C   UNL     1      -6.830   1.702  -2.596  0.00  0.00    +0.000 A 
ATOM     25  C   UNL     1      -6.287   2.622  -1.718  0.00  0.00    +0.001 A 
ATOM     26  C   UNL     1      -5.151   2.308  -1.001  0.00  0.00    +0.013 A 
ENDBRANCH  18  21
ENDBRANCH  16  17
BRANCH  16  28
ATOM     27  C   UNL     1      -0.346   1.247  -0.588  0.00  0.00    +0.009 C 
ATOM     28  C   UNL     1      -0.300  -0.282  -0.564  0.00  0.00    +0.012 C 
ATOM     29  C   UNL     1       0.970  -0.743   0.154  0.00  0.00    +0.009 C 
ENDBRANCH  16  28
ENDBRANCH   1  16
TORSDOF 4
