REMARK  Name = ZINC64202262
REMARK  7 active torsions:
REMARK  status: ('A' for Active; 'I' for Inactive)
REMARK    1  A    between atoms: C_1  and  C_2
REMARK    2  A    between atoms: C_4  and  C_9
REMARK    3  A    between atoms: C_5  and  C_8
REMARK    4  A    between atoms: C_9  and  S_10
REMARK    5  A    between atoms: S_10  and  C_11
REMARK    6  A    between atoms: C_12  and  C_17
REMARK    7  A    between atoms: C_22  and  C_25
REMARK                            x       y       z     vdW  Elec       q    Type
REMARK                         _______ _______ _______ _____ _____    ______ ____
ROOT
ATOM      1  C   UNL     1      -4.813   3.848  -1.362  0.00  0.00    +0.249 C 
ATOM      2  O   UNL     1      -4.960   2.929  -2.145  0.00  0.00    -0.270 OA
ATOM      3  N   UNL     1      -5.579   4.952  -1.468  0.00  0.00    -0.297 N 
ATOM      4  C   UNL     1      -6.682   5.008  -2.436  0.00  0.00    +0.108 C 
ATOM      5  C   UNL     1      -6.510   6.256  -3.308  0.00  0.00    +0.027 C 
ATOM      6  C   UNL     1      -6.399   7.490  -2.410  0.00  0.00    +0.020 C 
ATOM      7  C   UNL     1      -5.169   7.357  -1.508  0.00  0.00    +0.027 C 
ATOM      8  C   UNL     1      -5.330   6.120  -0.612  0.00  0.00    +0.108 C 
ENDROOT
BRANCH   6   9
ATOM      9  C   UNL     1      -6.263   8.723  -3.266  0.00  0.00    -0.038 C 
ATOM     10  C   UNL     1      -7.094   9.790  -3.291  0.00  0.00    -0.001 A 
ATOM     11  C   UNL     1      -8.326  10.109  -2.559  0.00  0.00    +0.010 A 
ATOM     12  C   UNL     1      -8.950  11.283  -2.807  0.00  0.00    +0.001 A 
ATOM     13  C   UNL     1      -8.452  12.200  -3.743  0.00  0.00    +0.002 A 
ATOM     14  C   UNL     1      -7.326  11.978  -4.454  0.00  0.00    +0.026 A 
ATOM     15  C   UNL     1      -6.588  10.775  -4.274  0.00  0.00    +0.043 A 
ATOM     16  N   UNL     1      -5.488  10.334  -4.834  0.00  0.00    -0.380 N 
ATOM     17  C   UNL     1      -5.167   9.021  -4.264  0.00  0.00    +0.145 C 
ATOM     18  H   UNL     1      -4.970  10.800  -5.508  0.00  0.00    +0.160 HD
ENDBRANCH   6   9
BRANCH   1  20
ATOM     19  C   UNL     1      -2.457   3.465  -0.612  0.00  0.00    +0.109 A 
ATOM     20  C   UNL     1      -3.797   3.755  -0.299  0.00  0.00    +0.069 A 
ATOM     21  C   UNL     1      -4.148   3.953   1.041  0.00  0.00    +0.017 A 
ATOM     22  C   UNL     1      -3.157   3.854   2.002  0.00  0.00    +0.020 A 
ATOM     23  C   UNL     1      -1.860   3.566   1.617  0.00  0.00    +0.112 A 
ATOM     24  N   UNL     1      -1.549   3.378   0.349  0.00  0.00    -0.248 NA
BRANCH  19  25
ATOM     25  S   UNL     1      -1.984   3.210  -2.290  0.00  0.00    -0.101 S 
BRANCH  25  26
ATOM     26  C   UNL     1      -0.205   2.866  -2.197  0.00  0.00    +0.111 C 
BRANCH  26  29
ATOM     27  C   UNL     1      -1.355   1.152  -4.684  0.00  0.00    +0.045 C 
ATOM     28  C   UNL     1       0.134   1.379  -4.414  0.00  0.00    +0.174 C 
ATOM     29  C   UNL     1       0.333   2.626  -3.584  0.00  0.00    -0.008 C 
ATOM     30  C   UNL     1       1.060   3.465  -4.291  0.00  0.00    +0.038 C 
ATOM     31  N   UNL     1       1.386   2.928  -5.523  0.00  0.00    -0.269 N 
ATOM     32  O   UNL     1       0.831   1.628  -5.644  0.00  0.00    -0.267 OA
ATOM     33  C   UNL     1       1.482   4.833  -3.820  0.00  0.00    +0.065 C 
ATOM     34  H   UNL     1       1.915   3.373  -6.203  0.00  0.00    +0.194 HD
ENDBRANCH  26  29
ENDBRANCH  25  26
ENDBRANCH  19  25
ENDBRANCH   1  20
TORSDOF 5
