REMARK  Name = ZINC22001065
REMARK  11 active torsions:
REMARK  status: ('A' for Active; 'I' for Inactive)
REMARK    1  A    between atoms: C_1  and  C_2
REMARK    2  A    between atoms: C_7  and  C_9
REMARK    3  A    between atoms: C_7  and  C_10
REMARK    4  A    between atoms: N_13  and  C_17
REMARK    5  A    between atoms: C_17  and  C_18
REMARK    6  A    between atoms: C_18  and  O_20
REMARK    7  A    between atoms: O_20  and  C_21
REMARK    8  A    between atoms: C_21  and  C_22
REMARK    9  A    between atoms: N_24  and  C_25
REMARK   10  A    between atoms: C_30  and  O_31
REMARK   11  A    between atoms: O_31  and  C_32
REMARK                            x       y       z     vdW  Elec       q    Type
REMARK                         _______ _______ _______ _____ _____    ______ ____
ROOT
ATOM      1  C   UNL     1      -4.114  -3.899  -3.803  0.00  0.00    +0.326 C 
ATOM      2  O   UNL     1      -3.861  -2.730  -3.969  0.00  0.00    -0.249 OA
ENDROOT
BRANCH   1   3
ATOM      3  C   UNL     1      -3.398  -4.681  -2.732  0.00  0.00    +0.238 C 
BRANCH   3  15
ATOM      4  C   UNL     1      -0.626   1.407  -0.386  0.00  0.00    +0.007 C 
ATOM      5  C   UNL     1      -0.401  -0.105  -0.327  0.00  0.00    -0.011 C 
ATOM      6  C   UNL     1      -1.707  -0.829  -0.662  0.00  0.00    +0.038 C 
ATOM      7  C   UNL     1      -1.489  -2.336  -0.583  0.00  0.00    +0.113 C 
ATOM      8  C   UNL     1      -1.016  -2.741   0.809  0.00  0.00    +0.041 C 
ATOM      9  C   UNL     1       0.288  -2.009   1.138  0.00  0.00    -0.032 C 
ATOM     10  C   UNL     1       0.053  -0.499   1.080  0.00  0.00    +0.009 C 
ATOM     11  C   UNL     1       0.751  -2.400   2.543  0.00  0.00    +0.011 C 
ATOM     12  C   UNL     1       1.363  -2.398   0.121  0.00  0.00    +0.011 C 
ATOM     13  C   UNL     1      -2.758  -3.073  -0.944  0.00  0.00    +0.247 C 
ATOM     14  O   UNL     1      -3.826  -3.019  -0.373  0.00  0.00    -0.273 OA
ATOM     15  N   UNL     1      -2.452  -3.803  -2.037  0.00  0.00    -0.213 N 
ATOM     16  C   UNL     1      -1.178  -3.627  -2.407  0.00  0.00    +0.310 C 
ATOM     17  O   UNL     1      -0.669  -4.178  -3.363  0.00  0.00    -0.252 OA
ATOM     18  N   UNL     1      -0.523  -2.770  -1.601  0.00  0.00    -0.285 N 
ATOM     19  H   UNL     1       0.404  -2.494  -1.677  0.00  0.00    +0.151 HD
ENDBRANCH   3  15
ENDBRANCH   1   3
BRANCH   1  20
ATOM     20  O   UNL     1      -5.033  -4.503  -4.572  0.00  0.00    -0.454 OA
BRANCH  20  21
ATOM     21  C   UNL     1      -5.673  -3.702  -5.568  0.00  0.00    +0.328 C 
BRANCH  21  22
ATOM     22  C   UNL     1      -6.665  -4.543  -6.328  0.00  0.00    +0.255 C 
ATOM     23  O   UNL     1      -6.811  -5.713  -6.045  0.00  0.00    -0.272 OA
ATOM     24  N   UNL     1      -7.392  -3.995  -7.322  0.00  0.00    -0.280 N 
ATOM     25  H   UNL     1      -7.224  -3.080  -7.598  0.00  0.00    +0.155 HD
BRANCH  24  26
ATOM     26  C   UNL     1      -8.388  -4.747  -7.959  0.00  0.00    +0.076 A 
ATOM     27  C   UNL     1      -9.101  -5.701  -7.247  0.00  0.00    +0.027 A 
ATOM     28  C   UNL     1     -10.084  -6.441  -7.876  0.00  0.00    +0.002 A 
ATOM     29  C   UNL     1     -10.360  -6.233  -9.215  0.00  0.00    +0.004 A 
ATOM     30  C   UNL     1      -9.654  -5.284  -9.931  0.00  0.00    +0.048 A 
ATOM     31  C   UNL     1      -8.671  -4.534  -9.306  0.00  0.00    +0.148 A 
BRANCH  31  32
ATOM     32  O   UNL     1      -7.980  -3.596 -10.007  0.00  0.00    -0.432 OA
BRANCH  32  33
ATOM     33  C   UNL     1      -8.323  -3.432 -11.385  0.00  0.00    +0.541 C 
ATOM     34  F   UNL     1      -8.115  -4.638 -12.063  0.00  0.00    -0.166 F 
ATOM     35  F   UNL     1      -9.668  -3.064 -11.489  0.00  0.00    -0.166 F 
ENDBRANCH  32  33
ENDBRANCH  31  32
ENDBRANCH  24  26
ENDBRANCH  21  22
ENDBRANCH  20  21
ENDBRANCH   1  20
TORSDOF 8
