REMARK  Name = ZINC01750183
REMARK  3 active torsions:
REMARK  status: ('A' for Active; 'I' for Inactive)
REMARK    1  A    between atoms: C_4  and  C_7
REMARK    2  A    between atoms: C_10  and  C_27
REMARK    3  A    between atoms: C_18  and  C_20
REMARK                            x       y       z     vdW  Elec       q    Type
REMARK                         _______ _______ _______ _____ _____    ______ ____
ROOT
ATOM      1  C   UNL     1       3.711  -0.707  -0.038  0.00  0.00    +0.147 C 
ATOM      2  C   UNL     1       3.791  -1.597  -1.284  0.00  0.00    +0.087 C 
ATOM      3  C   UNL     1       2.966  -2.842  -1.112  0.00  0.00    +0.055 C 
ATOM      4  N   UNL     1       2.818  -3.434   0.042  0.00  0.00    -0.215 NA
ATOM      5  C   UNL     1       3.373  -2.865   1.145  0.00  0.00    +0.251 A 
ATOM      6  N   UNL     1       3.812  -1.568   1.141  0.00  0.00    -0.220 N 
ATOM      7  N   UNL     1       4.320  -1.311   2.410  0.00  0.00    -0.131 NA
ATOM      8  C   UNL     1       4.158  -2.413   3.114  0.00  0.00    +0.243 A 
ATOM      9  N   UNL     1       3.575  -3.346   2.347  0.00  0.00    -0.176 NA
ATOM     10  N   UNL     1       4.534  -2.583   4.449  0.00  0.00    -0.249 N 
ATOM     11  C   UNL     1       4.316  -3.761   5.066  0.00  0.00    +0.250 C 
ATOM     12  O   UNL     1       3.792  -4.676   4.461  0.00  0.00    -0.270 OA
ATOM     13  H   UNL     1       4.952  -1.852   4.931  0.00  0.00    +0.158 HD
ENDROOT
BRANCH  11  14
ATOM     14  C   UNL     1       4.715  -3.940   6.477  0.00  0.00    +0.037 A 
ATOM     15  C   UNL     1       5.311  -2.889   7.176  0.00  0.00    +0.014 A 
ATOM     16  C   UNL     1       5.681  -3.062   8.493  0.00  0.00    +0.021 A 
ATOM     17  C   UNL     1       5.461  -4.276   9.123  0.00  0.00    +0.041 A 
ATOM     18  C   UNL     1       4.869  -5.322   8.435  0.00  0.00    +0.021 A 
ATOM     19  C   UNL     1       4.490  -5.159   7.120  0.00  0.00    +0.014 A 
ATOM     20 CL   UNL     1       5.929  -4.486  10.782  0.00  0.00    -0.084 Cl
ENDBRANCH  11  14
BRANCH   1  24
ATOM     21  C   UNL     1      -0.017   1.378   0.010  0.00  0.00    +0.000 A 
ATOM     22  C   UNL     1       1.171   2.086   0.002  0.00  0.00    +0.000 A 
ATOM     23  C   UNL     1       2.377   1.411  -0.013  0.00  0.00    +0.006 A 
ATOM     24  C   UNL     1       2.396   0.029  -0.020  0.00  0.00    -0.023 A 
ATOM     25  C   UNL     1       1.208  -0.679  -0.012  0.00  0.00    +0.006 A 
ATOM     26  C   UNL     1       0.002  -0.004   0.002  0.00  0.00    +0.000 A 
ENDBRANCH   1  24
BRANCH   3  27
ATOM     27  C   UNL     1       2.298  -3.415  -2.292  0.00  0.00    -0.004 A 
ATOM     28  C   UNL     1       2.440  -2.808  -3.544  0.00  0.00    +0.010 A 
ATOM     29  C   UNL     1       1.811  -3.351  -4.644  0.00  0.00    +0.001 A 
ATOM     30  C   UNL     1       1.040  -4.493  -4.512  0.00  0.00    +0.000 A 
ATOM     31  C   UNL     1       0.895  -5.099  -3.276  0.00  0.00    +0.001 A 
ATOM     32  C   UNL     1       1.523  -4.572  -2.167  0.00  0.00    +0.010 A 
ENDBRANCH   3  27
TORSDOF 3
