REMARK  Name = ZINC43667382
REMARK  7 active torsions:
REMARK  status: ('A' for Active; 'I' for Inactive)
REMARK    1  A    between atoms: C_1  and  C_2
REMARK    2  A    between atoms: C_4  and  N_20
REMARK    3  A    between atoms: N_5  and  C_7
REMARK    4  A    between atoms: C_10  and  C_19
REMARK    5  A    between atoms: C_14  and  C_16
REMARK    6  A    between atoms: C_16  and  C_17
REMARK    7  A    between atoms: C_16  and  C_18
REMARK                            x       y       z     vdW  Elec       q    Type
REMARK                         _______ _______ _______ _____ _____    ______ ____
ROOT
ATOM      1  C   UNL     1       1.700   1.214  -0.424  0.00  0.00    +0.069 C 
ATOM      2  C   UNL     1       0.970  -0.066  -0.105  0.00  0.00    +0.080 A 
ATOM      3  C   UNL     1      -0.192  -0.523  -0.733  0.00  0.00    +0.103 A 
ATOM      4  C   UNL     1      -0.536  -1.710  -0.162  0.00  0.00    +0.134 A 
ATOM      5  N   UNL     1       0.387  -1.985   0.796  0.00  0.00    -0.246 N 
ATOM      6  N   UNL     1       1.320  -0.940   0.804  0.00  0.00    -0.173 NA
ATOM      7 CL   UNL     1      -1.046   0.281  -2.013  0.00  0.00    -0.078 Cl
ENDROOT
BRANCH   5   8
ATOM      8  C   UNL     1       0.407  -3.166   1.662  0.00  0.00    +0.113 C 
ATOM      9  C   UNL     1      -0.889  -3.227   2.472  0.00  0.00    +0.030 C 
ATOM     10  C   UNL     1      -1.012  -1.966   3.331  0.00  0.00    -0.012 C 
ATOM     11  C   UNL     1       0.182  -1.880   4.284  0.00  0.00    +0.004 C 
ATOM     12  C   UNL     1       1.478  -1.820   3.474  0.00  0.00    +0.006 C 
ATOM     13  C   UNL     1       1.601  -3.080   2.615  0.00  0.00    +0.016 C 
ATOM     14  C   UNL     1      -1.033  -0.733   2.427  0.00  0.00    +0.007 C 
BRANCH  13  15
ATOM     15  C   UNL     1       2.897  -3.020   1.804  0.00  0.00    -0.012 C 
ATOM     16  C   UNL     1       4.091  -2.934   2.757  0.00  0.00    +0.007 C 
ATOM     17  C   UNL     1       3.021  -4.280   0.945  0.00  0.00    +0.007 C 
ENDBRANCH  13  15
ENDBRANCH   5   8
BRANCH   4  18
ATOM     18  N   UNL     1      -1.634  -2.499  -0.498  0.00  0.00    -0.342 N 
ATOM     19  H   UNL     1      -2.239  -2.214  -1.201  0.00  0.00    +0.144 HD
ATOM     20  H   UNL     1      -1.794  -3.333  -0.030  0.00  0.00    +0.144 HD
ENDBRANCH   4  18
TORSDOF 3
