REMARK  Name = ZINC06194838
REMARK  10 active torsions:
REMARK  status: ('A' for Active; 'I' for Inactive)
REMARK    1  A    between atoms: C_1  and  C_2
REMARK    2  A    between atoms: C_6  and  C_15
REMARK    3  A    between atoms: C_13  and  C_14
REMARK    4  A    between atoms: C_15  and  C_17
REMARK    5  A    between atoms: C_15  and  N_66
REMARK    6  A    between atoms: N_21  and  C_22
REMARK    7  A    between atoms: C_22  and  C_23
REMARK    8  A    between atoms: C_23  and  O_24
REMARK    9  A    between atoms: O_24  and  C_25
REMARK   10  A    between atoms: N_28  and  C_31
REMARK                            x       y       z     vdW  Elec       q    Type
REMARK                         _______ _______ _______ _____ _____    ______ ____
ROOT
ATOM      1  C   UNL     1       0.484   5.457  -1.033  0.00  0.00    +0.039 C 
ENDROOT
BRANCH   1   7
ATOM      2  C   UNL     1       0.901   9.351  -7.380  0.00  0.00    +0.044 C 
ATOM      3  C   UNL     1       0.138   8.466  -6.429  0.00  0.00    -0.047 A 
ATOM      4  C   UNL     1       0.730   8.044  -5.272  0.00  0.00    +0.013 A 
ATOM      5  C   UNL     1       0.022   7.223  -4.389  0.00  0.00    -0.001 A 
ATOM      6  C   UNL     1       0.627   6.753  -3.142  0.00  0.00    +0.017 A 
ATOM      7  C   UNL     1      -0.109   5.959  -2.325  0.00  0.00    +0.011 A 
ATOM      8  C   UNL     1      -1.425   5.596  -2.682  0.00  0.00    +0.251 A 
ATOM      9  O   UNL     1      -2.066   4.877  -1.936  0.00  0.00    -0.268 OA
ATOM     10  N   UNL     1      -1.991   6.027  -3.823  0.00  0.00    -0.322 N 
ATOM     11  H   UNL     1      -2.899   5.763  -4.036  0.00  0.00    +0.169 HD
ATOM     12  C   UNL     1      -1.297   6.837  -4.697  0.00  0.00    +0.049 A 
ATOM     13  C   UNL     1      -1.879   7.279  -5.880  0.00  0.00    +0.030 A 
ATOM     14  C   UNL     1      -1.162   8.087  -6.735  0.00  0.00    -0.046 A 
ATOM     15  C   UNL     1      -1.796   8.566  -8.016  0.00  0.00    +0.044 C 
ENDBRANCH   1   7
BRANCH   1  21
ATOM     16  C   UNL     1       1.062   3.366  -2.110  0.00  0.00    -0.058 C 
ATOM     17  C   UNL     1       0.850   1.851  -2.058  0.00  0.00    +0.086 C 
ATOM     18  N   UNL     1       1.357   1.332  -0.780  0.00  0.00    -0.331 N 
ATOM     19  C   UNL     1       0.663   1.959   0.353  0.00  0.00    +0.086 C 
ATOM     20  C   UNL     1       0.874   3.474   0.301  0.00  0.00    -0.058 C 
ATOM     21  N   UNL     1       0.341   3.987  -0.978  0.00  0.00    +0.391 N 
ATOM     22  H   UNL     1      -0.655   3.746  -1.045  0.00  0.00    -0.080 HD
BRANCH  18  23
ATOM     23  C   UNL     1       1.246  -0.061  -0.726  0.00  0.00    +0.065 A 
ATOM     24  C   UNL     1       0.001  -0.665  -0.830  0.00  0.00    +0.026 A 
ATOM     25  C   UNL     1      -0.105  -2.041  -0.781  0.00  0.00    +0.002 A 
ATOM     26  C   UNL     1       1.026  -2.819  -0.618  0.00  0.00    +0.003 A 
ATOM     27  C   UNL     1       2.269  -2.222  -0.510  0.00  0.00    +0.040 A 
ATOM     28  C   UNL     1       2.384  -0.845  -0.563  0.00  0.00    +0.144 A 
ATOM     29  F   UNL     1       3.598  -0.262  -0.456  0.00  0.00    -0.204 F 
ENDBRANCH  18  23
ENDBRANCH   1  21
BRANCH   1  30
ATOM     30  C   UNL     1      -0.258   6.066   0.129  0.00  0.00    +0.143 A 
ATOM     31  N   UNL     1      -1.455   5.739   0.551  0.00  0.00    -0.115 NA
ATOM     32  N   UNL     1      -1.736   6.482   1.565  0.00  0.00    -0.023 NA
ATOM     33  N   UNL     1      -0.753   7.279   1.797  0.00  0.00    -0.044 NA
ATOM     34  N   UNL     1       0.178   7.053   0.933  0.00  0.00    -0.228 N 
BRANCH  34  35
ATOM     35  C   UNL     1       1.468   7.743   0.843  0.00  0.00    +0.175 C 
BRANCH  35  36
ATOM     36  C   UNL     1       1.332   8.960  -0.074  0.00  0.00    +0.183 C 
BRANCH  36  37
ATOM     37  O   UNL     1       2.590   9.633  -0.162  0.00  0.00    -0.381 OA
ATOM     38  C   UNL     1       2.573  10.791  -0.998  0.00  0.00    +0.194 C 
ENDBRANCH  36  37
ENDBRANCH  35  36
ENDBRANCH  34  35
ENDBRANCH   1  30
TORSDOF 7
