REMARK  Name = ZINC36883634
REMARK  9 active torsions:
REMARK  status: ('A' for Active; 'I' for Inactive)
REMARK    1  A    between atoms: C_4  and  C_7
REMARK    2  A    between atoms: C_7  and  C_8
REMARK    3  A    between atoms: C_8  and  C_10
REMARK    4  A    between atoms: C_8  and  N_27
REMARK    5  A    between atoms: N_12  and  C_13
REMARK    6  A    between atoms: C_13  and  C_14
REMARK    7  A    between atoms: C_14  and  C_16
REMARK    8  A    between atoms: C_14  and  N_22
REMARK    9  A    between atoms: C_28  and  C_30
REMARK                            x       y       z     vdW  Elec       q    Type
REMARK                         _______ _______ _______ _____ _____    ______ ____
ROOT
ATOM      1  C   UNL     1       4.158  -0.898   1.368  0.00  0.00    +0.163 C 
ENDROOT
BRANCH   1   2
ATOM      2  C   UNL     1       5.495  -1.585   1.267  0.00  0.00    +0.234 C 
ATOM      3  O   UNL     1       5.612  -2.739   1.621  0.00  0.00    -0.274 OA
ATOM      4  N   UNL     1       6.561  -0.917   0.783  0.00  0.00    -0.315 N 
ATOM      5  H   UNL     1       6.468   0.005   0.500  0.00  0.00    +0.149 HD
BRANCH   4   6
ATOM      6  C   UNL     1       7.861  -1.586   0.684  0.00  0.00    +0.093 C 
BRANCH   6   7
ATOM      7  C   UNL     1       8.866  -0.650   0.009  0.00  0.00    -0.020 C 
BRANCH   7   8
ATOM      8  C   UNL     1       9.112   0.545   0.894  0.00  0.00    -0.059 A 
ATOM      9  C   UNL     1       9.983   0.446   1.963  0.00  0.00    +0.002 A 
ATOM     10  C   UNL     1      10.209   1.542   2.775  0.00  0.00    +0.000 A 
ATOM     11  C   UNL     1       9.564   2.737   2.518  0.00  0.00    +0.000 A 
ATOM     12  C   UNL     1       8.694   2.837   1.448  0.00  0.00    +0.000 A 
ATOM     13  C   UNL     1       8.471   1.742   0.634  0.00  0.00    +0.002 A 
ENDBRANCH   7   8
BRANCH   7  14
ATOM     14  N   UNL     1      10.130  -1.365  -0.210  0.00  0.00    +0.385 N 
ATOM     15  C   UNL     1       9.919  -2.504  -1.140  0.00  0.00    -0.078 C 
ATOM     16  C   UNL     1      11.340  -2.775  -1.697  0.00  0.00    -0.020 C 
ATOM     17  C   UNL     1      11.933  -1.354  -1.837  0.00  0.00    -0.020 C 
ATOM     18  C   UNL     1      11.109  -0.477  -0.875  0.00  0.00    -0.078 C 
ATOM     19  H   UNL     1      10.501  -1.695   0.668  0.00  0.00    -0.081 HD
ENDBRANCH   7  14
ENDBRANCH   6   7
ENDBRANCH   4   6
ENDBRANCH   1   2
BRANCH   1  20
ATOM     20  N   UNL     1       3.171  -1.829   1.920  0.00  0.00    -0.300 N 
ATOM     21  C   UNL     1       2.086  -1.357   2.564  0.00  0.00    +0.245 C 
ATOM     22  O   UNL     1       1.926  -0.158   2.688  0.00  0.00    -0.270 OA
ATOM     23  H   UNL     1       3.299  -2.786   1.822  0.00  0.00    +0.150 HD
BRANCH  21  24
ATOM     24  C   UNL     1       1.089  -2.296   3.122  0.00  0.00    +0.037 A 
ATOM     25  C   UNL     1       1.273  -3.673   2.987  0.00  0.00    +0.013 A 
ATOM     26  C   UNL     1       0.340  -4.545   3.509  0.00  0.00    +0.001 A 
ATOM     27  C   UNL     1      -0.776  -4.056   4.165  0.00  0.00    +0.000 A 
ATOM     28  C   UNL     1      -0.964  -2.693   4.302  0.00  0.00    +0.001 A 
ATOM     29  C   UNL     1      -0.036  -1.810   3.789  0.00  0.00    +0.013 A 
ENDBRANCH  21  24
ENDBRANCH   1  20
BRANCH   1  30
ATOM     30  C   UNL     1       3.710  -0.446  -0.023  0.00  0.00    +0.067 C 
BRANCH  30  34
ATOM     31  C   UNL     1       0.095   1.805   0.304  0.00  0.00    +0.000 A 
ATOM     32  C   UNL     1       1.317   2.447   0.374  0.00  0.00    +0.000 A 
ATOM     33  C   UNL     1       2.487   1.719   0.268  0.00  0.00    +0.004 A 
ATOM     34  C   UNL     1       2.435   0.348   0.093  0.00  0.00    -0.045 A 
ATOM     35  C   UNL     1       1.212  -0.293   0.024  0.00  0.00    +0.004 A 
ATOM     36  C   UNL     1       0.042   0.435   0.128  0.00  0.00    +0.000 A 
ENDBRANCH  30  34
ENDBRANCH   1  30
TORSDOF 9
