REMARK  Name = ZINC34107783
REMARK  6 active torsions:
REMARK  status: ('A' for Active; 'I' for Inactive)
REMARK    1  A    between atoms: C_4  and  C_7
REMARK    2  A    between atoms: C_7  and  C_8
REMARK    3  A    between atoms: C_19  and  C_20
REMARK    4  A    between atoms: C_23  and  C_25
REMARK    5  A    between atoms: C_28  and  S_31
REMARK    6  A    between atoms: S_31  and  N_34
REMARK                            x       y       z     vdW  Elec       q    Type
REMARK                         _______ _______ _______ _____ _____    ______ ____
ROOT
ATOM      1  C   UNL     1       4.171  -0.963   1.399  0.00  0.00    -0.004 C 
ATOM      2  C   UNL     1       4.462   0.372   2.087  0.00  0.00    +0.023 C 
ATOM      3  C   UNL     1       4.889   0.114   3.535  0.00  0.00    +0.107 C 
ATOM      4  N   UNL     1       6.021  -0.823   3.534  0.00  0.00    -0.311 N 
ATOM      5  C   UNL     1       5.879  -2.101   2.823  0.00  0.00    +0.107 C 
ATOM      6  C   UNL     1       5.441  -1.818   1.383  0.00  0.00    +0.023 C 
ATOM      7  C   UNL     1       7.187  -0.511   4.185  0.00  0.00    +0.154 C 
ATOM      8  N   UNL     1       7.477   0.582   4.872  0.00  0.00    -0.154 NA
ATOM      9  C   UNL     1       8.644   0.760   5.453  0.00  0.00    +0.276 C 
ATOM     10  O   UNL     1       8.900   1.774   6.085  0.00  0.00    -0.267 OA
ATOM     11  C   UNL     1       9.627  -0.333   5.302  0.00  0.00    +0.082 C 
ATOM     12  C   UNL     1      10.900  -0.436   5.784  0.00  0.00    +0.066 C 
ATOM     13  S   UNL     1       8.678  -1.485   4.317  0.00  0.00    -0.051 S 
ENDROOT
BRANCH  12  14
ATOM     14  C   UNL     1      11.666  -1.589   5.510  0.00  0.00    +0.130 A 
ATOM     15  C   UNL     1      12.961  -1.823   5.940  0.00  0.00    +0.050 A 
ATOM     16  C   UNL     1      13.330  -3.076   5.445  0.00  0.00    +0.050 A 
ATOM     17  C   UNL     1      12.254  -3.561   4.735  0.00  0.00    +0.136 A 
ATOM     18  O   UNL     1      11.261  -2.656   4.790  0.00  0.00    -0.455 OA
BRANCH  17  19
ATOM     19  C   UNL     1      12.199  -4.860   4.036  0.00  0.00    +0.017 A 
ATOM     20  C   UNL     1      13.299  -5.720   4.064  0.00  0.00    +0.013 A 
ATOM     21  C   UNL     1      13.240  -6.932   3.409  0.00  0.00    +0.029 A 
ATOM     22  C   UNL     1      12.094  -7.297   2.724  0.00  0.00    +0.105 A 
ATOM     23  C   UNL     1      11.000  -6.449   2.691  0.00  0.00    +0.029 A 
ATOM     24  C   UNL     1      11.043  -5.237   3.347  0.00  0.00    +0.013 A 
BRANCH  22  25
ATOM     25  S   UNL     1      12.027  -8.847   1.889  0.00  0.00    +0.056 S 
ATOM     26  O   UNL     1      11.047  -8.716   0.868  0.00  0.00    -0.153 OA
ATOM     27  O   UNL     1      13.371  -9.217   1.612  0.00  0.00    -0.153 OA
BRANCH  25  28
ATOM     28  N   UNL     1      11.443  -9.959   2.967  0.00  0.00    -0.204 NA
ATOM     29  H   UNL     1      10.931 -10.719   2.650  0.00  0.00    +0.144 HD
ATOM     30  H   UNL     1      11.613  -9.851   3.916  0.00  0.00    +0.144 HD
ENDBRANCH  25  28
ENDBRANCH  22  25
ENDBRANCH  17  19
ENDBRANCH  12  14
BRANCH   1  31
ATOM     31  C   UNL     1       3.711  -0.707  -0.038  0.00  0.00    +0.038 C 
BRANCH  31  35
ATOM     32  C   UNL     1      -0.017   1.378   0.010  0.00  0.00    +0.000 A 
ATOM     33  C   UNL     1       1.171   2.086   0.002  0.00  0.00    +0.000 A 
ATOM     34  C   UNL     1       2.377   1.411  -0.013  0.00  0.00    +0.003 A 
ATOM     35  C   UNL     1       2.396   0.029  -0.020  0.00  0.00    -0.047 A 
ATOM     36  C   UNL     1       1.208  -0.679  -0.012  0.00  0.00    +0.003 A 
ATOM     37  C   UNL     1       0.002  -0.004   0.002  0.00  0.00    +0.000 A 
ENDBRANCH  31  35
ENDBRANCH   1  31
TORSDOF 6
