REMARK  Name = ZINC05718875
REMARK  8 active torsions:
REMARK  status: ('A' for Active; 'I' for Inactive)
REMARK    1  A    between atoms: C_1  and  C_2
REMARK    2  A    between atoms: C_2  and  O_3
REMARK    3  A    between atoms: O_3  and  C_4
REMARK    4  A    between atoms: C_9  and  C_10
REMARK    5  A    between atoms: N_11  and  N_12
REMARK    6  A    between atoms: C_13  and  C_15
REMARK    7  A    between atoms: C_15  and  S_16
REMARK    8  A    between atoms: S_16  and  C_17
REMARK                            x       y       z     vdW  Elec       q    Type
REMARK                         _______ _______ _______ _____ _____    ______ ____
ROOT
ATOM      1  N   UNL     1       4.260   6.382  -0.005  0.00  0.00    -0.206 N 
ATOM      2  C   UNL     1       3.040   5.809   0.003  0.00  0.00    +0.242 C 
ATOM      3  O   UNL     1       2.044   6.501   0.016  0.00  0.00    -0.273 OA
ATOM      4  H   UNL     1       5.056   5.828  -0.015  0.00  0.00    +0.177 HD
ENDROOT
BRANCH   1   6
ATOM      5  C   UNL     1       5.552   8.330  -0.007  0.00  0.00    +0.142 C 
ATOM      6  N   UNL     1       4.378   7.778   0.001  0.00  0.00    -0.188 NA
BRANCH   5  12
ATOM      7  C   UNL     1       4.529  10.602   0.014  0.00  0.00    +0.129 A 
ATOM      8  C   UNL     1       4.657  11.982   0.020  0.00  0.00    +0.046 A 
ATOM      9  C   UNL     1       5.911  12.562   0.011  0.00  0.00    +0.004 A 
ATOM     10  C   UNL     1       7.048  11.771  -0.003  0.00  0.00    +0.001 A 
ATOM     11  C   UNL     1       6.939  10.397  -0.004  0.00  0.00    +0.013 A 
ATOM     12  C   UNL     1       5.676   9.798  -0.001  0.00  0.00    +0.036 A 
BRANCH   7  13
ATOM     13  O   UNL     1       3.296  10.032   0.021  0.00  0.00    -0.492 OA
BRANCH  13  15
ATOM     14  C   UNL     1       0.880  10.095   0.043  0.00  0.00    +0.048 C 
ATOM     15  C   UNL     1       2.173  10.915   0.036  0.00  0.00    +0.226 C 
ENDBRANCH  13  15
ENDBRANCH   7  13
ENDBRANCH   5  12
ENDBRANCH   1   6
BRANCH   2  16
ATOM     16  C   UNL     1       2.913   4.307  -0.003  0.00  0.00    +0.171 C 
BRANCH  16  17
ATOM     17  S   UNL     1       1.158   3.848   0.011  0.00  0.00    -0.116 S 
BRANCH  17  18
ATOM     18  C   UNL     1       1.178   2.086   0.002  0.00  0.00    +0.008 A 
ATOM     19  C   UNL     1      -0.017   1.377   0.010  0.00  0.00    +0.016 A 
ATOM     20  C   UNL     1       0.002  -0.004   0.002  0.00  0.00    +0.021 A 
ATOM     21  C   UNL     1       1.209  -0.681  -0.013  0.00  0.00    +0.041 A 
ATOM     22  C   UNL     1       2.401   0.023  -0.020  0.00  0.00    +0.021 A 
ATOM     23  C   UNL     1       2.388   1.404  -0.013  0.00  0.00    +0.016 A 
ATOM     24 CL   UNL     1       1.228  -2.417  -0.021  0.00  0.00    -0.084 Cl
ENDBRANCH  17  18
ENDBRANCH  16  17
ENDBRANCH   2  16
TORSDOF 7
