REMARK  Name = ZINC25390956
REMARK  7 active torsions:
REMARK  status: ('A' for Active; 'I' for Inactive)
REMARK    1  A    between atoms: C_1  and  N_2
REMARK    2  A    between atoms: C_9  and  C_17
REMARK    3  A    between atoms: C_10  and  C_11
REMARK    4  A    between atoms: C_17  and  C_19
REMARK    5  A    between atoms: C_19  and  N_20
REMARK    6  A    between atoms: N_23  and  S_26
REMARK    7  A    between atoms: S_26  and  C_29
REMARK                            x       y       z     vdW  Elec       q    Type
REMARK                         _______ _______ _______ _____ _____    ______ ____
ROOT
ATOM      1  C   UNL     1      -3.611   2.587   3.090  0.00  0.00    +0.150 C 
ATOM      2  O   UNL     1      -4.586   2.524   2.369  0.00  0.00    -0.294 OA
ENDROOT
BRANCH   1  11
ATOM      3  C   UNL     1      -0.013   1.086   0.008  0.00  0.00    +0.149 C 
ATOM      4  N   UNL     1      -0.698   1.558   1.213  0.00  0.00    -0.342 N 
ATOM      5  C   UNL     1      -0.079   1.823   2.419  0.00  0.00    +0.050 A 
ATOM      6  C   UNL     1       1.246   1.738   2.837  0.00  0.00    +0.026 A 
ATOM      7  C   UNL     1       1.582   2.074   4.131  0.00  0.00    +0.002 A 
ATOM      8  C   UNL     1       0.611   2.498   5.026  0.00  0.00    +0.001 A 
ATOM      9  C   UNL     1      -0.706   2.589   4.631  0.00  0.00    +0.011 A 
ATOM     10  C   UNL     1      -1.060   2.252   3.326  0.00  0.00    +0.011 A 
ATOM     11  C   UNL     1      -2.337   2.234   2.590  0.00  0.00    +0.049 A 
ATOM     12  C   UNL     1      -2.035   1.803   1.300  0.00  0.00    +0.060 A 
BRANCH  12  13
ATOM     13  C   UNL     1      -3.009   1.636   0.204  0.00  0.00    -0.001 A 
ATOM     14  C   UNL     1      -4.230   1.001   0.441  0.00  0.00    +0.010 A 
ATOM     15  C   UNL     1      -5.137   0.852  -0.588  0.00  0.00    +0.001 A 
ATOM     16  C   UNL     1      -4.835   1.320  -1.854  0.00  0.00    +0.000 A 
ATOM     17  C   UNL     1      -3.625   1.946  -2.098  0.00  0.00    +0.001 A 
ATOM     18  C   UNL     1      -2.710   2.106  -1.078  0.00  0.00    +0.010 A 
ENDBRANCH  12  13
ENDBRANCH   1  11
BRANCH   1  19
ATOM     19  C   UNL     1      -3.759   3.041   4.520  0.00  0.00    +0.002 C 
BRANCH  19  20
ATOM     20  N   UNL     1      -5.170   3.347   4.792  0.00  0.00    +0.386 N 
ATOM     21  C   UNL     1      -5.620   4.501   4.003  0.00  0.00    -0.061 C 
ATOM     22  C   UNL     1      -7.133   4.675   4.176  0.00  0.00    +0.091 C 
ATOM     23  N   UNL     1      -7.433   4.750   5.614  0.00  0.00    -0.180 NA
ATOM     24  C   UNL     1      -6.897   3.699   6.492  0.00  0.00    +0.091 C 
ATOM     25  C   UNL     1      -5.394   3.563   6.228  0.00  0.00    -0.061 C 
ATOM     26  H   UNL     1      -5.771   2.478   4.487  0.00  0.00    -0.081 HD
BRANCH  23  27
ATOM     27  S   UNL     1      -8.349   5.986   6.228  0.00  0.00    +0.061 S 
ATOM     28  O   UNL     1      -9.146   6.471   5.156  0.00  0.00    -0.153 OA
ATOM     29  O   UNL     1      -8.913   5.508   7.442  0.00  0.00    -0.153 OA
BRANCH  27  30
ATOM     30  C   UNL     1      -7.244   7.287   6.663  0.00  0.00    +0.106 A 
ATOM     31  C   UNL     1      -6.703   7.338   7.935  0.00  0.00    +0.030 A 
ATOM     32  C   UNL     1      -5.832   8.355   8.275  0.00  0.00    +0.022 A 
ATOM     33  C   UNL     1      -5.510   9.330   7.347  0.00  0.00    +0.041 A 
ATOM     34  C   UNL     1      -6.056   9.281   6.077  0.00  0.00    +0.022 A 
ATOM     35  C   UNL     1      -6.923   8.260   5.736  0.00  0.00    +0.030 A 
ATOM     36 CL   UNL     1      -4.421  10.612   7.776  0.00  0.00    -0.084 Cl
ENDBRANCH  27  30
ENDBRANCH  23  27
ENDBRANCH  19  20
ENDBRANCH   1  19
TORSDOF 6
