REMARK  Name = ZINC64836098
REMARK  6 active torsions:
REMARK  status: ('A' for Active; 'I' for Inactive)
REMARK    1  A    between atoms: C_1  and  C_2
REMARK    2  A    between atoms: N_4  and  C_9
REMARK    3  A    between atoms: C_6  and  C_8
REMARK    4  A    between atoms: C_14  and  N_15
REMARK    5  A    between atoms: C_16  and  C_18
REMARK    6  A    between atoms: C_20  and  C_23
REMARK                            x       y       z     vdW  Elec       q    Type
REMARK                         _______ _______ _______ _____ _____    ______ ____
ROOT
ATOM      1  C   UNL     1       2.819   0.533  -2.192  0.00  0.00    +0.051 A 
ATOM      2  C   UNL     1       2.853   1.920  -2.230  0.00  0.00    +0.025 A 
ATOM      3  C   UNL     1       3.505   2.567  -3.263  0.00  0.00    +0.002 A 
ATOM      4  C   UNL     1       4.125   1.836  -4.261  0.00  0.00    +0.002 A 
ATOM      5  C   UNL     1       4.095   0.454  -4.231  0.00  0.00    +0.025 A 
ATOM      6  C   UNL     1       3.449  -0.203  -3.195  0.00  0.00    +0.055 A 
ENDROOT
BRANCH   1  10
ATOM      7  C   UNL     1       0.010   1.555   0.013  0.00  0.00    +0.039 C 
ATOM      8  C   UNL     1       0.019   0.025   0.005  0.00  0.00    +0.133 C 
ATOM      9  C   UNL     1       0.736  -0.477  -1.253  0.00  0.00    +0.136 C 
ATOM     10  N   UNL     1       2.161  -0.124  -1.147  0.00  0.00    -0.324 N 
ATOM     11  C   UNL     1       2.872  -0.482   0.090  0.00  0.00    +0.136 C 
ATOM     12  C   UNL     1       2.050   0.020   1.283  0.00  0.00    +0.133 C 
ATOM     13  O   UNL     1       0.707  -0.455   1.163  0.00  0.00    -0.371 OA
ATOM     14  C   UNL     1       2.663  -0.505   2.583  0.00  0.00    +0.039 C 
ENDBRANCH   1  10
BRANCH   6  15
ATOM     15  N   UNL     1       3.423  -1.603  -3.160  0.00  0.00    -0.279 N 
ATOM     16  C   UNL     1       3.355  -2.305  -4.308  0.00  0.00    +0.270 C 
ATOM     17  O   UNL     1       3.397  -1.728  -5.377  0.00  0.00    -0.268 OA
ATOM     18  H   UNL     1       3.455  -2.067  -2.309  0.00  0.00    +0.155 HD
BRANCH  16  19
ATOM     19  C   UNL     1       3.228  -3.782  -4.268  0.00  0.00    +0.169 A 
ATOM     20  C   UNL     1       3.152  -4.638  -5.386  0.00  0.00    +0.089 A 
ATOM     21  C   UNL     1       3.043  -5.918  -4.927  0.00  0.00    +0.203 A 
ATOM     22  O   UNL     1       3.050  -5.876  -3.581  0.00  0.00    -0.351 OA
ATOM     23  N   UNL     1       3.172  -4.522  -3.185  0.00  0.00    -0.073 NA
BRANCH  21  24
ATOM     24  C   UNL     1       2.937  -7.128  -5.755  0.00  0.00    +0.172 A 
ATOM     25  C   UNL     1       2.823  -8.406  -5.294  0.00  0.00    +0.053 A 
ATOM     26  C   UNL     1       2.751  -9.239  -6.426  0.00  0.00    +0.042 A 
ATOM     27  C   UNL     1       2.823  -8.441  -7.511  0.00  0.00    +0.196 A 
ATOM     28  O   UNL     1       2.930  -7.167  -7.103  0.00  0.00    -0.460 OA
ENDBRANCH  21  24
ENDBRANCH  16  19
ENDBRANCH   6  15
TORSDOF 4
