REMARK  Name = ZINC04600176
REMARK  6 active torsions:
REMARK  status: ('A' for Active; 'I' for Inactive)
REMARK    1  A    between atoms: C_7  and  N_13
REMARK    2  A    between atoms: C_14  and  C_16
REMARK    3  A    between atoms: C_16  and  C_17
REMARK    4  A    between atoms: C_17  and  C_18
REMARK    5  A    between atoms: N_20  and  C_21
REMARK    6  A    between atoms: C_21  and  C_22
REMARK                            x       y       z     vdW  Elec       q    Type
REMARK                         _______ _______ _______ _____ _____    ______ ____
ROOT
ATOM      1  N   UNL     1       2.351   0.937   0.147  0.00  0.00    -0.312 N 
ATOM      2  C   UNL     1       3.193   0.626  -0.859  0.00  0.00    +0.214 C 
ATOM      3  O   UNL     1       3.178   1.272  -1.885  0.00  0.00    -0.276 OA
ATOM      4  H   UNL     1       2.364   0.420   0.967  0.00  0.00    +0.149 HD
ENDROOT
BRANCH   1  11
ATOM      5  C   UNL     1       1.637  -0.728   4.144  0.00  0.00    -0.000 C 
ATOM      6  C   UNL     1       0.173  -0.868   3.724  0.00  0.00    +0.000 C 
ATOM      7  C   UNL     1       0.102  -1.377   2.283  0.00  0.00    +0.000 C 
ATOM      8  C   UNL     1      -0.778  -0.440   1.454  0.00  0.00    +0.000 C 
ATOM      9  C   UNL     1      -0.009   0.014   0.211  0.00  0.00    +0.002 C 
ATOM     10  C   UNL     1      -0.018   1.542   0.135  0.00  0.00    +0.022 C 
ATOM     11  C   UNL     1       1.417   2.055  -0.000  0.00  0.00    +0.073 C 
ATOM     12  C   UNL     1       1.692   3.096   1.087  0.00  0.00    +0.022 C 
ATOM     13  C   UNL     1       2.953   2.704   1.860  0.00  0.00    +0.002 C 
ATOM     14  C   UNL     1       2.642   2.667   3.358  0.00  0.00    +0.000 C 
ATOM     15  C   UNL     1       3.063   1.313   3.932  0.00  0.00    +0.000 C 
ATOM     16  C   UNL     1       1.883   0.685   4.676  0.00  0.00    +0.000 C 
ENDBRANCH   1  11
BRANCH   2  17
ATOM     17  C   UNL     1       4.155  -0.525  -0.707  0.00  0.00    +0.105 C 
BRANCH  17  18
ATOM     18  C   UNL     1       4.990  -0.663  -1.982  0.00  0.00    +0.105 C 
BRANCH  18  19
ATOM     19  C   UNL     1       5.951  -1.814  -1.831  0.00  0.00    +0.214 C 
ATOM     20  O   UNL     1       5.966  -2.460  -0.804  0.00  0.00    -0.276 OA
ATOM     21  N   UNL     1       6.793  -2.125  -2.836  0.00  0.00    -0.307 N 
ATOM     22  H   UNL     1       6.781  -1.608  -3.656  0.00  0.00    +0.149 HD
BRANCH  21  23
ATOM     23  C   UNL     1       7.728  -3.244  -2.689  0.00  0.00    +0.199 C 
BRANCH  23  24
ATOM     24  C   UNL     1       8.550  -3.380  -3.944  0.00  0.00    +0.228 C 
ATOM     25  O   UNL     1       8.373  -2.617  -4.870  0.00  0.00    -0.274 OA
ATOM     26  N   UNL     1       9.482  -4.348  -4.037  0.00  0.00    -0.328 N 
ATOM     27  H   UNL     1       9.624  -4.958  -3.297  0.00  0.00    +0.145 HD
ATOM     28  H   UNL     1      10.012  -4.436  -4.846  0.00  0.00    +0.145 HD
ENDBRANCH  23  24
ENDBRANCH  21  23
ENDBRANCH  18  19
ENDBRANCH  17  18
ENDBRANCH   2  17
TORSDOF 6
