REMARK  Name = ZINC40341352
REMARK  9 active torsions:
REMARK  status: ('A' for Active; 'I' for Inactive)
REMARK    1  A    between atoms: C_1  and  C_2
REMARK    2  A    between atoms: C_2  and  C_3
REMARK    3  A    between atoms: C_3  and  O_4
REMARK    4  A    between atoms: O_4  and  C_5
REMARK    5  A    between atoms: C_8  and  C_11
REMARK    6  A    between atoms: C_14  and  C_32
REMARK    7  A    between atoms: N_21  and  C_22
REMARK    8  A    between atoms: C_22  and  C_23
REMARK    9  A    between atoms: C_35  and  C_38
REMARK                            x       y       z     vdW  Elec       q    Type
REMARK                         _______ _______ _______ _____ _____    ______ ____
ROOT
ATOM      1  C   UNL     1       3.240  -4.426  -5.648  0.00  0.00    +0.142 C 
ATOM      2  C   UNL     1       4.618  -4.889  -5.263  0.00  0.00    +0.035 A 
ATOM      3  C   UNL     1       5.896  -4.541  -4.811  0.00  0.00    +0.099 A 
ATOM      4  N   UNL     1       6.598  -5.653  -4.721  0.00  0.00    -0.173 NA
ATOM      5  N   UNL     1       5.891  -6.668  -5.071  0.00  0.00    -0.272 N 
ATOM      6  H   UNL     1       6.203  -7.587  -5.083  0.00  0.00    +0.189 HD
ATOM      7  C   UNL     1       4.636  -6.261  -5.424  0.00  0.00    +0.126 A 
ATOM      8  C   UNL     1       3.317  -6.692  -5.899  0.00  0.00    +0.266 C 
ATOM      9  O   UNL     1       3.007  -7.844  -6.138  0.00  0.00    -0.268 OA
ATOM     10  N   UNL     1       2.497  -5.632  -6.034  0.00  0.00    -0.281 N 
ENDROOT
BRANCH   3  11
ATOM     11  C   UNL     1       6.373  -3.172  -4.492  0.00  0.00    +0.002 A 
ATOM     12  C   UNL     1       5.917  -2.083  -5.232  0.00  0.00    +0.010 A 
ATOM     13  C   UNL     1       6.364  -0.812  -4.931  0.00  0.00    +0.004 A 
ATOM     14  C   UNL     1       7.262  -0.619  -3.897  0.00  0.00    -0.050 A 
ATOM     15  C   UNL     1       7.718  -1.697  -3.160  0.00  0.00    +0.004 A 
ATOM     16  C   UNL     1       7.274  -2.971  -3.449  0.00  0.00    +0.010 A 
ATOM     17  C   UNL     1       7.746   0.771  -3.574  0.00  0.00    +0.044 C 
ENDBRANCH   3  11
BRANCH   1  21
ATOM     18  C   UNL     1       1.341  -2.529  -2.322  0.00  0.00    +0.121 A 
ATOM     19  C   UNL     1       1.909  -1.762  -3.329  0.00  0.00    +0.046 A 
ATOM     20  C   UNL     1       2.522  -2.377  -4.403  0.00  0.00    +0.009 A 
ATOM     21  C   UNL     1       2.571  -3.757  -4.475  0.00  0.00    -0.022 A 
ATOM     22  C   UNL     1       2.006  -4.524  -3.473  0.00  0.00    +0.009 A 
ATOM     23  C   UNL     1       1.397  -3.914  -2.394  0.00  0.00    +0.046 A 
BRANCH  18  24
ATOM     24  O   UNL     1       0.738  -1.926  -1.265  0.00  0.00    -0.492 OA
BRANCH  24  25
ATOM     25  C   UNL     1       0.718  -0.497  -1.257  0.00  0.00    +0.229 C 
BRANCH  25  27
ATOM     26  C   UNL     1      -0.019   1.526   0.010  0.00  0.00    +0.007 C 
ATOM     27  C   UNL     1       0.002  -0.004   0.002  0.00  0.00    +0.038 C 
ENDBRANCH  25  27
ENDBRANCH  24  25
ENDBRANCH  18  24
ENDBRANCH   1  21
BRANCH  10  28
ATOM     28  C   UNL     1       1.104  -5.674  -6.487  0.00  0.00    +0.144 C 
BRANCH  28  29
ATOM     29  C   UNL     1       1.059  -5.525  -7.986  0.00  0.00    -0.026 A 
ATOM     30  C   UNL     1       0.968  -4.267  -8.551  0.00  0.00    +0.009 A 
ATOM     31  C   UNL     1       0.926  -4.125  -9.925  0.00  0.00    +0.050 A 
ATOM     32  C   UNL     1       0.975  -5.245 -10.740  0.00  0.00    +0.166 A 
ATOM     33  C   UNL     1       1.066  -6.512 -10.170  0.00  0.00    +0.167 A 
ATOM     34  C   UNL     1       1.113  -6.647  -8.792  0.00  0.00    +0.054 A 
ATOM     35  O   UNL     1       1.098  -7.439 -11.172  0.00  0.00    -0.453 OA
ATOM     36  C   UNL     1       0.615  -6.756 -12.343  0.00  0.00    +0.466 C 
ATOM     37  O   UNL     1       0.950  -5.378 -12.098  0.00  0.00    -0.453 OA
ENDBRANCH  28  29
ENDBRANCH  10  28
TORSDOF 7
