REMARK  Name = ZINC06188879
REMARK  8 active torsions:
REMARK  status: ('A' for Active; 'I' for Inactive)
REMARK    1  A    between atoms: C_1  and  C_2
REMARK    2  A    between atoms: C_4  and  O_10
REMARK    3  A    between atoms: C_6  and  C_9
REMARK    4  A    between atoms: O_10  and  C_11
REMARK    5  A    between atoms: C_11  and  C_13
REMARK    6  A    between atoms: C_11  and  C_14
REMARK    7  A    between atoms: N_16  and  N_17
REMARK    8  A    between atoms: C_18  and  C_19
REMARK                            x       y       z     vdW  Elec       q    Type
REMARK                         _______ _______ _______ _____ _____    ______ ____
ROOT
ATOM      1  C   UNL     1       5.992   1.769  -0.293  0.00  0.00    +0.273 C 
ATOM      2  O   UNL     1       6.000   2.971  -0.457  0.00  0.00    -0.270 OA
ATOM      3  N   UNL     1       4.826   1.093  -0.325  0.00  0.00    -0.204 N 
ATOM      4  H   UNL     1       4.819   0.132  -0.194  0.00  0.00    +0.177 HD
ENDROOT
BRANCH   1   5
ATOM      5  C   UNL     1       7.284   1.032  -0.052  0.00  0.00    +0.257 C 
ATOM      6  C   UNL     1       7.553   0.081  -1.220  0.00  0.00    +0.062 C 
BRANCH   5   7
ATOM      7  O   UNL     1       8.355   1.972   0.053  0.00  0.00    -0.480 OA
BRANCH   7  11
ATOM      8  C   UNL     1      12.713   3.057   1.964  0.00  0.00    +0.045 C 
ATOM      9  C   UNL     1      11.595   2.081   1.706  0.00  0.00    -0.028 A 
ATOM     10  C   UNL     1      10.482   2.480   0.992  0.00  0.00    +0.050 A 
ATOM     11  C   UNL     1       9.452   1.581   0.755  0.00  0.00    +0.122 A 
ATOM     12  C   UNL     1       9.540   0.284   1.241  0.00  0.00    +0.050 A 
ATOM     13  C   UNL     1      10.657  -0.112   1.950  0.00  0.00    -0.028 A 
ATOM     14  C   UNL     1      11.683   0.786   2.185  0.00  0.00    +0.047 A 
ATOM     15 CL   UNL     1      13.083   0.287   3.082  0.00  0.00    -0.083 Cl
ATOM     16  C   UNL     1      10.756  -1.522   2.473  0.00  0.00    +0.045 C 
ENDBRANCH   7  11
ENDBRANCH   5   7
ENDBRANCH   1   5
BRANCH   3  17
ATOM     17  N   UNL     1       3.625   1.778  -0.549  0.00  0.00    -0.188 NA
ATOM     18  C   UNL     1       2.503   1.128  -0.580  0.00  0.00    +0.138 C 
BRANCH  18  19
ATOM     19  C   UNL     1       1.238   1.849  -0.816  0.00  0.00    -0.005 A 
ATOM     20  C   UNL     1       0.028   1.151  -0.850  0.00  0.00    +0.011 A 
ATOM     21  C   UNL     1      -1.150   1.831  -1.075  0.00  0.00    +0.020 A 
ATOM     22  C   UNL     1      -1.137   3.204  -1.257  0.00  0.00    +0.041 A 
ATOM     23  C   UNL     1       0.059   3.902  -1.224  0.00  0.00    +0.020 A 
ATOM     24  C   UNL     1       1.245   3.233  -1.005  0.00  0.00    +0.011 A 
ATOM     25 CL   UNL     1      -2.626   4.053  -1.534  0.00  0.00    -0.084 Cl
ENDBRANCH  18  19
ENDBRANCH   3  17
TORSDOF 5
