REMARK  Name = ZINC50053236
REMARK  10 active torsions:
REMARK  status: ('A' for Active; 'I' for Inactive)
REMARK    1  A    between atoms: C_1  and  C_2
REMARK    2  A    between atoms: C_2  and  C_3
REMARK    3  A    between atoms: C_2  and  C_4
REMARK    4  A    between atoms: C_4  and  N_5
REMARK    5  A    between atoms: C_6  and  C_8
REMARK    6  A    between atoms: C_8  and  N_9
REMARK    7  A    between atoms: N_12  and  C_13
REMARK    8  A    between atoms: C_18  and  S_19
REMARK    9  A    between atoms: S_19  and  C_20
REMARK   10  A    between atoms: C_20  and  C_22
REMARK                            x       y       z     vdW  Elec       q    Type
REMARK                         _______ _______ _______ _____ _____    ______ ____
ROOT
ATOM      1  N   UNL     1      -4.086  -4.291  -0.493  0.00  0.00    -0.291 N 
ATOM      2  C   UNL     1      -4.231  -5.631  -0.480  0.00  0.00    +0.304 C 
ATOM      3  O   UNL     1      -3.249  -6.349  -0.507  0.00  0.00    -0.252 OA
ATOM      4  N   UNL     1      -5.463  -6.175  -0.437  0.00  0.00    -0.268 N 
ATOM      5  H   UNL     1      -4.869  -3.719  -0.471  0.00  0.00    +0.151 HD
ATOM      6  H   UNL     1      -6.242  -5.605  -0.347  0.00  0.00    +0.156 HD
ENDROOT
BRANCH   4   7
ATOM      7  C   UNL     1      -5.618  -7.566  -0.522  0.00  0.00    +0.048 A 
ATOM      8  C   UNL     1      -4.663  -8.407   0.029  0.00  0.00    +0.024 A 
ATOM      9  C   UNL     1      -4.818  -9.778  -0.057  0.00  0.00    +0.002 A 
ATOM     10  C   UNL     1      -5.923 -10.316  -0.690  0.00  0.00    +0.001 A 
ATOM     11  C   UNL     1      -6.881  -9.485  -1.242  0.00  0.00    +0.016 A 
ATOM     12  C   UNL     1      -6.737  -8.108  -1.155  0.00  0.00    +0.031 A 
BRANCH  12  13
ATOM     13  S   UNL     1      -7.959  -7.046  -1.851  0.00  0.00    -0.095 S 
BRANCH  13  14
ATOM     14  C   UNL     1      -7.194  -6.437  -3.378  0.00  0.00    +0.246 C 
ATOM     15 CL   UNL     1      -5.786  -7.481  -3.803  0.00  0.00    -0.100 Cl
BRANCH  14  16
ATOM     16  C   UNL     1      -8.219  -6.477  -4.513  0.00  0.00    +0.415 C 
ATOM     17  F   UNL     1      -9.311  -5.667  -4.184  0.00  0.00    -0.168 F 
ATOM     18  F   UNL     1      -7.629  -6.007  -5.692  0.00  0.00    -0.168 F 
ATOM     19  F   UNL     1      -8.655  -7.793  -4.702  0.00  0.00    -0.168 F 
ENDBRANCH  14  16
ENDBRANCH  13  14
ENDBRANCH  12  13
ENDBRANCH   4   7
BRANCH   1  20
ATOM     20  C   UNL     1      -2.747  -3.699  -0.540  0.00  0.00    +0.201 C 
BRANCH  20  22
ATOM     21  N   UNL     1      -1.750  -1.436  -0.587  0.00  0.00    -0.314 N 
ATOM     22  C   UNL     1      -2.861  -2.197  -0.546  0.00  0.00    +0.230 C 
ATOM     23  O   UNL     1      -3.954  -1.672  -0.514  0.00  0.00    -0.274 OA
ATOM     24  H   UNL     1      -0.875  -1.856  -0.612  0.00  0.00    +0.149 HD
BRANCH  21  25
ATOM     25  C   UNL     1      -1.861   0.025  -0.592  0.00  0.00    +0.107 C 
BRANCH  25  27
ATOM     26  C   UNL     1      -0.581   2.163  -0.773  0.00  0.00    +0.009 C 
ATOM     27  C   UNL     1      -0.462   0.643  -0.641  0.00  0.00    -0.000 C 
ATOM     28  C   UNL     1       0.292   0.299   0.645  0.00  0.00    +0.009 C 
ENDBRANCH  25  27
ENDBRANCH  21  25
ENDBRANCH  20  22
ENDBRANCH   1  20
TORSDOF 8
