REMARK  Name = ZINC22221661
REMARK  13 active torsions:
REMARK  status: ('A' for Active; 'I' for Inactive)
REMARK    1  A    between atoms: C_1  and  C_2
REMARK    2  A    between atoms: C_2  and  O_3
REMARK    3  A    between atoms: O_3  and  C_4
REMARK    4  A    between atoms: C_7  and  C_10
REMARK    5  A    between atoms: C_13  and  S_16
REMARK    6  A    between atoms: N_14  and  N_15
REMARK    7  A    between atoms: S_16  and  C_17
REMARK    8  A    between atoms: C_17  and  C_18
REMARK    9  A    between atoms: C_21  and  C_23
REMARK   10  A    between atoms: C_27  and  O_31
REMARK   11  A    between atoms: C_28  and  O_29
REMARK   12  A    between atoms: O_29  and  C_30
REMARK   13  A    between atoms: O_31  and  C_32
REMARK                            x       y       z     vdW  Elec       q    Type
REMARK                         _______ _______ _______ _____ _____    ______ ____
ROOT
ATOM      1  C   UNL     1     -10.377   3.107   1.742  0.00  0.00    +0.182 A 
ATOM      2  N   UNL     1     -10.105   3.005   0.462  0.00  0.00    -0.127 NA
ATOM      3  N   UNL     1      -8.917   2.542   0.301  0.00  0.00    -0.121 NA
ATOM      4  C   UNL     1      -8.357   2.320   1.469  0.00  0.00    +0.209 A 
ATOM      5  N   UNL     1      -9.268   2.666   2.427  0.00  0.00    -0.224 N 
ENDROOT
BRANCH   1   9
ATOM      6  C   UNL     1     -14.005   4.515   3.449  0.00  0.00    +0.121 A 
ATOM      7  C   UNL     1     -13.960   4.169   2.104  0.00  0.00    +0.046 A 
ATOM      8  C   UNL     1     -12.785   3.712   1.547  0.00  0.00    +0.015 A 
ATOM      9  C   UNL     1     -11.639   3.597   2.336  0.00  0.00    +0.021 A 
ATOM     10  C   UNL     1     -11.689   3.941   3.688  0.00  0.00    +0.015 A 
ATOM     11  C   UNL     1     -12.867   4.402   4.236  0.00  0.00    +0.046 A 
BRANCH   6  12
ATOM     12  O   UNL     1     -15.164   4.965   3.994  0.00  0.00    -0.492 OA
BRANCH  12  14
ATOM     13  C   UNL     1     -16.526   5.787   5.814  0.00  0.00    +0.048 C 
ATOM     14  C   UNL     1     -15.140   5.304   5.383  0.00  0.00    +0.225 C 
ENDBRANCH  12  14
ENDBRANCH   6  12
ENDBRANCH   1   9
BRANCH   5  15
ATOM     15  N   UNL     1      -9.110   2.592   3.781  0.00  0.00    -0.295 N 
ATOM     16  H   UNL     1      -8.166   2.219   4.205  0.00  0.00    +0.163 HD
ATOM     17  H   UNL     1      -9.926   2.907   4.448  0.00  0.00    +0.163 HD
ENDBRANCH   5  15
BRANCH   4  18
ATOM     18  S   UNL     1      -6.737   1.686   1.748  0.00  0.00    -0.078 S 
BRANCH  18  19
ATOM     19  C   UNL     1      -6.183   1.476   0.038  0.00  0.00    +0.133 C 
BRANCH  19  20
ATOM     20  C   UNL     1      -4.779   0.928   0.028  0.00  0.00    +0.059 A 
ATOM     21  C   UNL     1      -4.573  -0.415   0.020  0.00  0.00    +0.071 A 
ATOM     22  S   UNL     1      -2.786  -0.475   0.012  0.00  0.00    -0.075 S 
ATOM     23  C   UNL     1      -2.509   1.291   0.020  0.00  0.00    +0.112 A 
ATOM     24  N   UNL     1      -3.753   1.747   0.034  0.00  0.00    -0.243 NA
BRANCH  23  25
ATOM     25  C   UNL     1      -1.235   2.041   0.019  0.00  0.00    +0.052 A 
ATOM     26  C   UNL     1      -1.243   3.437   0.033  0.00  0.00    +0.014 A 
ATOM     27  C   UNL     1      -0.053   4.134   0.025  0.00  0.00    +0.004 A 
ATOM     28  C   UNL     1       1.153   3.455   0.010  0.00  0.00    +0.049 A 
ATOM     29  C   UNL     1       1.176   2.069   0.002  0.00  0.00    +0.162 A 
ATOM     30  C   UNL     1      -0.016   1.355   0.009  0.00  0.00    +0.171 A 
BRANCH  30  31
ATOM     31  O   UNL     1       0.002  -0.004   0.002  0.00  0.00    -0.491 OA
ATOM     32  C   UNL     1       0.023  -0.660   1.272  0.00  0.00    +0.277 C 
ENDBRANCH  30  31
BRANCH  29  33
ATOM     33  O   UNL     1       2.365   1.409  -0.013  0.00  0.00    -0.491 OA
ATOM     34  C   UNL     1       3.550   2.206  -0.020  0.00  0.00    +0.277 C 
ENDBRANCH  29  33
ENDBRANCH  23  25
ENDBRANCH  19  20
ENDBRANCH  18  19
ENDBRANCH   4  18
TORSDOF 10
