REMARK  Name = ZINC13844365
REMARK  12 active torsions:
REMARK  status: ('A' for Active; 'I' for Inactive)
REMARK    1  A    between atoms: C_1  and  C_2
REMARK    2  A    between atoms: C_5  and  C_38
REMARK    3  A    between atoms: N_8  and  C_10
REMARK    4  A    between atoms: C_10  and  C_11
REMARK    5  A    between atoms: C_11  and  C_12
REMARK    6  A    between atoms: C_12  and  N_13
REMARK    7  A    between atoms: C_14  and  C_16
REMARK    8  A    between atoms: C_16  and  C_18
REMARK    9  A    between atoms: C_16  and  N_28
REMARK   10  A    between atoms: C_18  and  C_19
REMARK   11  A    between atoms: C_29  and  C_31
REMARK   12  A    between atoms: C_34  and  C_37
REMARK                            x       y       z     vdW  Elec       q    Type
REMARK                         _______ _______ _______ _____ _____    ______ ____
ROOT
ATOM      1  C   UNL     1       7.669  -1.998   3.841  0.00  0.00    +0.163 C 
ENDROOT
BRANCH   1   3
ATOM      2  N   UNL     1       5.327  -1.737   3.088  0.00  0.00    -0.314 N 
ATOM      3  C   UNL     1       6.194  -2.281   3.965  0.00  0.00    +0.234 C 
ATOM      4  O   UNL     1       5.787  -2.999   4.854  0.00  0.00    -0.274 OA
ATOM      5  H   UNL     1       5.653  -1.163   2.377  0.00  0.00    +0.149 HD
BRANCH   2   6
ATOM      6  C   UNL     1       3.893  -2.012   3.208  0.00  0.00    +0.102 C 
BRANCH   6   7
ATOM      7  C   UNL     1       3.138  -1.279   2.098  0.00  0.00    +0.000 C 
BRANCH   7   8
ATOM      8  C   UNL     1       1.641  -1.566   2.224  0.00  0.00    -0.077 C 
BRANCH   8  14
ATOM      9  C   UNL     1       0.523   2.833   0.391  0.00  0.00    +0.005 C 
ATOM     10  C   UNL     1       0.374   1.323   0.192  0.00  0.00    -0.031 C 
ATOM     11  C   UNL     1      -1.112   0.955   0.168  0.00  0.00    +0.003 C 
ATOM     12  C   UNL     1      -1.248  -0.566   0.047  0.00  0.00    -0.031 C 
ATOM     13  C   UNL     1      -0.503  -1.233   1.206  0.00  0.00    -0.076 C 
ATOM     14  N   UNL     1       0.916  -0.862   1.157  0.00  0.00    +0.380 N 
ATOM     15  C   UNL     1       1.060   0.586   1.344  0.00  0.00    -0.076 C 
ATOM     16  C   UNL     1      -2.728  -0.952   0.100  0.00  0.00    +0.005 C 
ATOM     17  H   UNL     1       1.301  -1.124   0.262  0.00  0.00    -0.082 HD
ENDBRANCH   8  14
ENDBRANCH   7   8
ENDBRANCH   6   7
ENDBRANCH   2   6
ENDBRANCH   1   3
BRANCH   1  18
ATOM     18  N   UNL     1       8.392  -2.700   4.905  0.00  0.00    -0.303 N 
ATOM     19  C   UNL     1       9.659  -3.112   4.700  0.00  0.00    +0.217 C 
ATOM     20  O   UNL     1      10.197  -2.909   3.633  0.00  0.00    -0.275 OA
ATOM     21  H   UNL     1       7.959  -2.869   5.756  0.00  0.00    +0.149 HD
BRANCH  19  22
ATOM     22  C   UNL     1      10.406  -3.825   5.797  0.00  0.00    +0.075 C 
ATOM     23  C   UNL     1      10.064  -3.187   7.145  0.00  0.00    +0.013 C 
ATOM     24  C   UNL     1      10.470  -1.712   7.128  0.00  0.00    +0.004 C 
ATOM     25  C   UNL     1      11.975  -1.599   6.877  0.00  0.00    -0.014 C 
ATOM     26  C   UNL     1      12.316  -2.238   5.529  0.00  0.00    +0.004 C 
ATOM     27  C   UNL     1      11.911  -3.713   5.546  0.00  0.00    +0.013 C 
ATOM     28  C   UNL     1      12.380  -0.124   6.859  0.00  0.00    +0.007 C 
ENDBRANCH  19  22
ENDBRANCH   1  18
BRANCH   1  29
ATOM     29  C   UNL     1       7.912  -0.493   3.968  0.00  0.00    +0.069 C 
BRANCH  29  30
ATOM     30  C   UNL     1       9.346  -0.185   3.622  0.00  0.00    -0.020 A 
ATOM     31  C   UNL     1       9.941  -0.195   2.284  0.00  0.00    +0.003 A 
ATOM     32  C   UNL     1       9.450  -0.463   1.005  0.00  0.00    +0.010 A 
ATOM     33  C   UNL     1      10.286  -0.384  -0.073  0.00  0.00    +0.001 A 
ATOM     34  C   UNL     1      11.620  -0.041   0.093  0.00  0.00    +0.002 A 
ATOM     35  C   UNL     1      12.127   0.227   1.346  0.00  0.00    +0.026 A 
ATOM     36  C   UNL     1      11.294   0.153   2.458  0.00  0.00    +0.047 A 
ATOM     37  N   UNL     1      11.491   0.357   3.805  0.00  0.00    -0.360 N 
ATOM     38  C   UNL     1      10.318   0.157   4.482  0.00  0.00    +0.087 A 
ATOM     39  H   UNL     1      12.334   0.609   4.213  0.00  0.00    +0.165 HD
ENDBRANCH  29  30
ENDBRANCH   1  29
TORSDOF 9
