REMARK  Name = ZINC11904190
REMARK  12 active torsions:
REMARK  status: ('A' for Active; 'I' for Inactive)
REMARK    1  A    between atoms: C_1  and  C_2
REMARK    2  A    between atoms: C_5  and  C_8
REMARK    3  A    between atoms: C_8  and  C_10
REMARK    4  A    between atoms: C_8  and  N_59
REMARK    5  A    between atoms: C_10  and  N_11
REMARK    6  A    between atoms: N_11  and  S_12
REMARK    7  A    between atoms: S_12  and  C_15
REMARK    8  A    between atoms: C_17  and  N_23
REMARK    9  A    between atoms: C_20  and  O_21
REMARK   10  A    between atoms: O_21  and  C_22
REMARK   11  A    between atoms: C_31  and  N_59
REMARK   12  A    between atoms: C_32  and  N_59
REMARK                            x       y       z     vdW  Elec       q    Type
REMARK                         _______ _______ _______ _____ _____    ______ ____
ROOT
ATOM      1  S   UNL     1       0.426   5.905  -0.498  0.00  0.00    +0.062 S 
ATOM      2  O   UNL     1      -0.238   6.294   0.697  0.00  0.00    -0.153 OA
ATOM      3  O   UNL     1       1.730   6.363  -0.828  0.00  0.00    -0.153 OA
ENDROOT
BRANCH   1   4
ATOM      4  C   UNL     1       0.499   4.145  -0.484  0.00  0.00    +0.148 A 
ATOM      5  C   UNL     1       1.693   3.501  -0.742  0.00  0.00    +0.057 A 
ATOM      6  C   UNL     1       1.750   2.114  -0.731  0.00  0.00    +0.061 A 
ATOM      7  C   UNL     1       0.606   1.375  -0.460  0.00  0.00    +0.029 A 
ATOM      8  C   UNL     1      -0.589   2.019  -0.208  0.00  0.00    +0.049 A 
ATOM      9  C   UNL     1      -0.644   3.406  -0.213  0.00  0.00    +0.146 A 
BRANCH   6  10
ATOM     10  N   UNL     1       2.961   1.460  -0.993  0.00  0.00    -0.144 N 
ATOM     11  C   UNL     1       4.188   1.971  -0.814  0.00  0.00    +0.240 C 
ATOM     12  O   UNL     1       4.336   3.086  -0.360  0.00  0.00    -0.274 OA
ATOM     13  C   UNL     1       5.373   1.130  -1.183  0.00  0.00    +0.122 C 
ATOM     14  C   UNL     1       4.925  -0.353  -1.269  0.00  0.00    +0.198 C 
ATOM     15  S   UNL     1       3.132  -0.095  -1.591  0.00  0.00    +0.052 S 
ATOM     16  O   UNL     1       2.341  -0.920  -0.747  0.00  0.00    -0.155 OA
ATOM     17  O   UNL     1       2.875  -0.001  -2.985  0.00  0.00    -0.155 OA
ENDBRANCH   6  10
BRANCH   9  18
ATOM     18  O   UNL     1      -1.819   4.040   0.042  0.00  0.00    -0.493 OA
ATOM     19  C   UNL     1      -2.955   3.217   0.313  0.00  0.00    +0.277 C 
ENDBRANCH   9  18
ENDBRANCH   1   4
BRANCH   1  20
ATOM     20  N   UNL     1      -0.561   6.345  -1.752  0.00  0.00    -0.191 NA
ATOM     21  H   UNL     1      -0.198   6.837  -2.506  0.00  0.00    +0.148 HD
BRANCH  20  22
ATOM     22  C   UNL     1      -1.982   5.990  -1.725  0.00  0.00    +0.095 C 
BRANCH  22  23
ATOM     23  C   UNL     1      -2.748   6.879  -2.707  0.00  0.00    -0.023 C 
BRANCH  23  28
ATOM     24  C   UNL     1      -8.338   5.413  -2.671  0.00  0.00    +0.044 C 
ATOM     25  C   UNL     1      -6.881   5.796  -2.680  0.00  0.00    -0.050 A 
ATOM     26  C   UNL     1      -6.070   5.405  -3.730  0.00  0.00    +0.003 A 
ATOM     27  C   UNL     1      -4.733   5.756  -3.739  0.00  0.00    +0.002 A 
ATOM     28  C   UNL     1      -4.206   6.497  -2.698  0.00  0.00    -0.060 A 
ATOM     29  C   UNL     1      -5.015   6.884  -1.645  0.00  0.00    +0.002 A 
ATOM     30  C   UNL     1      -6.354   6.538  -1.639  0.00  0.00    +0.003 A 
ENDBRANCH  23  28
BRANCH  23  33
ATOM     31  C   UNL     1      -2.415   8.403  -0.855  0.00  0.00    -0.096 C 
ATOM     32  C   UNL     1      -1.512   8.934  -3.038  0.00  0.00    -0.096 C 
ATOM     33  N   UNL     1      -2.633   8.299  -2.313  0.00  0.00    +0.381 N 
ATOM     34  H   UNL     1      -3.504   8.785  -2.555  0.00  0.00    -0.082 HD
ENDBRANCH  23  33
ENDBRANCH  22  23
ENDBRANCH  20  22
ENDBRANCH   1  20
TORSDOF 8
