REMARK  Name = ZINC35921785
REMARK  14 active torsions:
REMARK  status: ('A' for Active; 'I' for Inactive)
REMARK    1  A    between atoms: C_1  and  C_2
REMARK    2  A    between atoms: C_2  and  N_3
REMARK    3  A    between atoms: C_8  and  C_19
REMARK    4  A    between atoms: N_10  and  C_11
REMARK    5  A    between atoms: C_16  and  O_17
REMARK    6  A    between atoms: O_17  and  C_18
REMARK    7  A    between atoms: C_19  and  N_20
REMARK    8  A    between atoms: N_20  and  C_21
REMARK    9  A    between atoms: C_21  and  C_22
REMARK   10  A    between atoms: C_22  and  O_23
REMARK   11  A    between atoms: O_23  and  C_24
REMARK   12  A    between atoms: C_25  and  C_27
REMARK   13  A    between atoms: C_32  and  O_33
REMARK   14  A    between atoms: O_33  and  C_34
REMARK                            x       y       z     vdW  Elec       q    Type
REMARK                         _______ _______ _______ _____ _____    ______ ____
ROOT
ATOM      1  N   UNL     1      -0.128  -0.613   0.447  0.00  0.00    +0.383 N 
ATOM      2  C   UNL     1      -0.789   0.185  -0.593  0.00  0.00    -0.072 C 
ATOM      3  C   UNL     1       0.258   0.718  -1.581  0.00  0.00    +0.037 C 
ATOM      4  C   UNL     1       1.119  -0.446  -2.007  0.00  0.00    +0.045 A 
ATOM      5  C   UNL     1       1.142  -1.631  -1.340  0.00  0.00    -0.018 A 
ATOM      6  C   UNL     1       2.030  -2.475  -1.997  0.00  0.00    +0.082 A 
ATOM      7  N   UNL     1       2.529  -1.825  -3.022  0.00  0.00    -0.169 NA
ATOM      8  N   UNL     1       1.966  -0.539  -3.044  0.00  0.00    -0.233 N 
ATOM      9  C   UNL     1       0.319  -1.902  -0.105  0.00  0.00    -0.039 C 
ATOM     10  H   UNL     1       0.670  -0.105   0.798  0.00  0.00    -0.081 HD
ENDROOT
BRANCH   8  11
ATOM     11  C   UNL     1       2.240   0.468  -3.981  0.00  0.00    +0.107 A 
ATOM     12  C   UNL     1       2.506   1.761  -3.555  0.00  0.00    +0.031 A 
ATOM     13  C   UNL     1       2.776   2.752  -4.481  0.00  0.00    +0.002 A 
ATOM     14  C   UNL     1       2.780   2.457  -5.832  0.00  0.00    +0.004 A 
ATOM     15  C   UNL     1       2.517   1.171  -6.264  0.00  0.00    +0.048 A 
ATOM     16  C   UNL     1       2.251   0.171  -5.342  0.00  0.00    +0.145 A 
BRANCH  16  17
ATOM     17  O   UNL     1       1.998  -1.096  -5.765  0.00  0.00    -0.493 OA
ATOM     18  C   UNL     1       2.026  -1.327  -7.175  0.00  0.00    +0.277 C 
ENDBRANCH  16  17
ENDBRANCH   8  11
BRANCH   1  20
ATOM     19  C   UNL     1      -1.442   0.475   2.205  0.00  0.00    -0.017 C 
ATOM     20  C   UNL     1      -1.071  -0.856   1.547  0.00  0.00    -0.082 C 
ENDBRANCH   1  20
BRANCH   6  21
ATOM     21  C   UNL     1       2.363  -3.891  -1.601  0.00  0.00    +0.165 C 
BRANCH  21  22
ATOM     22  N   UNL     1       1.441  -4.814  -2.268  0.00  0.00    -0.289 N 
ATOM     23  C   UNL     1       0.283  -5.158  -1.671  0.00  0.00    +0.251 C 
ATOM     24  O   UNL     1      -0.034  -4.642  -0.617  0.00  0.00    -0.270 OA
BRANCH  23  25
ATOM     25  C   UNL     1      -0.600  -6.161  -2.296  0.00  0.00    +0.078 A 
ATOM     26  C   UNL     1      -1.120  -5.940  -3.574  0.00  0.00    +0.017 A 
ATOM     27  C   UNL     1      -1.943  -6.881  -4.153  0.00  0.00    +0.001 A 
ATOM     28  C   UNL     1      -2.259  -8.047  -3.474  0.00  0.00    +0.004 A 
ATOM     29  C   UNL     1      -1.751  -8.278  -2.211  0.00  0.00    +0.046 A 
ATOM     30  C   UNL     1      -0.917  -7.344  -1.615  0.00  0.00    +0.132 A 
BRANCH  30  31
ATOM     31  O   UNL     1      -0.413  -7.572  -0.376  0.00  0.00    -0.494 OA
ATOM     32  C   UNL     1      -0.780  -8.800   0.257  0.00  0.00    +0.277 C 
ENDBRANCH  30  31
ENDBRANCH  23  25
BRANCH  22  33
ATOM     33  C   UNL     1       1.779  -5.363  -3.584  0.00  0.00    +0.136 C 
BRANCH  33  34
ATOM     34  C   UNL     1       2.664  -6.598  -3.409  0.00  0.00    +0.178 C 
BRANCH  34  35
ATOM     35  O   UNL     1       1.923  -7.627  -2.749  0.00  0.00    -0.381 OA
ATOM     36  C   UNL     1       2.662  -8.831  -2.536  0.00  0.00    +0.194 C 
ENDBRANCH  34  35
ENDBRANCH  33  34
ENDBRANCH  22  33
ENDBRANCH  21  22
ENDBRANCH   6  21
TORSDOF 10
