REMARK  Name = ZINC09461706
REMARK  7 active torsions:
REMARK  status: ('A' for Active; 'I' for Inactive)
REMARK    1  A    between atoms: C_1  and  C_2
REMARK    2  A    between atoms: C_2  and  C_4
REMARK    3  A    between atoms: C_5  and  N_13
REMARK    4  A    between atoms: C_14  and  C_16
REMARK    5  A    between atoms: C_16  and  N_17
REMARK    6  A    between atoms: C_20  and  C_24
REMARK    7  A    between atoms: C_20  and  C_30
REMARK                            x       y       z     vdW  Elec       q    Type
REMARK                         _______ _______ _______ _____ _____    ______ ____
ROOT
ATOM      1  N   UNL     1       0.732   1.677  -1.247  0.00  0.00    -0.215 N 
ATOM      2  C   UNL     1      -0.584   1.454  -1.430  0.00  0.00    +0.256 C 
ATOM      3  O   UNL     1      -1.096   0.714  -2.243  0.00  0.00    -0.272 OA
ATOM      4  C   UNL     1      -1.293   2.325  -0.412  0.00  0.00    +0.164 C 
ATOM      5  N   UNL     1      -0.190   2.995   0.298  0.00  0.00    -0.278 N 
ATOM      6  C   UNL     1       0.952   2.555  -0.262  0.00  0.00    +0.310 C 
ATOM      7  O   UNL     1       2.059   2.916   0.088  0.00  0.00    -0.252 OA
ATOM      8  H   UNL     1      -0.270   3.633   1.024  0.00  0.00    +0.152 HD
ENDROOT
BRANCH   4   9
ATOM      9  C   UNL     1      -2.174   3.335  -1.101  0.00  0.00    -0.011 A 
ATOM     10  C   UNL     1      -3.005   2.938  -2.132  0.00  0.00    +0.006 A 
ATOM     11  C   UNL     1      -3.817   3.864  -2.761  0.00  0.00    +0.000 A 
ATOM     12  C   UNL     1      -3.791   5.188  -2.365  0.00  0.00    +0.000 A 
ATOM     13  C   UNL     1      -2.956   5.586  -1.337  0.00  0.00    +0.000 A 
ATOM     14  C   UNL     1      -2.147   4.660  -0.706  0.00  0.00    +0.006 A 
ENDBRANCH   4   9
BRANCH   4  15
ATOM     15  C   UNL     1      -2.098   1.480   0.541  0.00  0.00    -0.011 A 
ATOM     16  C   UNL     1      -2.921   0.483   0.054  0.00  0.00    +0.006 A 
ATOM     17  C   UNL     1      -3.656  -0.295   0.929  0.00  0.00    +0.000 A 
ATOM     18  C   UNL     1      -3.574  -0.070   2.291  0.00  0.00    +0.000 A 
ATOM     19  C   UNL     1      -2.754   0.931   2.777  0.00  0.00    +0.000 A 
ATOM     20  C   UNL     1      -2.016   1.706   1.903  0.00  0.00    +0.006 A 
ENDBRANCH   4  15
BRANCH   1  21
ATOM     21  C   UNL     1       1.792   1.036  -2.029  0.00  0.00    +0.214 C 
BRANCH  21  23
ATOM     22  N   UNL     1       3.055   1.485  -4.108  0.00  0.00    -0.281 N 
ATOM     23  C   UNL     1       2.106   1.881  -3.237  0.00  0.00    +0.235 C 
ATOM     24  O   UNL     1       1.503   2.916  -3.426  0.00  0.00    -0.274 OA
ATOM     25  H   UNL     1       3.475   0.616  -4.007  0.00  0.00    +0.155 HD
BRANCH  22  27
ATOM     26  C   UNL     1       4.714   2.527  -5.631  0.00  0.00    +0.192 A 
ATOM     27  C   UNL     1       3.433   2.321  -5.148  0.00  0.00    +0.091 A 
ATOM     28  C   UNL     1       2.558   3.164  -5.969  0.00  0.00    +0.042 A 
ATOM     29  C   UNL     1       1.184   3.410  -5.983  0.00  0.00    +0.013 A 
ATOM     30  C   UNL     1       0.661   4.283  -6.895  0.00  0.00    +0.001 A 
ATOM     31  C   UNL     1       1.488   4.931  -7.803  0.00  0.00    +0.004 A 
ATOM     32  C   UNL     1       2.848   4.706  -7.801  0.00  0.00    +0.047 A 
ATOM     33  C   UNL     1       3.403   3.821  -6.882  0.00  0.00    +0.138 A 
ATOM     34  O   UNL     1       4.667   3.414  -6.651  0.00  0.00    -0.450 OA
BRANCH  26  36
ATOM     35  C   UNL     1       7.194   2.114  -5.848  0.00  0.00    +0.095 C 
ATOM     36  C   UNL     1       5.879   1.912  -5.140  0.00  0.00    +0.197 C 
ATOM     37  O   UNL     1       5.826   1.217  -4.144  0.00  0.00    -0.289 OA
ENDBRANCH  26  36
ENDBRANCH  22  27
ENDBRANCH  21  23
ENDBRANCH   1  21
TORSDOF 6
