REMARK  Name = ZINC08671403
REMARK  10 active torsions:
REMARK  status: ('A' for Active; 'I' for Inactive)
REMARK    1  A    between atoms: C_1  and  C_2
REMARK    2  A    between atoms: C_5  and  N_8
REMARK    3  A    between atoms: N_8  and  C_9
REMARK    4  A    between atoms: C_9  and  C_11
REMARK    5  A    between atoms: C_9  and  C_16
REMARK    6  A    between atoms: N_18  and  C_19
REMARK    7  A    between atoms: C_24  and  C_26
REMARK    8  A    between atoms: C_26  and  C_27
REMARK    9  A    between atoms: C_27  and  C_28
REMARK   10  A    between atoms: C_33  and  C_36
REMARK                            x       y       z     vdW  Elec       q    Type
REMARK                         _______ _______ _______ _____ _____    ______ ____
ROOT
ATOM      1  N   UNL     1      -0.948  -4.123   0.084  0.00  0.00    -0.255 N 
ATOM      2  C   UNL     1      -0.482  -4.511  -1.120  0.00  0.00    +0.221 C 
ATOM      3  O   UNL     1       0.138  -5.549  -1.225  0.00  0.00    -0.275 OA
ENDROOT
BRANCH   1   8
ATOM      4  C   UNL     1      -4.301   0.435   0.491  0.00  0.00    +0.044 C 
ATOM      5  C   UNL     1      -3.410  -0.776   0.383  0.00  0.00    -0.050 A 
ATOM      6  C   UNL     1      -2.294  -0.741  -0.433  0.00  0.00    +0.005 A 
ATOM      7  C   UNL     1      -1.476  -1.849  -0.535  0.00  0.00    +0.024 A 
ATOM      8  C   UNL     1      -1.774  -2.999   0.184  0.00  0.00    +0.037 A 
ATOM      9  C   UNL     1      -2.895  -3.031   1.004  0.00  0.00    +0.024 A 
ATOM     10  C   UNL     1      -3.707  -1.918   1.105  0.00  0.00    +0.005 A 
ENDBRANCH   1   8
BRANCH   1  11
ATOM     11  C   UNL     1      -0.588  -4.878   1.286  0.00  0.00    +0.204 C 
BRANCH  11  12
ATOM     12  C   UNL     1      -0.128  -3.925   2.359  0.00  0.00    +0.019 A 
ATOM     13  C   UNL     1       0.701  -4.155   3.407  0.00  0.00    +0.013 A 
ATOM     14  C   UNL     1       0.987  -3.118   4.275  0.00  0.00    +0.008 A 
ATOM     15  C   UNL     1       0.431  -1.902   4.053  0.00  0.00    +0.045 A 
ATOM     16  S   UNL     1      -0.526  -2.199   2.575  0.00  0.00    -0.099 S 
ENDBRANCH  11  12
BRANCH  11  17
ATOM     17  C   UNL     1      -1.790  -5.644   1.776  0.00  0.00    +0.239 C 
ATOM     18  O   UNL     1      -2.843  -5.567   1.180  0.00  0.00    -0.273 OA
ATOM     19  N   UNL     1      -1.694  -6.415   2.878  0.00  0.00    -0.311 N 
ATOM     20  H   UNL     1      -0.852  -6.477   3.355  0.00  0.00    +0.149 HD
BRANCH  19  21
ATOM     21  C   UNL     1      -2.863  -7.160   3.354  0.00  0.00    +0.073 C 
ATOM     22  C   UNL     1      -3.697  -6.280   4.308  0.00  0.00    +0.022 C 
ATOM     23  C   UNL     1      -4.201  -7.265   5.391  0.00  0.00    +0.002 C 
ATOM     24  C   UNL     1      -2.987  -8.206   5.589  0.00  0.00    +0.002 C 
ATOM     25  C   UNL     1      -2.411  -8.384   4.169  0.00  0.00    +0.022 C 
ENDBRANCH  19  21
ENDBRANCH  11  17
ENDBRANCH   1  11
BRANCH   2  26
ATOM     26  C   UNL     1      -0.732  -3.657  -2.336  0.00  0.00    +0.105 C 
BRANCH  26  27
ATOM     27  C   UNL     1      -1.164  -4.545  -3.504  0.00  0.00    +0.105 C 
BRANCH  27  28
ATOM     28  C   UNL     1      -1.413  -3.690  -4.720  0.00  0.00    +0.219 C 
ATOM     29  O   UNL     1      -1.260  -2.489  -4.658  0.00  0.00    -0.275 OA
ATOM     30  N   UNL     1      -1.806  -4.261  -5.876  0.00  0.00    -0.268 N 
ATOM     31  C   UNL     1      -2.037  -3.470  -7.001  0.00  0.00    +0.168 A 
ATOM     32  C   UNL     1      -1.894  -2.066  -7.075  0.00  0.00    +0.091 A 
ATOM     33  C   UNL     1      -2.208  -1.679  -8.324  0.00  0.00    +0.136 A 
ATOM     34  O   UNL     1      -2.539  -2.772  -9.030  0.00  0.00    -0.358 OA
ATOM     35  N   UNL     1      -2.419  -3.896  -8.178  0.00  0.00    -0.063 NA
ATOM     36  C   UNL     1      -2.191  -0.264  -8.841  0.00  0.00    +0.089 C 
ATOM     37  H   UNL     1      -1.929  -5.222  -5.925  0.00  0.00    +0.156 HD
ENDBRANCH  27  28
ENDBRANCH  26  27
ENDBRANCH   2  26
TORSDOF 8
