REMARK  Name = ZINC14530818
REMARK  12 active torsions:
REMARK  status: ('A' for Active; 'I' for Inactive)
REMARK    1  A    between atoms: C_1  and  N_2
REMARK    2  A    between atoms: C_4  and  C_7
REMARK    3  A    between atoms: C_7  and  N_8
REMARK    4  A    between atoms: C_10  and  O_27
REMARK    5  A    between atoms: C_16  and  C_17
REMARK    6  A    between atoms: C_16  and  N_65
REMARK    7  A    between atoms: C_20  and  O_25
REMARK    8  A    between atoms: C_21  and  O_23
REMARK    9  A    between atoms: O_23  and  C_24
REMARK   10  A    between atoms: O_25  and  C_26
REMARK   11  A    between atoms: O_27  and  C_28
REMARK   12  A    between atoms: C_28  and  C_29
REMARK                            x       y       z     vdW  Elec       q    Type
REMARK                         _______ _______ _______ _____ _____    ______ ____
ROOT
ATOM      1  N   UNL     1       3.649   1.169  -4.341  0.00  0.00    -0.296 N 
ATOM      2  C   UNL     1       4.809   0.463  -3.771  0.00  0.00    +0.137 C 
ATOM      3  C   UNL     1       4.294  -0.659  -2.865  0.00  0.00    +0.120 C 
ATOM      4  C   UNL     1       4.011  -0.135  -1.469  0.00  0.00    -0.044 C 
ATOM      5  C   UNL     1       3.207   2.076  -2.084  0.00  0.00    +0.019 C 
ATOM      6  C   UNL     1       2.881   1.929  -3.555  0.00  0.00    +0.199 C 
ATOM      7  O   UNL     1       1.921   2.504  -4.022  0.00  0.00    -0.278 OA
ATOM      8  N   UNL     1       2.867   0.797  -1.416  0.00  0.00    +0.390 N 
ATOM      9  H   UNL     1       2.071   0.371  -1.904  0.00  0.00    -0.081 HD
ENDROOT
BRANCH   1  10
ATOM     10  C   UNL     1       3.337   1.037  -5.766  0.00  0.00    +0.146 C 
BRANCH  10  14
ATOM     11  C   UNL     1       6.805   3.529  -8.390  0.00  0.00    +0.172 C 
ATOM     12  N   UNL     1       5.567   3.195  -7.681  0.00  0.00    -0.274 N 
ATOM     13  C   UNL     1       5.292   2.022  -7.074  0.00  0.00    +0.113 A 
ATOM     14  C   UNL     1       4.053   2.115  -6.539  0.00  0.00    +0.007 A 
ATOM     15  C   UNL     1       3.551   3.387  -6.834  0.00  0.00    +0.139 A 
ATOM     16  N   UNL     1       4.460   4.037  -7.514  0.00  0.00    -0.180 NA
ENDBRANCH  10  14
ENDBRANCH   1  10
BRANCH   8  17
ATOM     17  C   UNL     1       2.489   1.043  -0.016  0.00  0.00    -0.042 C 
BRANCH  17  18
ATOM     18  C   UNL     1       1.176   1.782   0.000  0.00  0.00    -0.060 A 
ATOM     19  C   UNL     1      -0.013   1.076   0.008  0.00  0.00    +0.005 A 
ATOM     20  C   UNL     1      -1.220   1.749   0.017  0.00  0.00    +0.049 A 
ATOM     21  C   UNL     1      -1.240   3.135   0.030  0.00  0.00    +0.161 A 
ATOM     22  C   UNL     1      -0.044   3.845   0.023  0.00  0.00    +0.162 A 
ATOM     23  C   UNL     1       1.163   3.164   0.008  0.00  0.00    +0.051 A 
BRANCH  22  24
ATOM     24  O   UNL     1      -0.059   5.205   0.031  0.00  0.00    -0.491 OA
ATOM     25  C   UNL     1       1.207   5.868   0.023  0.00  0.00    +0.277 C 
ENDBRANCH  22  24
BRANCH  21  26
ATOM     26  O   UNL     1      -2.427   3.799   0.044  0.00  0.00    -0.491 OA
ATOM     27  C   UNL     1      -3.615   3.004   0.051  0.00  0.00    +0.277 C 
ENDBRANCH  21  26
ENDBRANCH  17  18
ENDBRANCH   8  17
BRANCH   3  28
ATOM     28  O   UNL     1       5.279  -1.692  -2.789  0.00  0.00    -0.372 OA
BRANCH  28  29
ATOM     29  C   UNL     1       5.141  -2.701  -3.791  0.00  0.00    +0.195 C 
BRANCH  29  30
ATOM     30  C   UNL     1       6.225  -3.733  -3.618  0.00  0.00    -0.019 A 
ATOM     31  C   UNL     1       7.444  -3.598  -4.265  0.00  0.00    +0.025 A 
ATOM     32  C   UNL     1       8.416  -4.562  -4.078  0.00  0.00    +0.111 A 
ATOM     33  N   UNL     1       8.191  -5.605  -3.303  0.00  0.00    -0.263 NA
ATOM     34  C   UNL     1       7.043  -5.768  -2.675  0.00  0.00    +0.111 A 
ATOM     35  C   UNL     1       6.026  -4.843  -2.811  0.00  0.00    +0.025 A 
ENDBRANCH  29  30
ENDBRANCH  28  29
ENDBRANCH   3  28
TORSDOF 9
