REMARK  Name = ZINC49810163
REMARK  8 active torsions:
REMARK  status: ('A' for Active; 'I' for Inactive)
REMARK    1  A    between atoms: C_1  and  C_2
REMARK    2  A    between atoms: C_2  and  C_4
REMARK    3  A    between atoms: C_2  and  N_22
REMARK    4  A    between atoms: C_4  and  O_6
REMARK    5  A    between atoms: O_6  and  C_7
REMARK    6  A    between atoms: C_7  and  C_9
REMARK    7  A    between atoms: C_7  and  C_10
REMARK    8  A    between atoms: C_10  and  C_12
REMARK                            x       y       z     vdW  Elec       q    Type
REMARK                         _______ _______ _______ _____ _____    ______ ____
ROOT
ATOM      1  C   UNL     1       0.786  -0.421  -1.235  0.00  0.00    +0.329 C 
ATOM      2  O   UNL     1       1.803  -1.069  -1.158  0.00  0.00    -0.249 OA
ENDROOT
BRANCH   1   4
ATOM      3  C   UNL     1       0.043   1.602  -0.008  0.00  0.00    +0.040 C 
ATOM      4  C   UNL     1       0.112   0.074   0.019  0.00  0.00    +0.189 C 
BRANCH   4   5
ATOM      5  N   UNL     1       0.880  -0.359   1.190  0.00  0.00    -0.228 N 
ATOM      6  C   UNL     1       2.175  -0.004   1.406  0.00  0.00    +0.226 C 
ATOM      7  O   UNL     1       2.803   0.855   0.825  0.00  0.00    -0.275 OA
ATOM      8  C   UNL     1       2.667  -0.889   2.507  0.00  0.00    +0.087 C 
ATOM      9  C   UNL     1       3.684  -0.355   3.492  0.00  0.00    +0.013 C 
ATOM     10  C   UNL     1       3.939  -1.490   4.504  0.00  0.00    +0.001 C 
ATOM     11  C   UNL     1       2.655  -1.934   5.195  0.00  0.00    +0.001 C 
ATOM     12  C   UNL     1       1.549  -2.295   4.186  0.00  0.00    +0.013 C 
ATOM     13  C   UNL     1       1.341  -1.099   3.299  0.00  0.00    +0.087 C 
ATOM     14  C   UNL     1       0.365  -1.151   2.169  0.00  0.00    +0.226 C 
ATOM     15  O   UNL     1      -0.674  -1.775   2.132  0.00  0.00    -0.275 OA
ENDBRANCH   4   5
ENDBRANCH   1   4
BRANCH   1  16
ATOM     16  O   UNL     1       0.256  -0.142  -2.436  0.00  0.00    -0.453 OA
BRANCH  16  17
ATOM     17  C   UNL     1       0.948  -0.643  -3.582  0.00  0.00    +0.239 C 
ATOM     18  C   UNL     1       1.972   0.392  -4.052  0.00  0.00    +0.060 C 
BRANCH  17  19
ATOM     19  C   UNL     1      -0.040  -0.910  -4.688  0.00  0.00    +0.179 C 
ATOM     20  O   UNL     1      -1.095  -0.323  -4.710  0.00  0.00    -0.293 OA
BRANCH  19  21
ATOM     21  C   UNL     1       0.288  -1.909  -5.767  0.00  0.00    +0.033 C 
ATOM     22  C   UNL     1       1.627  -1.542  -6.412  0.00  0.00    +0.018 C 
ATOM     23  C   UNL     1       1.960  -2.557  -7.507  0.00  0.00    -0.010 C 
ATOM     24  C   UNL     1       0.860  -2.539  -8.570  0.00  0.00    +0.007 C 
ATOM     25  C   UNL     1      -0.478  -2.906  -7.926  0.00  0.00    -0.010 C 
ATOM     26  C   UNL     1      -0.811  -1.891  -6.830  0.00  0.00    +0.018 C 
ATOM     27  C   UNL     1      -0.383  -4.305  -7.314  0.00  0.00    +0.007 C 
ATOM     28  C   UNL     1       0.717  -4.322  -6.251  0.00  0.00    -0.010 C 
ATOM     29  C   UNL     1       2.055  -3.956  -6.895  0.00  0.00    +0.007 C 
ATOM     30  C   UNL     1       0.384  -3.308  -5.155  0.00  0.00    +0.018 C 
ENDBRANCH  19  21
ENDBRANCH  17  19
ENDBRANCH  16  17
ENDBRANCH   1  16
TORSDOF 6
