REMARK  Name = ZINC06348566
REMARK  10 active torsions:
REMARK  status: ('A' for Active; 'I' for Inactive)
REMARK    1  A    between atoms: C_1  and  C_2
REMARK    2  A    between atoms: C_5  and  S_8
REMARK    3  A    between atoms: S_8  and  N_11
REMARK    4  A    between atoms: N_11  and  C_12
REMARK    5  A    between atoms: C_12  and  C_13
REMARK    6  A    between atoms: C_13  and  C_15
REMARK    7  A    between atoms: C_13  and  N_63
REMARK    8  A    between atoms: N_23  and  C_26
REMARK    9  A    between atoms: C_29  and  O_32
REMARK   10  A    between atoms: O_32  and  C_33
REMARK                            x       y       z     vdW  Elec       q    Type
REMARK                         _______ _______ _______ _____ _____    ______ ____
ROOT
ATOM      1  C   UNL     1       2.304   4.802   3.771  0.00  0.00    -0.020 C 
ENDROOT
BRANCH   1   7
ATOM      2  C   UNL     1      -0.112   4.669   3.656  0.00  0.00    -0.059 C 
ATOM      3  C   UNL     1      -1.363   4.249   4.430  0.00  0.00    +0.086 C 
ATOM      4  N   UNL     1      -1.468   5.049   5.658  0.00  0.00    -0.333 N 
ATOM      5  C   UNL     1      -0.283   4.861   6.508  0.00  0.00    +0.086 C 
ATOM      6  C   UNL     1       0.969   5.281   5.734  0.00  0.00    -0.059 C 
ATOM      7  N   UNL     1       1.073   4.454   4.513  0.00  0.00    +0.387 N 
ATOM      8  H   UNL     1       1.115   3.465   4.783  0.00  0.00    -0.081 HD
BRANCH   4   9
ATOM      9  C   UNL     1      -2.640   4.743   6.358  0.00  0.00    +0.030 A 
ATOM     10  C   UNL     1      -2.571   4.320   7.679  0.00  0.00    +0.027 A 
ATOM     11  C   UNL     1      -3.729   4.024   8.371  0.00  0.00    +0.047 A 
ATOM     12  C   UNL     1      -4.960   4.137   7.742  0.00  0.00    +0.120 A 
ATOM     13  C   UNL     1      -5.030   4.554   6.421  0.00  0.00    +0.047 A 
ATOM     14  C   UNL     1      -3.873   4.856   5.730  0.00  0.00    +0.027 A 
BRANCH  12  15
ATOM     15  O   UNL     1      -6.100   3.840   8.422  0.00  0.00    -0.495 OA
ATOM     16  C   UNL     1      -5.954   3.416   9.779  0.00  0.00    +0.277 C 
ENDBRANCH  12  15
ENDBRANCH   4   9
ENDBRANCH   1   7
BRANCH   1  17
ATOM     17  C   UNL     1       3.500   4.471   4.626  0.00  0.00    -0.042 A 
ATOM     18  C   UNL     1       4.603   5.312   4.646  0.00  0.00    +0.005 A 
ATOM     19  C   UNL     1       5.680   4.968   5.447  0.00  0.00    +0.020 A 
ATOM     20  C   UNL     1       5.620   3.806   6.194  0.00  0.00    +0.111 A 
ATOM     21  N   UNL     1       4.554   3.030   6.150  0.00  0.00    -0.263 NA
ATOM     22  C   UNL     1       3.509   3.329   5.404  0.00  0.00    +0.112 A 
ENDBRANCH   1  17
BRANCH   1  23
ATOM     23  C   UNL     1       2.357   3.982   2.481  0.00  0.00    +0.095 C 
BRANCH  23  24
ATOM     24  N   UNL     1       3.556   4.342   1.721  0.00  0.00    -0.191 NA
ATOM     25  H   UNL     1       4.048   5.148   1.945  0.00  0.00    +0.148 HD
BRANCH  24  26
ATOM     26  S   UNL     1       4.074   3.374   0.481  0.00  0.00    +0.058 S 
ATOM     27  O   UNL     1       4.092   2.045   0.984  0.00  0.00    -0.153 OA
ATOM     28  O   UNL     1       5.227   3.998  -0.067  0.00  0.00    -0.153 OA
BRANCH  26  33
ATOM     29  C   UNL     1      -0.172   3.537  -3.803  0.00  0.00    +0.044 C 
ATOM     30  C   UNL     1       0.888   3.496  -2.733  0.00  0.00    -0.050 A 
ATOM     31  C   UNL     1       1.920   4.416  -2.747  0.00  0.00    +0.005 A 
ATOM     32  C   UNL     1       2.893   4.379  -1.765  0.00  0.00    +0.029 A 
ATOM     33  C   UNL     1       2.834   3.422  -0.769  0.00  0.00    +0.105 A 
ATOM     34  C   UNL     1       1.802   2.502  -0.755  0.00  0.00    +0.029 A 
ATOM     35  C   UNL     1       0.829   2.539  -1.737  0.00  0.00    +0.005 A 
ENDBRANCH  26  33
ENDBRANCH  24  26
ENDBRANCH  23  24
ENDBRANCH   1  23
TORSDOF 8
