REMARK  Name = ZINC59170763
REMARK  7 active torsions:
REMARK  status: ('A' for Active; 'I' for Inactive)
REMARK    1  A    between atoms: C_1  and  C_2
REMARK    2  A    between atoms: C_2  and  O_3
REMARK    3  A    between atoms: O_3  and  C_4
REMARK    4  A    between atoms: N_12  and  C_13
REMARK    5  A    between atoms: C_16  and  C_19
REMARK    6  A    between atoms: C_20  and  C_22
REMARK    7  A    between atoms: C_22  and  N_24
REMARK                            x       y       z     vdW  Elec       q    Type
REMARK                         _______ _______ _______ _____ _____    ______ ____
ROOT
ATOM      1  C   UNL     1      -1.632  -1.612  -0.355  0.00  0.00    +0.164 A 
ATOM      2  C   UNL     1      -0.449  -2.314  -0.193  0.00  0.00    +0.064 A 
ATOM      3  C   UNL     1      -0.468  -3.665   0.123  0.00  0.00    +0.022 A 
ATOM      4  C   UNL     1      -1.665  -4.329   0.279  0.00  0.00    +0.027 A 
ATOM      5  C   UNL     1      -2.870  -3.634   0.116  0.00  0.00    +0.023 A 
ATOM      6  C   UNL     1      -2.851  -2.263  -0.196  0.00  0.00    +0.179 A 
ATOM      7  O   UNL     1      -4.018  -1.587  -0.340  0.00  0.00    -0.435 OA
ATOM      8  C   UNL     1      -5.100  -2.303  -0.737  0.00  0.00    +0.209 A 
ATOM      9  N   UNL     1      -5.951  -1.816  -1.613  0.00  0.00    -0.325 N 
ATOM     10  C   UNL     1      -5.293  -3.647  -0.154  0.00  0.00    +0.064 A 
ATOM     11  C   UNL     1      -4.156  -4.319   0.269  0.00  0.00    +0.027 A 
ATOM     12 BR   UNL     1       1.160  -4.601   0.342  0.00  0.00    -0.050 Br
ATOM     13  H   UNL     1      -6.663  -2.376  -1.962  0.00  0.00    +0.169 HD
ENDROOT
BRANCH   9  14
ATOM     14  C   UNL     1      -5.833  -0.520  -2.034  0.00  0.00    +0.042 A 
ATOM     15  C   UNL     1      -5.596   0.500  -1.108  0.00  0.00    +0.026 A 
ATOM     16  C   UNL     1      -5.478   1.804  -1.540  0.00  0.00    +0.005 A 
ATOM     17  C   UNL     1      -5.594   2.105  -2.886  0.00  0.00    -0.050 A 
ATOM     18  C   UNL     1      -5.828   1.100  -3.808  0.00  0.00    +0.005 A 
ATOM     19  C   UNL     1      -5.943  -0.210  -3.392  0.00  0.00    +0.026 A 
ATOM     20  C   UNL     1      -5.463   3.533  -3.349  0.00  0.00    +0.044 C 
ENDBRANCH   9  14
BRANCH  10  21
ATOM     21  C   UNL     1      -6.630  -4.249  -0.038  0.00  0.00    +0.082 C 
ATOM     22  S   UNL     1      -8.020  -3.328  -0.427  0.00  0.00    -0.035 S 
BRANCH  21  23
ATOM     23  N   UNL     1      -6.761  -5.525   0.374  0.00  0.00    -0.352 N 
ATOM     24  H   UNL     1      -5.973  -6.047   0.594  0.00  0.00    +0.143 HD
ATOM     25  H   UNL     1      -7.642  -5.922   0.450  0.00  0.00    +0.143 HD
ENDBRANCH  21  23
ENDBRANCH  10  21
BRANCH   1  26
ATOM     26  O   UNL     1      -1.601  -0.288  -0.664  0.00  0.00    -0.489 OA
BRANCH  26  28
ATOM     27  C   UNL     1      -0.480   1.795  -1.158  0.00  0.00    +0.048 C 
ATOM     28  C   UNL     1      -0.314   0.314  -0.813  0.00  0.00    +0.226 C 
ENDBRANCH  26  28
ENDBRANCH   1  26
TORSDOF 5
