REMARK  Name = ZINC01382385
REMARK  8 active torsions:
REMARK  status: ('A' for Active; 'I' for Inactive)
REMARK    1  A    between atoms: C_1  and  C_2
REMARK    2  A    between atoms: C_2  and  C_3
REMARK    3  A    between atoms: C_10  and  C_15
REMARK    4  A    between atoms: C_15  and  C_17
REMARK    5  A    between atoms: C_15  and  N_28
REMARK    6  A    between atoms: N_21  and  C_22
REMARK    7  A    between atoms: C_22  and  C_23
REMARK    8  A    between atoms: N_31  and  C_34
REMARK                            x       y       z     vdW  Elec       q    Type
REMARK                         _______ _______ _______ _____ _____    ______ ____
ROOT
ATOM      1  C   UNL     1      -0.013   1.086   0.008  0.00  0.00    +0.162 C 
ENDROOT
BRANCH   1   9
ATOM      2  C   UNL     1       5.000   4.240   1.801  0.00  0.00    -0.047 A 
ATOM      3  C   UNL     1       5.790   3.910   0.708  0.00  0.00    +0.005 A 
ATOM      4  C   UNL     1       5.301   3.102  -0.295  0.00  0.00    +0.026 A 
ATOM      5  C   UNL     1       4.002   2.612  -0.215  0.00  0.00    +0.049 A 
ATOM      6  C   UNL     1       3.203   2.949   0.894  0.00  0.00    -0.001 A 
ATOM      7  C   UNL     1       3.721   3.770   1.901  0.00  0.00    +0.013 A 
ATOM      8  C   UNL     1       1.835   2.432   0.966  0.00  0.00    +0.021 A 
ATOM      9  C   UNL     1       1.389   1.637  -0.038  0.00  0.00    +0.042 A 
ATOM     10  C   UNL     1       2.230   1.330  -1.128  0.00  0.00    +0.254 A 
ATOM     11  O   UNL     1       1.808   0.617  -2.022  0.00  0.00    -0.268 OA
ATOM     12  N   UNL     1       3.487   1.803  -1.206  0.00  0.00    -0.322 N 
ATOM     13  H   UNL     1       4.105   1.536  -2.075  0.00  0.00    +0.169 HD
BRANCH   2  15
ATOM     14  C   UNL     1       6.229   4.259   3.955  0.00  0.00    +0.009 C 
ATOM     15  C   UNL     1       5.557   5.124   2.886  0.00  0.00    +0.032 C 
ENDBRANCH   2  15
ENDBRANCH   1   9
BRANCH   1  16
ATOM     16  N   UNL     1      -0.759   1.547  -1.170  0.00  0.00    -0.292 NA
ATOM     17  C   UNL     1      -0.747   3.013  -1.261  0.00  0.00    +0.067 C 
ATOM     18  C   UNL     1      -1.465   3.449  -2.541  0.00  0.00    -0.063 C 
ATOM     19  N   UNL     1      -2.842   2.936  -2.525  0.00  0.00    +0.383 N 
ATOM     20  C   UNL     1      -2.854   1.469  -2.435  0.00  0.00    -0.063 C 
ATOM     21  C   UNL     1      -2.136   1.034  -1.155  0.00  0.00    +0.067 C 
ATOM     22  H   UNL     1      -3.344   3.336  -1.632  0.00  0.00    -0.081 HD
BRANCH  19  23
ATOM     23  C   UNL     1      -3.588   3.397  -3.704  0.00  0.00    -0.068 C 
ATOM     24  C   UNL     1      -2.949   2.822  -4.969  0.00  0.00    -0.015 C 
ATOM     25  C   UNL     1      -3.726   3.302  -6.197  0.00  0.00    -0.002 C 
ATOM     26  C   UNL     1      -3.691   4.830  -6.257  0.00  0.00    -0.000 C 
ATOM     27  C   UNL     1      -4.331   5.405  -4.991  0.00  0.00    -0.002 C 
ATOM     28  C   UNL     1      -3.553   4.925  -3.764  0.00  0.00    -0.015 C 
ENDBRANCH  19  23
ENDBRANCH   1  16
BRANCH   1  29
ATOM     29  C   UNL     1      -0.702   1.567   1.259  0.00  0.00    +0.173 A 
ATOM     30  N   UNL     1      -1.167   2.772   1.481  0.00  0.00    -0.111 NA
ATOM     31  N   UNL     1      -1.685   2.787   2.661  0.00  0.00    -0.023 NA
ATOM     32  N   UNL     1      -1.554   1.625   3.200  0.00  0.00    -0.043 NA
ATOM     33  N   UNL     1      -0.953   0.846   2.367  0.00  0.00    -0.220 N 
BRANCH  33  34
ATOM     34  C   UNL     1      -0.608  -0.561   2.585  0.00  0.00    +0.221 C 
BRANCH  34  35
ATOM     35  C   UNL     1       0.765  -0.653   3.199  0.00  0.00    +0.126 A 
ATOM     36  C   UNL     1       1.040  -0.649   4.516  0.00  0.00    +0.046 A 
ATOM     37  C   UNL     1       2.444  -0.754   4.642  0.00  0.00    +0.041 A 
ATOM     38  C   UNL     1       2.945  -0.808   3.394  0.00  0.00    +0.195 A 
ATOM     39  O   UNL     1       1.923  -0.746   2.525  0.00  0.00    -0.466 OA
ENDBRANCH  34  35
ENDBRANCH  33  34
ENDBRANCH   1  29
TORSDOF 7
