REMARK  Name = ZINC06552423
REMARK  5 active torsions:
REMARK  status: ('A' for Active; 'I' for Inactive)
REMARK    1  A    between atoms: C_1  and  C_2
REMARK    2  A    between atoms: C_9  and  C_14
REMARK    3  A    between atoms: C_14  and  N_43
REMARK    4  A    between atoms: C_15  and  N_43
REMARK    5  A    between atoms: C_21  and  C_23
REMARK                            x       y       z     vdW  Elec       q    Type
REMARK                         _______ _______ _______ _____ _____    ______ ____
ROOT
ATOM      1  C   UNL     1       2.482   1.692  -0.013  0.00  0.00    +0.045 C 
ATOM      2  C   UNL     1       1.173   2.439   0.004  0.00  0.00    -0.029 A 
ATOM      3  C   UNL     1       1.175   3.818   0.011  0.00  0.00    +0.051 A 
ATOM      4  C   UNL     1      -0.028   4.513   0.027  0.00  0.00    +0.140 A 
ATOM      5  C   UNL     1      -1.239   3.799   0.034  0.00  0.00    +0.020 A 
ATOM      6  C   UNL     1      -1.226   2.401   0.021  0.00  0.00    +0.032 A 
ATOM      7  C   UNL     1      -0.021   1.732   0.012  0.00  0.00    +0.045 A 
ATOM      8 CL   UNL     1       0.002  -0.004   0.002  0.00  0.00    -0.083 Cl
ATOM      9  C   UNL     1      -2.503   4.542   0.050  0.00  0.00    -0.047 A 
ATOM     10  C   UNL     1      -2.448   5.898   0.057  0.00  0.00    +0.094 A 
ATOM     11  C   UNL     1      -1.196   6.550   0.049  0.00  0.00    +0.337 A 
ATOM     12  O   UNL     1      -1.161   7.768   0.055  0.00  0.00    -0.245 OA
ATOM     13  O   UNL     1      -0.044   5.863   0.034  0.00  0.00    -0.422 OA
ENDROOT
BRANCH   9  14
ATOM     14  C   UNL     1      -3.825   3.820   0.059  0.00  0.00    -0.045 C 
BRANCH  14  15
ATOM     15  N   UNL     1      -4.121   3.369   1.431  0.00  0.00    +0.384 N 
ATOM     16  H   UNL     1      -4.165   4.184   2.054  0.00  0.00    -0.085 HD
ATOM     17  H   UNL     1      -3.377   2.736   1.747  0.00  0.00    -0.085 HD
BRANCH  15  18
ATOM     18  C   UNL     1      -5.413   2.657   1.469  0.00  0.00    -0.069 C 
ATOM     19  C   UNL     1      -6.549   3.670   1.625  0.00  0.00    -0.015 C 
ATOM     20  C   UNL     1      -7.888   2.931   1.673  0.00  0.00    -0.002 C 
ATOM     21  C   UNL     1      -7.896   1.968   2.863  0.00  0.00    +0.000 C 
ATOM     22  C   UNL     1      -6.760   0.956   2.707  0.00  0.00    +0.002 C 
ATOM     23  C   UNL     1      -5.421   1.695   2.659  0.00  0.00    -0.028 C 
ATOM     24  C   UNL     1      -4.285   0.682   2.503  0.00  0.00    +0.006 C 
ENDBRANCH  15  18
ENDBRANCH  14  15
ENDBRANCH   9  14
TORSDOF 3
