REMARK  Name = ZINC34906530
REMARK  5 active torsions:
REMARK  status: ('A' for Active; 'I' for Inactive)
REMARK    1  A    between atoms: N_9  and  C_10
REMARK    2  A    between atoms: C_10  and  C_11
REMARK    3  A    between atoms: C_20  and  C_23
REMARK    4  A    between atoms: N_25  and  C_26
REMARK    5  A    between atoms: C_26  and  C_27
REMARK                            x       y       z     vdW  Elec       q    Type
REMARK                         _______ _______ _______ _____ _____    ______ ____
ROOT
ATOM      1  C   UNL     1      -0.275   1.105  -0.033  0.00  0.00    +0.002 A 
ATOM      2  C   UNL     1       0.825   1.951  -0.048  0.00  0.00    +0.002 A 
ATOM      3  C   UNL     1       2.104   1.434  -0.051  0.00  0.00    +0.028 A 
ATOM      4  C   UNL     1       2.293   0.060  -0.038  0.00  0.00    +0.068 A 
ATOM      5  C   UNL     1       1.183  -0.800  -0.022  0.00  0.00    +0.065 A 
ATOM      6  C   UNL     1      -0.105  -0.261  -0.020  0.00  0.00    +0.028 A 
ATOM      7  N   UNL     1       1.663  -2.072  -0.012  0.00  0.00    -0.327 N 
ATOM      8  C   UNL     1       2.973  -2.048  -0.020  0.00  0.00    +0.177 A 
ATOM      9  N   UNL     1       3.413  -0.755  -0.036  0.00  0.00    -0.313 N 
ATOM     10  N   UNL     1       3.786  -3.162  -0.014  0.00  0.00    -0.302 N 
ATOM     11  C   UNL     1       4.142  -3.836  -1.270  0.00  0.00    +0.108 C 
ATOM     12  C   UNL     1       3.788  -5.321  -1.149  0.00  0.00    +0.032 C 
ATOM     13  C   UNL     1       4.468  -5.904   0.091  0.00  0.00    +0.078 C 
ATOM     14  C   UNL     1       3.957  -5.184   1.341  0.00  0.00    +0.032 C 
ATOM     15  C   UNL     1       4.317  -3.693   1.248  0.00  0.00    +0.108 C 
ATOM     16  H   UNL     1       1.119  -2.875  -0.000  0.00  0.00    +0.169 HD
ENDROOT
BRANCH  13  17
ATOM     17  C   UNL     1       4.150  -7.374   0.194  0.00  0.00    +0.216 C 
ATOM     18  O   UNL     1       3.449  -7.903  -0.642  0.00  0.00    -0.276 OA
ATOM     19  N   UNL     1       4.644  -8.101   1.216  0.00  0.00    -0.311 N 
ATOM     20  H   UNL     1       5.205  -7.678   1.885  0.00  0.00    +0.149 HD
BRANCH  19  21
ATOM     21  C   UNL     1       4.335  -9.529   1.316  0.00  0.00    +0.139 C 
BRANCH  21  22
ATOM     22  C   UNL     1       5.005 -10.104   2.538  0.00  0.00    -0.030 A 
ATOM     23  C   UNL     1       6.285 -10.617   2.447  0.00  0.00    +0.008 A 
ATOM     24  C   UNL     1       6.900 -11.144   3.567  0.00  0.00    +0.038 A 
ATOM     25  C   UNL     1       6.233 -11.157   4.780  0.00  0.00    +0.123 A 
ATOM     26  C   UNL     1       4.951 -10.642   4.870  0.00  0.00    +0.038 A 
ATOM     27  C   UNL     1       4.340 -10.111   3.750  0.00  0.00    +0.008 A 
ATOM     28  F   UNL     1       6.833 -11.672   5.876  0.00  0.00    -0.205 F 
ENDBRANCH  21  22
ENDBRANCH  19  21
ENDBRANCH  13  17
BRANCH   9  29
ATOM     29  C   UNL     1       4.810  -0.313  -0.051  0.00  0.00    +0.128 C 
BRANCH  29  30
ATOM     30  C   UNL     1       5.347  -0.274   1.382  0.00  0.00    +0.009 C 
ATOM     31  C   UNL     1       4.593   0.791   2.180  0.00  0.00    +0.005 C 
ATOM     32  C   UNL     1       5.130   0.830   3.612  0.00  0.00    +0.000 C 
ATOM     33  C   UNL     1       6.621   1.170   3.589  0.00  0.00    +0.000 C 
ATOM     34  C   UNL     1       7.375   0.105   2.790  0.00  0.00    +0.000 C 
ATOM     35  C   UNL     1       6.838   0.066   1.358  0.00  0.00    +0.005 C 
ENDBRANCH  29  30
ENDBRANCH   9  29
TORSDOF 5
