REMARK  Name = ZINC35746698
REMARK  13 active torsions:
REMARK  status: ('A' for Active; 'I' for Inactive)
REMARK    1  A    between atoms: C_1  and  C_2
REMARK    2  A    between atoms: C_8  and  C_19
REMARK    3  A    between atoms: C_12  and  C_13
REMARK    4  A    between atoms: C_13  and  O_15
REMARK    5  A    between atoms: O_15  and  C_16
REMARK    6  A    between atoms: C_16  and  C_17
REMARK    7  A    between atoms: C_19  and  N_20
REMARK    8  A    between atoms: N_20  and  C_21
REMARK    9  A    between atoms: N_20  and  C_32
REMARK   10  A    between atoms: C_21  and  C_22
REMARK   11  A    between atoms: C_22  and  C_24
REMARK   12  A    between atoms: C_22  and  O_31
REMARK   13  A    between atoms: C_24  and  C_25
REMARK                            x       y       z     vdW  Elec       q    Type
REMARK                         _______ _______ _______ _____ _____    ______ ____
ROOT
ATOM      1  C   UNL     1      -5.616  -1.322  -7.552  0.00  0.00    +0.046 C 
ATOM      2  C   UNL     1      -5.118  -2.575  -6.880  0.00  0.00    -0.015 A 
ATOM      3  C   UNL     1      -3.849  -2.601  -6.298  0.00  0.00    +0.076 A 
ATOM      4  C   UNL     1      -2.833  -1.526  -6.222  0.00  0.00    +0.260 A 
ATOM      5  O   UNL     1      -3.045  -0.430  -6.708  0.00  0.00    -0.267 OA
ATOM      6  N   UNL     1      -1.667  -1.793  -5.601  0.00  0.00    -0.312 N 
ATOM      7  H   UNL     1      -0.991  -1.100  -5.543  0.00  0.00    +0.170 HD
ATOM      8  C   UNL     1      -1.420  -3.009  -5.056  0.00  0.00    +0.094 A 
ATOM      9  N   UNL     1      -2.294  -3.978  -5.106  0.00  0.00    -0.229 NA
ATOM     10  C   UNL     1      -3.473  -3.822  -5.694  0.00  0.00    +0.116 A 
ATOM     11  S   UNL     1      -4.886  -4.862  -5.961  0.00  0.00    -0.062 S 
ATOM     12  C   UNL     1      -5.909  -3.687  -6.834  0.00  0.00    +0.102 A 
ENDROOT
BRANCH  12  13
ATOM     13  C   UNL     1      -7.259  -3.872  -7.370  0.00  0.00    +0.347 C 
ATOM     14  O   UNL     1      -7.815  -2.956  -7.946  0.00  0.00    -0.244 OA
BRANCH  13  15
ATOM     15  O   UNL     1      -7.886  -5.057  -7.224  0.00  0.00    -0.457 OA
BRANCH  15  16
ATOM     16  C   UNL     1      -9.202  -5.166  -7.772  0.00  0.00    +0.259 C 
BRANCH  16  17
ATOM     17  C   UNL     1      -9.739  -6.551  -7.515  0.00  0.00    +0.006 C 
ATOM     18  C   UNL     1     -10.965  -6.707  -7.082  0.00  0.00    +0.007 C 
ENDBRANCH  16  17
ENDBRANCH  15  16
ENDBRANCH  13  15
ENDBRANCH  12  13
BRANCH   8  19
ATOM     19  C   UNL     1      -0.098  -3.250  -4.374  0.00  0.00    -0.003 C 
BRANCH  19  20
ATOM     20  N   UNL     1       0.006  -4.665  -3.994  0.00  0.00    +0.388 N 
ATOM     21  H   UNL     1      -0.804  -4.929  -3.453  0.00  0.00    -0.081 HD
BRANCH  20  22
ATOM     22  C   UNL     1       1.219  -4.869  -3.191  0.00  0.00    -0.068 C 
ATOM     23  C   UNL     1       1.051  -5.485  -1.800  0.00  0.00    -0.017 C 
ATOM     24  C   UNL     1       1.394  -4.001  -1.944  0.00  0.00    -0.017 C 
ENDBRANCH  20  22
BRANCH  20  25
ATOM     25  C   UNL     1       0.075  -5.494  -5.205  0.00  0.00    -0.046 C 
BRANCH  25  26
ATOM     26  C   UNL     1       0.058  -6.973  -4.813  0.00  0.00    +0.102 C 
BRANCH  26  27
ATOM     27  O   UNL     1       1.181  -7.257  -3.976  0.00  0.00    -0.393 OA
ATOM     28  H   UNL     1       2.036  -7.082  -4.392  0.00  0.00    +0.210 HD
ENDBRANCH  26  27
BRANCH  26  29
ATOM     29  C   UNL     1       0.131  -7.836  -6.074  0.00  0.00    +0.064 C 
BRANCH  29  30
ATOM     30  C   UNL     1      -0.010  -9.289  -5.697  0.00  0.00    -0.045 A 
ATOM     31  C   UNL     1       1.113 -10.036  -5.394  0.00  0.00    +0.004 A 
ATOM     32  C   UNL     1       0.984 -11.368  -5.049  0.00  0.00    +0.000 A 
ATOM     33  C   UNL     1      -0.268 -11.953  -5.006  0.00  0.00    +0.000 A 
ATOM     34  C   UNL     1      -1.391 -11.205  -5.309  0.00  0.00    +0.000 A 
ATOM     35  C   UNL     1      -1.262  -9.872  -5.650  0.00  0.00    +0.004 A 
ENDBRANCH  29  30
ENDBRANCH  26  29
ENDBRANCH  25  26
ENDBRANCH  20  25
ENDBRANCH  19  20
ENDBRANCH   8  19
TORSDOF 12
