REMARK  Name = ZINC01044294
REMARK  7 active torsions:
REMARK  status: ('A' for Active; 'I' for Inactive)
REMARK    1  A    between atoms: C_1  and  C_2
REMARK    2  A    between atoms: C_3  and  C_26
REMARK    3  A    between atoms: C_4  and  C_11
REMARK    4  A    between atoms: C_5  and  C_9
REMARK    5  A    between atoms: C_6  and  C_8
REMARK    6  A    between atoms: C_14  and  C_16
REMARK    7  A    between atoms: C_21  and  C_22
REMARK                            x       y       z     vdW  Elec       q    Type
REMARK                         _______ _______ _______ _____ _____    ______ ____
ROOT
ATOM      1  C   UNL     1       2.219   1.541  -0.991  0.00  0.00    +0.119 A 
ATOM      2  C   UNL     1       3.426   1.014  -0.707  0.00  0.00    +0.046 A 
ATOM      3  C   UNL     1       3.959   0.525  -1.916  0.00  0.00    +0.050 A 
ATOM      4  C   UNL     1       3.042   0.790  -2.884  0.00  0.00    +0.136 A 
ATOM      5  O   UNL     1       1.991   1.406  -2.308  0.00  0.00    -0.459 OA
ENDROOT
BRANCH   1   9
ATOM      6  C   UNL     1      -0.324   5.621  -0.730  0.00  0.00    +0.061 C 
ATOM      7  C   UNL     1      -0.156   4.173  -0.349  0.00  0.00    +0.019 C 
ATOM      8  C   UNL     1       1.066   3.617  -0.379  0.00  0.00    +0.061 C 
ATOM      9  C   UNL     1       1.283   2.180   0.002  0.00  0.00    +0.139 C 
ATOM     10  C   UNL     1      -0.017   1.428   0.010  0.00  0.00    +0.061 C 
ATOM     11  C   UNL     1      -1.197   2.068   0.019  0.00  0.00    +0.019 C 
ATOM     12  N   UNL     1      -1.252   3.438   0.025  0.00  0.00    -0.320 N 
ATOM     13  C   UNL     1      -2.477   1.272   0.030  0.00  0.00    +0.061 C 
ATOM     14  H   UNL     1      -2.178   3.949   0.330  0.00  0.00    +0.152 HD
BRANCH  10  15
ATOM     15  C   UNL     1       0.002  -0.004   0.002  0.00  0.00    +0.097 C 
ATOM     16  N   UNL     1       0.018  -1.140  -0.004  0.00  0.00    -0.191 NA
ENDBRANCH  10  15
BRANCH   8  17
ATOM     17  C   UNL     1       2.187   4.411  -0.783  0.00  0.00    +0.097 C 
ATOM     18  N   UNL     1       3.076   5.041  -1.103  0.00  0.00    -0.191 NA
ENDBRANCH   8  17
ENDBRANCH   1   9
BRANCH   4  19
ATOM     19  C   UNL     1       3.174   0.459  -4.318  0.00  0.00    +0.029 A 
ATOM     20  C   UNL     1       4.331   0.810  -5.015  0.00  0.00    +0.012 A 
ATOM     21  C   UNL     1       4.448   0.498  -6.354  0.00  0.00    +0.001 A 
ATOM     22  C   UNL     1       3.421  -0.162  -7.005  0.00  0.00    +0.001 A 
ATOM     23  C   UNL     1       2.271  -0.512  -6.321  0.00  0.00    +0.013 A 
ATOM     24  C   UNL     1       2.144  -0.211  -4.980  0.00  0.00    +0.065 A 
BRANCH  24  25
ATOM     25  C   UNL     1       0.893  -0.599  -4.234  0.00  0.00    +0.418 C 
ATOM     26  F   UNL     1       0.015  -1.254  -5.105  0.00  0.00    -0.166 F 
ATOM     27  F   UNL     1       1.227  -1.454  -3.178  0.00  0.00    -0.166 F 
ATOM     28  F   UNL     1       0.277   0.549  -3.727  0.00  0.00    -0.166 F 
ENDBRANCH  24  25
ENDBRANCH   4  19
TORSDOF 5
