REMARK  Name = ZINC33366410
REMARK  8 active torsions:
REMARK  status: ('A' for Active; 'I' for Inactive)
REMARK    1  A    between atoms: C_1  and  C_2
REMARK    2  A    between atoms: C_5  and  S_8
REMARK    3  A    between atoms: S_8  and  N_11
REMARK    4  A    between atoms: N_11  and  N_12
REMARK    5  A    between atoms: C_13  and  C_15
REMARK    6  A    between atoms: C_18  and  C_34
REMARK    7  A    between atoms: C_19  and  C_20
REMARK    8  A    between atoms: C_19  and  C_21
REMARK                            x       y       z     vdW  Elec       q    Type
REMARK                         _______ _______ _______ _____ _____    ______ ____
ROOT
ATOM      1  C   UNL     1      -1.486   1.831   0.032  0.00  0.00    +0.098 C 
ATOM      2  C   UNL     1      -2.021   1.451  -1.384  0.00  0.00    +0.024 C 
ATOM      3  C   UNL     1      -1.994  -0.096  -1.400  0.00  0.00    +0.015 C 
ATOM      4  C   UNL     1      -1.454  -0.476   0.015  0.00  0.00    +0.018 C 
ATOM      5  C   UNL     1      -2.104   0.665   0.881  0.00  0.00    -0.005 C 
ATOM      6  C   UNL     1      -3.633   0.644   0.816  0.00  0.00    +0.013 C 
ATOM      7  C   UNL     1      -1.593   0.663   2.323  0.00  0.00    +0.013 C 
ATOM      8  C   UNL     1       0.002  -0.004   0.002  0.00  0.00    +0.071 A 
ATOM      9  C   UNL     1      -0.017   1.400   0.010  0.00  0.00    +0.079 A 
ATOM     10  N   UNL     1       1.096   2.085   0.003  0.00  0.00    -0.247 NA
ATOM     11  C   UNL     1       2.269   1.438  -0.012  0.00  0.00    +0.091 A 
ATOM     12  C   UNL     1       3.484   2.144  -0.018  0.00  0.00    +0.051 A 
ATOM     13  C   UNL     1       4.662   1.460  -0.034  0.00  0.00    +0.061 A 
ATOM     14  C   UNL     1       4.681   0.064  -0.046  0.00  0.00    +0.061 A 
ATOM     15  C   UNL     1       3.522  -0.652  -0.039  0.00  0.00    +0.051 A 
ATOM     16  C   UNL     1       2.288   0.020  -0.021  0.00  0.00    +0.091 A 
ATOM     17  N   UNL     1       1.133  -0.659  -0.013  0.00  0.00    -0.248 NA
ATOM     18 CL   UNL     1       6.202  -0.772  -0.068  0.00  0.00    -0.082 Cl
ATOM     19 CL   UNL     1       6.160   2.336  -0.042  0.00  0.00    -0.082 Cl
ATOM     20  C   UNL     1      -1.695  -1.912   0.484  0.00  0.00    +0.018 C 
ENDROOT
BRANCH   1  22
ATOM     21  N   UNL     1      -1.242   4.286  -0.157  0.00  0.00    -0.231 N 
ATOM     22  C   UNL     1      -1.760   3.234   0.509  0.00  0.00    +0.240 C 
ATOM     23  O   UNL     1      -2.446   3.417   1.492  0.00  0.00    -0.273 OA
ATOM     24  H   UNL     1      -0.620   4.120  -1.048  0.00  0.00    +0.171 HD
BRANCH  21  25
ATOM     25  N   UNL     1      -1.497   5.590   0.287  0.00  0.00    -0.108 NA
ATOM     26  H   UNL     1      -2.411   5.892   0.406  0.00  0.00    +0.172 HD
BRANCH  25  27
ATOM     27  S   UNL     1      -0.238   6.617   0.607  0.00  0.00    +0.074 S 
ATOM     28  O   UNL     1      -0.811   7.886   0.891  0.00  0.00    -0.152 OA
ATOM     29  O   UNL     1       0.613   5.943   1.524  0.00  0.00    -0.152 OA
BRANCH  27  34
ATOM     30  C   UNL     1       2.895   7.246  -4.511  0.00  0.00    +0.044 C 
ATOM     31  C   UNL     1       2.113   7.089  -3.233  0.00  0.00    -0.050 A 
ATOM     32  C   UNL     1       1.069   7.951  -2.950  0.00  0.00    +0.005 A 
ATOM     33  C   UNL     1       0.351   7.807  -1.778  0.00  0.00    +0.029 A 
ATOM     34  C   UNL     1       0.677   6.801  -0.888  0.00  0.00    +0.107 A 
ATOM     35  C   UNL     1       1.724   5.942  -1.167  0.00  0.00    +0.029 A 
ATOM     36  C   UNL     1       2.438   6.083  -2.342  0.00  0.00    +0.005 A 
ENDBRANCH  27  34
ENDBRANCH  25  27
ENDBRANCH  21  25
ENDBRANCH   1  22
TORSDOF 4
