REMARK  Name = ZINC58687306
REMARK  8 active torsions:
REMARK  status: ('A' for Active; 'I' for Inactive)
REMARK    1  A    between atoms: C_1  and  C_2
REMARK    2  A    between atoms: C_2  and  C_3
REMARK    3  A    between atoms: C_2  and  C_4
REMARK    4  A    between atoms: C_4  and  C_5
REMARK    5  A    between atoms: C_5  and  C_7
REMARK    6  A    between atoms: C_5  and  N_17
REMARK    7  A    between atoms: C_18  and  C_20
REMARK    8  A    between atoms: N_25  and  C_27
REMARK                            x       y       z     vdW  Elec       q    Type
REMARK                         _______ _______ _______ _____ _____    ______ ____
ROOT
ATOM      1  N   UNL     1      -0.730  -2.539   1.027  0.00  0.00    -0.305 N 
ATOM      2  C   UNL     1       0.602  -2.613   1.220  0.00  0.00    +0.219 C 
ATOM      3  O   UNL     1       1.360  -2.116   0.414  0.00  0.00    -0.275 OA
ATOM      4  H   UNL     1      -1.338  -2.878   1.703  0.00  0.00    +0.149 HD
ENDROOT
BRANCH   2   5
ATOM      5  C   UNL     1       1.149  -3.312   2.437  0.00  0.00    +0.101 C 
ATOM      6  C   UNL     1       0.804  -4.820   2.411  0.00  0.00    +0.110 C 
ATOM      7  C   UNL     1       2.009  -5.465   1.761  0.00  0.00    +0.221 C 
ATOM      8  O   UNL     1       2.032  -6.586   1.300  0.00  0.00    -0.275 OA
ATOM      9  N   UNL     1       3.049  -4.614   1.770  0.00  0.00    -0.270 N 
ATOM     10  C   UNL     1       2.693  -3.341   2.410  0.00  0.00    +0.127 C 
BRANCH   9  11
ATOM     11  C   UNL     1       4.310  -4.904   1.236  0.00  0.00    +0.050 A 
ATOM     12  C   UNL     1       4.590  -4.604  -0.091  0.00  0.00    +0.024 A 
ATOM     13  C   UNL     1       5.836  -4.891  -0.614  0.00  0.00    +0.002 A 
ATOM     14  C   UNL     1       6.804  -5.476   0.181  0.00  0.00    +0.001 A 
ATOM     15  C   UNL     1       6.529  -5.776   1.502  0.00  0.00    +0.017 A 
ATOM     16  C   UNL     1       5.287  -5.486   2.034  0.00  0.00    +0.039 A 
ATOM     17 BR   UNL     1       4.914  -5.890   3.844  0.00  0.00    -0.048 Br
ENDBRANCH   9  11
ENDBRANCH   2   5
BRANCH   1  18
ATOM     18  C   UNL     1      -1.260  -1.947  -0.204  0.00  0.00    +0.139 C 
BRANCH  18  19
ATOM     19  C   UNL     1      -2.605  -2.553  -0.514  0.00  0.00    +0.129 A 
ATOM     20  N   UNL     1      -2.880  -3.325  -1.600  0.00  0.00    -0.340 N 
ATOM     21  H   UNL     1      -2.256  -3.578  -2.298  0.00  0.00    +0.167 HD
ATOM     22  C   UNL     1      -4.211  -3.682  -1.523  0.00  0.00    +0.066 A 
ATOM     23  C   UNL     1      -5.055  -4.444  -2.320  0.00  0.00    +0.028 A 
ATOM     24  C   UNL     1      -6.373  -4.612  -1.952  0.00  0.00    +0.002 A 
ATOM     25  C   UNL     1      -6.861  -4.024  -0.793  0.00  0.00    +0.002 A 
ATOM     26  C   UNL     1      -6.045  -3.271   0.003  0.00  0.00    +0.030 A 
ATOM     27  C   UNL     1      -4.705  -3.087  -0.350  0.00  0.00    +0.089 A 
ATOM     28  N   UNL     1      -3.670  -2.418   0.220  0.00  0.00    -0.231 NA
ENDBRANCH  18  19
BRANCH  18  29
ATOM     29  C   UNL     1      -1.412  -0.436  -0.018  0.00  0.00    +0.033 C 
BRANCH  29  31
ATOM     30  C   UNL     1      -2.132   1.687  -1.123  0.00  0.00    +0.007 C 
ATOM     31  C   UNL     1      -1.847   0.199  -1.341  0.00  0.00    -0.015 C 
ATOM     32  C   UNL     1      -0.731   0.039  -2.375  0.00  0.00    +0.007 C 
ENDBRANCH  29  31
ENDBRANCH  18  29
ENDBRANCH   1  18
TORSDOF 6
