REMARK  Name = ZINC35779582
REMARK  3 active torsions:
REMARK  status: ('A' for Active; 'I' for Inactive)
REMARK    1  A    between atoms: C_5  and  C_6
REMARK    2  A    between atoms: C_8  and  N_17
REMARK    3  A    between atoms: N_9  and  C_11
REMARK                            x       y       z     vdW  Elec       q    Type
REMARK                         _______ _______ _______ _____ _____    ______ ____
ROOT
ATOM      1  C   UNL     1      -1.183  -0.887   0.009  0.00  0.00    +0.130 A 
ATOM      2  C   UNL     1      -1.164  -2.297   0.007  0.00  0.00    +0.076 A 
ATOM      3  C   UNL     1      -2.451  -2.730   0.015  0.00  0.00    +0.120 A 
ATOM      4  N   UNL     1      -3.258  -1.631   0.022  0.00  0.00    -0.218 N 
ATOM      5  N   UNL     1      -2.441  -0.494   0.024  0.00  0.00    -0.162 NA
ENDROOT
BRANCH   1  10
ATOM      6  C   UNL     1      -0.016   1.355   0.009  0.00  0.00    +0.052 A 
ATOM      7  C   UNL     1       1.328   1.780  -0.001  0.00  0.00    +0.057 A 
ATOM      8  C   UNL     1       2.092   0.669  -0.014  0.00  0.00    +0.171 A 
ATOM      9  O   UNL     1       1.288  -0.406  -0.012  0.00  0.00    -0.447 OA
ATOM     10  C   UNL     1       0.002  -0.004   0.002  0.00  0.00    +0.156 A 
ATOM     11 BR   UNL     1       3.983   0.632  -0.034  0.00  0.00    -0.008 Br
ENDBRANCH   1  10
BRANCH   4  12
ATOM     12  C   UNL     1      -4.655  -1.639   0.032  0.00  0.00    +0.070 A 
ATOM     13  C   UNL     1      -5.370  -2.625  -0.646  0.00  0.00    +0.047 A 
ATOM     14  C   UNL     1      -6.749  -2.597  -0.612  0.00  0.00    +0.113 A 
ATOM     15  N   UNL     1      -7.390  -1.653   0.051  0.00  0.00    -0.263 NA
ATOM     16  C   UNL     1      -6.750  -0.702   0.705  0.00  0.00    +0.113 A 
ATOM     17  C   UNL     1      -5.371  -0.663   0.725  0.00  0.00    +0.047 A 
ENDBRANCH   4  12
BRANCH   3  18
ATOM     18  N   UNL     1      -2.872  -4.056   0.016  0.00  0.00    -0.343 N 
ATOM     19  H   UNL     1      -2.217  -4.772   0.011  0.00  0.00    +0.144 HD
ATOM     20  H   UNL     1      -3.819  -4.265   0.022  0.00  0.00    +0.144 HD
ENDBRANCH   3  18
TORSDOF 3
