REMARK  Name = ZINC39630766
REMARK  11 active torsions:
REMARK  status: ('A' for Active; 'I' for Inactive)
REMARK    1  A    between atoms: C_1  and  C_2
REMARK    2  A    between atoms: C_2  and  C_8
REMARK    3  A    between atoms: C_12  and  C_21
REMARK    4  A    between atoms: N_23  and  C_24
REMARK    5  A    between atoms: C_24  and  C_25
REMARK    6  A    between atoms: C_25  and  C_26
REMARK    7  A    between atoms: C_25  and  C_27
REMARK    8  A    between atoms: C_25  and  C_28
REMARK    9  A    between atoms: C_28  and  N_29
REMARK   10  A    between atoms: N_29  and  C_30
REMARK   11  A    between atoms: N_29  and  C_31
REMARK                            x       y       z     vdW  Elec       q    Type
REMARK                         _______ _______ _______ _____ _____    ______ ____
ROOT
ATOM      1  C   UNL     1      -5.207  -1.203  -0.855  0.00  0.00    +0.222 C 
ATOM      2  O   UNL     1      -5.448  -1.957   0.064  0.00  0.00    -0.275 OA
ATOM      3  N   UNL     1      -5.704  -1.455  -2.082  0.00  0.00    -0.300 N 
ATOM      4  C   UNL     1      -5.430  -0.724  -3.342  0.00  0.00    +0.121 C 
ATOM      5  C   UNL     1      -5.335  -1.827  -4.420  0.00  0.00    +0.100 C 
ATOM      6  C   UNL     1      -6.138  -3.006  -3.848  0.00  0.00    -0.004 C 
ATOM      7  C   UNL     1      -6.645  -2.531  -2.478  0.00  0.00    +0.115 C 
ATOM      8  C   UNL     1      -5.238  -4.226  -3.677  0.00  0.00    -0.010 C 
ATOM      9  C   UNL     1      -6.072  -5.402  -3.160  0.00  0.00    -0.082 C 
ATOM     10  N   UNL     1      -7.150  -5.694  -4.112  0.00  0.00    +0.379 N 
ATOM     11  C   UNL     1      -8.064  -4.550  -4.201  0.00  0.00    -0.082 C 
ATOM     12  C   UNL     1      -7.315  -3.337  -4.761  0.00  0.00    -0.010 C 
ATOM     13  H   UNL     1      -6.754  -5.878  -5.021  0.00  0.00    -0.086 HD
ATOM     14  H   UNL     1      -7.660  -6.507  -3.800  0.00  0.00    -0.086 HD
ENDROOT
BRANCH   1  16
ATOM     15  C   UNL     1      -2.994  -0.178  -1.305  0.00  0.00    +0.021 C 
ATOM     16  C   UNL     1      -4.351   0.016  -0.625  0.00  0.00    +0.044 C 
ATOM     17  C   UNL     1      -4.145   0.218   0.877  0.00  0.00    +0.016 C 
ATOM     18  C   UNL     1      -5.502   0.412   1.556  0.00  0.00    +0.001 C 
ATOM     19  C   UNL     1      -6.197   1.642   0.967  0.00  0.00    +0.000 C 
ATOM     20  C   UNL     1      -6.403   1.439  -0.536  0.00  0.00    +0.001 C 
ATOM     21  C   UNL     1      -5.045   1.245  -1.215  0.00  0.00    +0.016 C 
ENDBRANCH   1  16
BRANCH   5  22
ATOM     22  C   UNL     1      -3.898  -2.225  -4.639  0.00  0.00    +0.218 C 
ATOM     23  O   UNL     1      -3.086  -2.079  -3.749  0.00  0.00    -0.275 OA
ATOM     24  N   UNL     1      -3.514  -2.742  -5.822  0.00  0.00    -0.315 N 
ATOM     25  H   UNL     1      -4.163  -2.858  -6.534  0.00  0.00    +0.149 HD
BRANCH  24  26
ATOM     26  C   UNL     1      -2.117  -3.129  -6.035  0.00  0.00    +0.108 C 
BRANCH  26  27
ATOM     27  C   UNL     1      -1.951  -3.683  -7.451  0.00  0.00    -0.034 C 
ATOM     28  C   UNL     1      -2.852  -4.907  -7.629  0.00  0.00    +0.010 C 
ATOM     29  C   UNL     1      -2.343  -2.610  -8.468  0.00  0.00    +0.010 C 
BRANCH  27  30
ATOM     30  C   UNL     1      -0.492  -4.087  -7.673  0.00  0.00    -0.072 C 
BRANCH  30  31
ATOM     31  N   UNL     1      -0.303  -4.489  -9.073  0.00  0.00    +0.376 N 
ATOM     32  C   UNL     1       0.324  -3.389  -9.818  0.00  0.00    -0.097 C 
ATOM     33  C   UNL     1       0.564  -5.674  -9.129  0.00  0.00    -0.097 C 
ATOM     34  H   UNL     1      -1.198  -4.707  -9.484  0.00  0.00    -0.083 HD
ENDBRANCH  30  31
ENDBRANCH  27  30
ENDBRANCH  26  27
ENDBRANCH  24  26
ENDBRANCH   5  22
TORSDOF 6
