REMARK  Name = ZINC65428345
REMARK  9 active torsions:
REMARK  status: ('A' for Active; 'I' for Inactive)
REMARK    1  A    between atoms: C_1  and  C_2
REMARK    2  A    between atoms: C_4  and  C_8
REMARK    3  A    between atoms: C_8  and  N_9
REMARK    4  A    between atoms: C_12  and  C_26
REMARK    5  A    between atoms: C_14  and  C_16
REMARK    6  A    between atoms: C_19  and  O_22
REMARK    7  A    between atoms: O_22  and  C_23
REMARK    8  A    between atoms: C_23  and  C_24
REMARK    9  A    between atoms: C_24  and  O_25
REMARK                            x       y       z     vdW  Elec       q    Type
REMARK                         _______ _______ _______ _____ _____    ______ ____
ROOT
ATOM      1  N   UNL     1      -3.860   4.125  -3.021  0.00  0.00    +0.397 N 
ATOM      2  C   UNL     1      -2.966   4.836  -3.971  0.00  0.00    +0.007 C 
ATOM      3  N   UNL     1      -3.616   6.160  -4.147  0.00  0.00    -0.327 NA
ATOM      4  C   UNL     1      -5.067   5.860  -4.176  0.00  0.00    +0.073 C 
ATOM      5  C   UNL     1      -5.228   4.519  -3.434  0.00  0.00    -0.014 C 
ATOM      6  H   UNL     1      -3.390   6.779  -3.383  0.00  0.00    +0.120 HD
ATOM      7  H   UNL     1      -3.679   4.424  -2.074  0.00  0.00    -0.078 HD
ENDROOT
BRANCH   5   8
ATOM      8  C   UNL     1      -6.107   4.697  -2.224  0.00  0.00    -0.059 A 
ATOM      9  C   UNL     1      -5.605   5.305  -1.088  0.00  0.00    +0.005 A 
ATOM     10  C   UNL     1      -6.409   5.469   0.023  0.00  0.00    +0.046 A 
ATOM     11  C   UNL     1      -7.722   5.022  -0.001  0.00  0.00    +0.121 A 
ATOM     12  C   UNL     1      -8.224   4.413  -1.141  0.00  0.00    +0.046 A 
ATOM     13  C   UNL     1      -7.418   4.256  -2.252  0.00  0.00    +0.005 A 
BRANCH  11  14
ATOM     14  O   UNL     1      -8.515   5.182   1.091  0.00  0.00    -0.490 OA
BRANCH  14  15
ATOM     15  C   UNL     1      -9.856   4.698   0.996  0.00  0.00    +0.256 C 
BRANCH  15  16
ATOM     16  C   UNL     1     -10.589   4.964   2.312  0.00  0.00    +0.196 C 
BRANCH  16  17
ATOM     17  O   UNL     1     -10.710   6.373   2.514  0.00  0.00    -0.392 OA
ATOM     18  H   UNL     1     -11.165   6.616   3.331  0.00  0.00    +0.210 HD
ENDBRANCH  16  17
ENDBRANCH  15  16
ENDBRANCH  14  15
ENDBRANCH  11  14
ENDBRANCH   5   8
BRANCH   4  19
ATOM     19  C   UNL     1      -5.838   6.944  -3.469  0.00  0.00    -0.032 A 
ATOM     20  C   UNL     1      -5.324   7.523  -2.324  0.00  0.00    +0.005 A 
ATOM     21  C   UNL     1      -6.031   8.518  -1.675  0.00  0.00    +0.000 A 
ATOM     22  C   UNL     1      -7.252   8.935  -2.172  0.00  0.00    +0.000 A 
ATOM     23  C   UNL     1      -7.765   8.357  -3.318  0.00  0.00    +0.000 A 
ATOM     24  C   UNL     1      -7.056   7.365  -3.969  0.00  0.00    +0.005 A 
ENDBRANCH   4  19
BRANCH   1  25
ATOM     25  C   UNL     1      -3.686   2.672  -3.142  0.00  0.00    -0.018 C 
BRANCH  25  29
ATOM     26  C   UNL     1      -0.013   1.086   0.008  0.00  0.00    +0.065 C 
ATOM     27  C   UNL     1      -0.742   1.585  -1.213  0.00  0.00    +0.033 A 
ATOM     28  C   UNL     1      -2.069   1.833  -1.304  0.00  0.00    +0.045 A 
ATOM     29  C   UNL     1      -2.335   2.281  -2.602  0.00  0.00    +0.047 A 
ATOM     30  N   UNL     1      -1.208   2.300  -3.267  0.00  0.00    -0.181 NA
ATOM     31  H   UNL     1       0.753   1.789  -2.637  0.00  0.00    +0.188 HD
ATOM     32  N   UNL     1      -0.187   1.870  -2.410  0.00  0.00    -0.282 N 
ENDBRANCH  25  29
ENDBRANCH   1  25
TORSDOF 8
