REMARK  Name = ZINC36713189
REMARK  10 active torsions:
REMARK  status: ('A' for Active; 'I' for Inactive)
REMARK    1  A    between atoms: C_1  and  C_2
REMARK    2  A    between atoms: C_4  and  C_30
REMARK    3  A    between atoms: C_8  and  N_29
REMARK    4  A    between atoms: C_9  and  C_11
REMARK    5  A    between atoms: C_11  and  O_13
REMARK    6  A    between atoms: O_13  and  C_14
REMARK    7  A    between atoms: C_14  and  C_16
REMARK    8  A    between atoms: C_14  and  C_17
REMARK    9  A    between atoms: N_19  and  C_20
REMARK   10  A    between atoms: C_26  and  C_28
REMARK                            x       y       z     vdW  Elec       q    Type
REMARK                         _______ _______ _______ _____ _____    ______ ____
ROOT
ATOM      1  C   UNL     1       1.979  -0.745   4.319  0.00  0.00    +0.348 C 
ATOM      2  O   UNL     1       2.116   0.412   4.672  0.00  0.00    -0.244 OA
ENDROOT
BRANCH   1  11
ATOM      3  C   UNL     1      -1.696   1.372   0.766  0.00  0.00    +0.044 C 
ATOM      4  C   UNL     1      -1.521  -0.123   0.688  0.00  0.00    -0.037 A 
ATOM      5  C   UNL     1      -2.240  -0.864  -0.221  0.00  0.00    +0.027 A 
ATOM      6  C   UNL     1      -2.078  -2.239  -0.290  0.00  0.00    +0.040 A 
ATOM      7  N   UNL     1      -1.231  -2.853   0.513  0.00  0.00    -0.245 NA
ATOM      8  C   UNL     1      -0.520  -2.189   1.399  0.00  0.00    +0.111 A 
ATOM      9  C   UNL     1      -0.609  -0.786   1.546  0.00  0.00    +0.032 A 
ATOM     10  C   UNL     1       0.254  -0.216   2.569  0.00  0.00    +0.056 A 
ATOM     11  C   UNL     1       1.067  -1.067   3.287  0.00  0.00    +0.119 A 
ATOM     12  S   UNL     1       0.683  -2.671   2.612  0.00  0.00    -0.060 S 
ATOM     13  C   UNL     1      -2.873  -3.037  -1.291  0.00  0.00    +0.065 C 
BRANCH  10  14
ATOM     14  N   UNL     1       0.258   1.149   2.816  0.00  0.00    -0.356 N 
ATOM     15  H   UNL     1       0.106   1.774   2.090  0.00  0.00    +0.142 HD
ATOM     16  H   UNL     1       0.414   1.479   3.715  0.00  0.00    +0.142 HD
ENDBRANCH  10  14
ENDBRANCH   1  11
BRANCH   1  17
ATOM     17  O   UNL     1       2.697  -1.721   4.914  0.00  0.00    -0.448 OA
BRANCH  17  18
ATOM     18  C   UNL     1       3.599  -1.324   5.949  0.00  0.00    +0.259 C 
ATOM     19  C   UNL     1       4.967  -1.009   5.340  0.00  0.00    +0.062 C 
BRANCH  18  20
ATOM     20  C   UNL     1       3.740  -2.443   6.949  0.00  0.00    +0.254 C 
ATOM     21  O   UNL     1       3.201  -3.510   6.744  0.00  0.00    -0.272 OA
ATOM     22  N   UNL     1       4.465  -2.258   8.069  0.00  0.00    -0.309 N 
ATOM     23  H   UNL     1       4.896  -1.405   8.233  0.00  0.00    +0.149 HD
BRANCH  22  24
ATOM     24  C   UNL     1       4.602  -3.346   9.041  0.00  0.00    +0.076 C 
ATOM     25  C   UNL     1       5.755  -4.261   8.623  0.00  0.00    +0.022 C 
ATOM     26  C   UNL     1       5.898  -5.397   9.638  0.00  0.00    +0.002 C 
ATOM     27  C   UNL     1       6.188  -4.812  11.021  0.00  0.00    +0.000 C 
ATOM     28  C   UNL     1       5.036  -3.896  11.439  0.00  0.00    +0.005 C 
ATOM     29  C   UNL     1       4.893  -2.760  10.425  0.00  0.00    +0.006 C 
ATOM     30  C   UNL     1       3.741  -1.845  10.843  0.00  0.00    +0.009 C 
ENDBRANCH  22  24
ENDBRANCH  18  20
ENDBRANCH  17  18
ENDBRANCH   1  17
TORSDOF 6
