REMARK  Name = ZINC43509222
REMARK  8 active torsions:
REMARK  status: ('A' for Active; 'I' for Inactive)
REMARK    1  A    between atoms: C_1  and  C_2
REMARK    2  A    between atoms: C_5  and  S_8
REMARK    3  A    between atoms: S_8  and  N_11
REMARK    4  A    between atoms: C_15  and  C_18
REMARK    5  A    between atoms: N_20  and  C_21
REMARK    6  A    between atoms: C_27  and  N_29
REMARK    7  A    between atoms: C_30  and  C_32
REMARK    8  A    between atoms: C_37  and  C_38
REMARK                            x       y       z     vdW  Elec       q    Type
REMARK                         _______ _______ _______ _____ _____    ______ ____
ROOT
ATOM      1  C   UNL     1       5.226  -5.168   3.503  0.00  0.00    +0.218 C 
ATOM      2  O   UNL     1       5.040  -5.973   4.392  0.00  0.00    -0.275 OA
ATOM      3  N   UNL     1       6.350  -4.425   3.491  0.00  0.00    -0.310 N 
ATOM      4  H   UNL     1       6.499  -3.782   2.780  0.00  0.00    +0.149 HD
ENDROOT
BRANCH   1   9
ATOM      5  N   UNL     1       2.102  -5.874   1.522  0.00  0.00    -0.176 NA
ATOM      6  C   UNL     1       2.629  -6.072   0.165  0.00  0.00    +0.109 C 
ATOM      7  C   UNL     1       3.804  -5.114  -0.053  0.00  0.00    +0.018 C 
ATOM      8  C   UNL     1       4.836  -5.317   1.058  0.00  0.00    +0.015 C 
ATOM      9  C   UNL     1       4.199  -5.000   2.413  0.00  0.00    +0.091 C 
ATOM     10  C   UNL     1       3.030  -5.952   2.659  0.00  0.00    +0.122 C 
BRANCH   5  11
ATOM     11  S   UNL     1       0.494  -5.562   1.765  0.00  0.00    +0.061 S 
ATOM     12  O   UNL     1       0.200  -5.963   3.096  0.00  0.00    -0.153 OA
ATOM     13  O   UNL     1      -0.196  -6.088   0.641  0.00  0.00    -0.153 OA
BRANCH  11  18
ATOM     14  C   UNL     1      -0.212   0.428   1.574  0.00  0.00    +0.044 C 
ATOM     15  C   UNL     1      -0.035  -1.068   1.622  0.00  0.00    -0.050 A 
ATOM     16  C   UNL     1      -0.144  -1.814   0.463  0.00  0.00    +0.005 A 
ATOM     17  C   UNL     1       0.018  -3.186   0.507  0.00  0.00    +0.029 A 
ATOM     18  C   UNL     1       0.289  -3.812   1.710  0.00  0.00    +0.105 A 
ATOM     19  C   UNL     1       0.399  -3.066   2.868  0.00  0.00    +0.029 A 
ATOM     20  C   UNL     1       0.241  -1.694   2.824  0.00  0.00    +0.005 A 
ENDBRANCH  11  18
ENDBRANCH   5  11
ENDBRANCH   1   9
BRANCH   3  21
ATOM     21  C   UNL     1       7.348  -4.589   4.551  0.00  0.00    +0.093 C 
ATOM     22  C   UNL     1       8.284  -5.746   4.195  0.00  0.00    +0.024 C 
ATOM     23  C   UNL     1       9.326  -5.917   5.302  0.00  0.00    +0.002 C 
ATOM     24  C   UNL     1      10.139  -4.628   5.441  0.00  0.00    +0.002 C 
ATOM     25  C   UNL     1       9.203  -3.471   5.796  0.00  0.00    +0.024 C 
ATOM     26  C   UNL     1       8.161  -3.300   4.689  0.00  0.00    +0.093 C 
BRANCH  26  27
ATOM     27  N   UNL     1       8.837  -3.010   3.423  0.00  0.00    -0.307 N 
ATOM     28  C   UNL     1       9.181  -1.743   3.117  0.00  0.00    +0.245 C 
ATOM     29  O   UNL     1       8.930  -0.842   3.892  0.00  0.00    -0.270 OA
ATOM     30  H   UNL     1       9.037  -3.730   2.804  0.00  0.00    +0.149 HD
BRANCH  28  31
ATOM     31  C   UNL     1       9.863  -1.451   1.838  0.00  0.00    +0.040 A 
ATOM     32  C   UNL     1      10.270  -2.495   1.006  0.00  0.00    +0.013 A 
ATOM     33  C   UNL     1      10.905  -2.215  -0.186  0.00  0.00    +0.001 A 
ATOM     34  C   UNL     1      11.141  -0.902  -0.557  0.00  0.00    +0.000 A 
ATOM     35  C   UNL     1      10.741   0.137   0.264  0.00  0.00    +0.004 A 
ATOM     36  C   UNL     1      10.099  -0.129   1.456  0.00  0.00    -0.038 A 
ATOM     37  C   UNL     1       9.658   1.004   2.346  0.00  0.00    +0.044 C 
ENDBRANCH  28  31
ENDBRANCH  26  27
ENDBRANCH   3  21
TORSDOF 6
