REMARK  Name = ZINC03040161
REMARK  6 active torsions:
REMARK  status: ('A' for Active; 'I' for Inactive)
REMARK    1  A    between atoms: C_1  and  C_2
REMARK    2  A    between atoms: C_5  and  C_8
REMARK    3  A    between atoms: C_8  and  N_9
REMARK    4  A    between atoms: C_12  and  C_25
REMARK    5  A    between atoms: N_27  and  C_28
REMARK    6  A    between atoms: C_28  and  C_29
REMARK                            x       y       z     vdW  Elec       q    Type
REMARK                         _______ _______ _______ _____ _____    ______ ____
ROOT
ATOM      1  N   UNL     1       1.447  -4.746  -0.032  0.00  0.00    -0.262 N 
ATOM      2  C   UNL     1       1.992  -4.920  -1.297  0.00  0.00    +0.051 A 
ATOM      3  C   UNL     1       1.231  -5.567  -2.261  0.00  0.00    +0.037 A 
ATOM      4  C   UNL     1       1.740  -5.761  -3.547  0.00  0.00    +0.039 A 
ATOM      5  C   UNL     1       3.020  -5.303  -3.867  0.00  0.00    +0.014 A 
ATOM      6  C   UNL     1       3.774  -4.662  -2.910  0.00  0.00    +0.017 A 
ATOM      7  C   UNL     1       3.268  -4.470  -1.628  0.00  0.00    +0.034 A 
ATOM      8  S   UNL     1       4.262  -3.651  -0.424  0.00  0.00    -0.087 S 
ATOM      9  C   UNL     1       4.451  -4.856   0.848  0.00  0.00    +0.025 A 
ATOM     10  C   UNL     1       5.720  -5.296   1.201  0.00  0.00    +0.016 A 
ATOM     11  C   UNL     1       5.872  -6.237   2.199  0.00  0.00    +0.001 A 
ATOM     12  C   UNL     1       4.760  -6.745   2.852  0.00  0.00    +0.001 A 
ATOM     13  C   UNL     1       3.496  -6.320   2.513  0.00  0.00    +0.014 A 
ATOM     14  C   UNL     1       3.321  -5.366   1.501  0.00  0.00    +0.051 A 
ATOM     15  C   UNL     1       1.971  -4.928   1.151  0.00  0.00    +0.252 C 
ATOM     16  O   UNL     1       1.232  -4.707   2.091  0.00  0.00    -0.270 OA
ENDROOT
BRANCH   4  17
ATOM     17  C   UNL     1       0.926  -6.450  -4.566  0.00  0.00    +0.244 C 
ATOM     18  O   UNL     1      -0.188  -6.849  -4.287  0.00  0.00    -0.270 OA
ATOM     19  N   UNL     1       1.417  -6.638  -5.807  0.00  0.00    -0.304 N 
ATOM     20  H   UNL     1       2.306  -6.319  -6.030  0.00  0.00    +0.149 HD
BRANCH  19  21
ATOM     21  C   UNL     1       0.609  -7.322  -6.819  0.00  0.00    +0.179 C 
BRANCH  21  22
ATOM     22  C   UNL     1       1.383  -7.401  -8.110  0.00  0.00    +0.122 A 
ATOM     23  C   UNL     1       2.203  -8.402  -8.476  0.00  0.00    +0.046 A 
ATOM     24  C   UNL     1       2.715  -8.069  -9.751  0.00  0.00    +0.041 A 
ATOM     25  C   UNL     1       2.175  -6.883 -10.089  0.00  0.00    +0.195 A 
ATOM     26  O   UNL     1       1.365  -6.487  -9.094  0.00  0.00    -0.466 OA
ENDBRANCH  21  22
ENDBRANCH  19  21
ENDBRANCH   4  17
BRANCH   1  27
ATOM     27  C   UNL     1       0.059  -4.275  -0.021  0.00  0.00    +0.149 C 
BRANCH  27  32
ATOM     28  C   UNL     1      -0.018   1.503   0.010  0.00  0.00    +0.044 C 
ATOM     29  C   UNL     1       0.002  -0.004   0.002  0.00  0.00    -0.050 A 
ATOM     30  C   UNL     1       0.006  -0.689  -1.199  0.00  0.00    +0.003 A 
ATOM     31  C   UNL     1       0.025  -2.071  -1.206  0.00  0.00    +0.005 A 
ATOM     32  C   UNL     1       0.040  -2.768  -0.013  0.00  0.00    -0.030 A 
ATOM     33  C   UNL     1       0.037  -2.084   1.188  0.00  0.00    +0.005 A 
ATOM     34  C   UNL     1       0.023  -0.702   1.195  0.00  0.00    +0.003 A 
ENDBRANCH  27  32
ENDBRANCH   1  27
TORSDOF 5
