REMARK  Name = ZINC35782470
REMARK  13 active torsions:
REMARK  status: ('A' for Active; 'I' for Inactive)
REMARK    1  A    between atoms: C_1  and  C_2
REMARK    2  A    between atoms: C_5  and  O_8
REMARK    3  A    between atoms: O_8  and  C_9
REMARK    4  A    between atoms: C_10  and  C_21
REMARK    5  A    between atoms: C_11  and  C_15
REMARK    6  A    between atoms: N_13  and  C_14
REMARK    7  A    between atoms: C_21  and  N_22
REMARK    8  A    between atoms: N_22  and  C_23
REMARK    9  A    between atoms: N_22  and  C_29
REMARK   10  A    between atoms: C_23  and  C_24
REMARK   11  A    between atoms: C_29  and  C_30
REMARK   12  A    between atoms: C_30  and  C_32
REMARK   13  A    between atoms: C_30  and  O_33
REMARK                            x       y       z     vdW  Elec       q    Type
REMARK                         _______ _______ _______ _____ _____    ______ ____
ROOT
ATOM      1  C   UNL     1       1.583  -4.383   1.859  0.00  0.00    +0.221 A 
ATOM      2  C   UNL     1       1.028  -5.622   1.885  0.00  0.00    +0.025 A 
ATOM      3  C   UNL     1       0.611  -5.878   3.205  0.00  0.00    +0.098 A 
ATOM      4  N   UNL     1       0.906  -4.827   3.940  0.00  0.00    -0.168 NA
ATOM      5  N   UNL     1       1.523  -3.876   3.118  0.00  0.00    -0.235 N 
ATOM      6  C   UNL     1       2.016  -2.563   3.541  0.00  0.00    +0.176 C 
ENDROOT
BRANCH   3   7
ATOM      7  C   UNL     1      -0.049  -7.119   3.684  0.00  0.00    +0.002 A 
ATOM      8  C   UNL     1      -1.062  -7.707   2.930  0.00  0.00    +0.010 A 
ATOM      9  C   UNL     1      -1.672  -8.861   3.380  0.00  0.00    +0.001 A 
ATOM     10  C   UNL     1      -1.280  -9.432   4.577  0.00  0.00    +0.000 A 
ATOM     11  C   UNL     1      -0.275  -8.852   5.329  0.00  0.00    +0.001 A 
ATOM     12  C   UNL     1       0.345  -7.701   4.886  0.00  0.00    +0.010 A 
ENDBRANCH   3   7
BRANCH   1  13
ATOM     13  O   UNL     1       2.108  -3.763   0.771  0.00  0.00    -0.438 OA
BRANCH  13  18
ATOM     14  C   UNL     1      -1.249  -0.364  -2.213  0.00  0.00    +0.044 C 
ATOM     15  C   UNL     1      -0.351  -1.274  -1.414  0.00  0.00    -0.050 A 
ATOM     16  C   UNL     1       0.991  -1.373  -1.734  0.00  0.00    +0.007 A 
ATOM     17  C   UNL     1       1.816  -2.206  -1.004  0.00  0.00    +0.046 A 
ATOM     18  C   UNL     1       1.298  -2.943   0.052  0.00  0.00    +0.130 A 
ATOM     19  C   UNL     1      -0.049  -2.841   0.371  0.00  0.00    +0.046 A 
ATOM     20  C   UNL     1      -0.868  -2.002  -0.359  0.00  0.00    +0.007 A 
ENDBRANCH  13  18
ENDBRANCH   1  13
BRANCH   2  21
ATOM     21  C   UNL     1       0.886  -6.555   0.711  0.00  0.00    -0.035 C 
BRANCH  21  22
ATOM     22  N   UNL     1       2.146  -7.283   0.509  0.00  0.00    +0.389 N 
ATOM     23  H   UNL     1       2.887  -6.626   0.318  0.00  0.00    -0.081 HD
BRANCH  22  24
ATOM     24  C   UNL     1       2.470  -8.048   1.720  0.00  0.00    -0.003 C 
BRANCH  24  25
ATOM     25  C   UNL     1       3.821  -8.696   1.559  0.00  0.00    +0.089 A 
ATOM     26  C   UNL     1       5.000  -8.153   1.910  0.00  0.00    +0.042 A 
ATOM     27  C   UNL     1       6.000  -9.099   1.584  0.00  0.00    +0.041 A 
ATOM     28  C   UNL     1       5.371 -10.163   1.053  0.00  0.00    +0.195 A 
ATOM     29  O   UNL     1       4.051  -9.915   1.046  0.00  0.00    -0.470 OA
ENDBRANCH  24  25
ENDBRANCH  22  24
BRANCH  22  30
ATOM     30  C   UNL     1       2.002  -8.203  -0.628  0.00  0.00    -0.046 C 
BRANCH  30  31
ATOM     31  C   UNL     1       1.884  -7.399  -1.924  0.00  0.00    +0.095 C 
ATOM     32  C   UNL     1       1.958  -8.348  -3.122  0.00  0.00    +0.035 C 
BRANCH  31  33
ATOM     33  O   UNL     1       0.635  -6.705  -1.941  0.00  0.00    -0.394 OA
ATOM     34  H   UNL     1       0.460  -6.232  -2.766  0.00  0.00    +0.210 HD
ENDBRANCH  31  33
ENDBRANCH  30  31
ENDBRANCH  22  30
ENDBRANCH  21  22
ENDBRANCH   2  21
TORSDOF 10
