REMARK  Name = ZINC09137960
REMARK  9 active torsions:
REMARK  status: ('A' for Active; 'I' for Inactive)
REMARK    1  A    between atoms: C_1  and  C_2
REMARK    2  A    between atoms: C_7  and  O_8
REMARK    3  A    between atoms: O_8  and  C_9
REMARK    4  A    between atoms: C_9  and  C_10
REMARK    5  A    between atoms: N_12  and  C_13
REMARK    6  A    between atoms: C_13  and  C_14
REMARK    7  A    between atoms: C_14  and  C_16
REMARK    8  A    between atoms: C_14  and  N_66
REMARK    9  A    between atoms: N_25  and  C_26
REMARK                            x       y       z     vdW  Elec       q    Type
REMARK                         _______ _______ _______ _____ _____    ______ ____
ROOT
ATOM      1  C   UNL     1      -2.338   1.504  -0.964  0.00  0.00    -0.020 C 
ENDROOT
BRANCH   1   2
ATOM      2  C   UNL     1      -3.054   2.374   0.037  0.00  0.00    -0.059 A 
ATOM      3  C   UNL     1      -2.501   2.590   1.286  0.00  0.00    +0.004 A 
ATOM      4  C   UNL     1      -3.156   3.389   2.199  0.00  0.00    +0.023 A 
ATOM      5  C   UNL     1      -4.382   3.973   1.876  0.00  0.00    +0.033 A 
ATOM      6  C   UNL     1      -4.931   3.752   0.625  0.00  0.00    -0.026 A 
ATOM      7  C   UNL     1      -4.264   2.951  -0.289  0.00  0.00    +0.007 A 
ATOM      8  C   UNL     1      -6.246   4.362   0.210  0.00  0.00    +0.038 C 
ATOM      9  C   UNL     1      -6.990   4.872   1.446  0.00  0.00    +0.024 C 
ATOM     10  C   UNL     1      -5.998   5.677   2.295  0.00  0.00    +0.105 C 
ATOM     11  N   UNL     1      -5.001   4.758   2.848  0.00  0.00    -0.333 N 
ATOM     12  C   UNL     1      -4.007   5.481   3.652  0.00  0.00    +0.129 C 
ENDBRANCH   1   2
BRANCH   1  18
ATOM     13  C   UNL     1      -3.816  -0.402  -0.751  0.00  0.00    -0.078 C 
ATOM     14  C   UNL     1      -3.860  -1.903  -0.456  0.00  0.00    -0.019 C 
ATOM     15  C   UNL     1      -3.407  -2.148   0.986  0.00  0.00    -0.004 C 
ATOM     16  C   UNL     1      -1.999  -1.577   1.175  0.00  0.00    -0.019 C 
ATOM     17  C   UNL     1      -2.009  -0.086   0.832  0.00  0.00    -0.078 C 
ATOM     18  N   UNL     1      -2.430   0.081  -0.575  0.00  0.00    +0.385 N 
ATOM     19  H   UNL     1      -1.807  -0.470  -1.177  0.00  0.00    -0.081 HD
ENDBRANCH   1  18
BRANCH   1  20
ATOM     20  C   UNL     1      -0.863   1.903  -1.024  0.00  0.00    +0.093 C 
BRANCH  20  23
ATOM     21  C   UNL     1       1.165   1.176  -2.163  0.00  0.00    +0.251 C 
ATOM     22  O   UNL     1       1.744   2.125  -1.676  0.00  0.00    -0.272 OA
ATOM     23  N   UNL     1      -0.140   0.974  -1.897  0.00  0.00    -0.314 N 
ATOM     24  H   UNL     1      -0.603   0.215  -2.286  0.00  0.00    +0.149 HD
BRANCH  21  25
ATOM     25  C   UNL     1       1.907   0.223  -3.065  0.00  0.00    +0.324 C 
BRANCH  25  26
ATOM     26  O   UNL     1       3.265   0.648  -3.192  0.00  0.00    -0.483 OA
BRANCH  26  33
ATOM     27  C   UNL     1       5.955   1.468  -3.456  0.00  0.00    +0.047 C 
ATOM     28  C   UNL     1       5.408   0.246  -4.145  0.00  0.00    -0.009 A 
ATOM     29  C   UNL     1       6.231  -0.524  -4.944  0.00  0.00    +0.007 A 
ATOM     30  C   UNL     1       5.729  -1.647  -5.577  0.00  0.00    +0.000 A 
ATOM     31  C   UNL     1       4.403  -2.002  -5.411  0.00  0.00    +0.004 A 
ATOM     32  C   UNL     1       3.577  -1.238  -4.609  0.00  0.00    +0.046 A 
ATOM     33  C   UNL     1       4.077  -0.108  -3.978  0.00  0.00    +0.124 A 
ENDBRANCH  26  33
ENDBRANCH  25  26
ENDBRANCH  21  25
ENDBRANCH  20  23
ENDBRANCH   1  20
TORSDOF 7
