REMARK  Name = ZINC44169480
REMARK  7 active torsions:
REMARK  status: ('A' for Active; 'I' for Inactive)
REMARK    1  A    between atoms: C_4  and  C_7
REMARK    2  A    between atoms: C_7  and  C_8
REMARK    3  A    between atoms: C_7  and  C_31
REMARK    4  A    between atoms: C_8  and  N_9
REMARK    5  A    between atoms: C_10  and  C_12
REMARK    6  A    between atoms: C_17  and  C_20
REMARK    7  A    between atoms: C_23  and  N_26
REMARK                            x       y       z     vdW  Elec       q    Type
REMARK                         _______ _______ _______ _____ _____    ______ ____
ROOT
ATOM      1  C   UNL     1       6.022  -3.995   2.779  0.00  0.00    +0.027 C 
ATOM      2  C   UNL     1       6.177  -4.963   1.600  0.00  0.00    +0.062 C 
ATOM      3  S   UNL     1       7.689  -5.943   1.861  0.00  0.00    -0.163 S 
ATOM      4  C   UNL     1       7.492  -6.530   3.573  0.00  0.00    +0.058 C 
ATOM      5  C   UNL     1       7.140  -5.328   4.456  0.00  0.00    -0.030 C 
ATOM      6  N   UNL     1       5.865  -4.750   4.024  0.00  0.00    +0.392 N 
ATOM      7  H   UNL     1       5.522  -4.133   4.744  0.00  0.00    -0.084 HD
ATOM      8  H   UNL     1       5.197  -5.492   3.878  0.00  0.00    -0.084 HD
ENDROOT
BRANCH   5   9
ATOM      9  C   UNL     1       7.023  -5.777   5.890  0.00  0.00    -0.060 A 
ATOM     10  C   UNL     1       5.868  -6.400   6.326  0.00  0.00    +0.004 A 
ATOM     11  C   UNL     1       5.758  -6.813   7.639  0.00  0.00    +0.023 A 
ATOM     12  C   UNL     1       6.809  -6.602   8.523  0.00  0.00    +0.030 A 
ATOM     13  C   UNL     1       7.968  -5.976   8.082  0.00  0.00    +0.023 A 
ATOM     14  C   UNL     1       8.074  -5.571   6.766  0.00  0.00    +0.004 A 
BRANCH  12  15
ATOM     15  N   UNL     1       6.701  -7.018   9.852  0.00  0.00    -0.330 N 
ATOM     16  C   UNL     1       5.538  -7.694  10.446  0.00  0.00    +0.105 C 
ATOM     17  C   UNL     1       5.861  -7.936  11.935  0.00  0.00    +0.020 C 
ATOM     18  C   UNL     1       6.955  -6.876  12.230  0.00  0.00    +0.020 C 
ATOM     19  C   UNL     1       7.735  -6.857  10.889  0.00  0.00    +0.105 C 
ENDBRANCH  12  15
ENDBRANCH   5   9
BRANCH   1  21
ATOM     20  N   UNL     1       4.729  -2.340   1.473  0.00  0.00    -0.316 N 
ATOM     21  C   UNL     1       4.807  -3.131   2.561  0.00  0.00    +0.200 C 
ATOM     22  O   UNL     1       3.899  -3.148   3.365  0.00  0.00    -0.278 OA
ATOM     23  H   UNL     1       5.455  -2.326   0.830  0.00  0.00    +0.149 HD
BRANCH  20  24
ATOM     24  C   UNL     1       3.547  -1.500   1.261  0.00  0.00    +0.117 C 
BRANCH  24  25
ATOM     25  C   UNL     1       3.711  -0.707  -0.038  0.00  0.00    +0.066 C 
BRANCH  25  29
ATOM     26  C   UNL     1       0.433   1.995  -0.481  0.00  0.00    +0.000 A 
ATOM     27  C   UNL     1       1.730   2.461  -0.579  0.00  0.00    +0.000 A 
ATOM     28  C   UNL     1       2.791   1.587  -0.435  0.00  0.00    +0.004 A 
ATOM     29  C   UNL     1       2.555   0.246  -0.193  0.00  0.00    -0.038 A 
ATOM     30  C   UNL     1       1.257  -0.219  -0.095  0.00  0.00    +0.004 A 
ATOM     31  C   UNL     1       0.196   0.655  -0.240  0.00  0.00    +0.000 A 
ENDBRANCH  25  29
BRANCH  25  32
ATOM     32  C   UNL     1       3.740  -1.658  -1.207  0.00  0.00    -0.038 A 
ATOM     33  C   UNL     1       2.732  -2.591  -1.363  0.00  0.00    +0.004 A 
ATOM     34  C   UNL     1       2.758  -3.463  -2.435  0.00  0.00    +0.000 A 
ATOM     35  C   UNL     1       3.791  -3.401  -3.351  0.00  0.00    +0.000 A 
ATOM     36  C   UNL     1       4.798  -2.467  -3.196  0.00  0.00    +0.000 A 
ATOM     37  C   UNL     1       4.770  -1.592  -2.126  0.00  0.00    +0.004 A 
ENDBRANCH  25  32
ENDBRANCH  24  25
ENDBRANCH  20  24
ENDBRANCH   1  21
TORSDOF 7
