REMARK  Name = ZINC35108500
REMARK  12 active torsions:
REMARK  status: ('A' for Active; 'I' for Inactive)
REMARK    1  A    between atoms: C_1  and  C_2
REMARK    2  A    between atoms: C_2  and  C_3
REMARK    3  A    between atoms: C_3  and  C_4
REMARK    4  A    between atoms: C_4  and  C_5
REMARK    5  A    between atoms: C_5  and  C_6
REMARK    6  A    between atoms: C_9  and  C_41
REMARK    7  A    between atoms: C_11  and  C_33
REMARK    8  A    between atoms: C_13  and  C_25
REMARK    9  A    between atoms: C_25  and  C_27
REMARK   10  A    between atoms: C_36  and  O_39
REMARK   11  A    between atoms: O_39  and  C_40
REMARK   12  A    between atoms: C_41  and  C_42
REMARK                            x       y       z     vdW  Elec       q    Type
REMARK                         _______ _______ _______ _____ _____    ______ ____
ROOT
ATOM      1  C   UNL     1       2.134  -3.966   2.287  0.00  0.00    +0.217 C 
ATOM      2  O   UNL     1       1.448  -4.528   1.459  0.00  0.00    -0.276 OA
ATOM      3  N   UNL     1       2.543  -4.630   3.386  0.00  0.00    -0.279 N 
ATOM      4  C   UNL     1       3.269  -4.043   4.529  0.00  0.00    +0.085 C 
ATOM      5  C   UNL     1       4.021  -5.234   5.176  0.00  0.00    +0.053 C 
ATOM      6  C   UNL     1       2.994  -6.386   5.001  0.00  0.00    +0.106 C 
ATOM      7  C   UNL     1       2.336  -6.054   3.652  0.00  0.00    +0.151 C 
ATOM      8  C   UNL     1       0.872  -6.404   3.667  0.00  0.00    +0.007 A 
ATOM      9  C   UNL     1      -0.194  -5.973   4.426  0.00  0.00    +0.008 A 
ATOM     10  C   UNL     1      -1.456  -6.493   4.203  0.00  0.00    +0.000 A 
ATOM     11  C   UNL     1      -1.644  -7.445   3.217  0.00  0.00    +0.002 A 
ATOM     12  C   UNL     1      -0.580  -7.878   2.455  0.00  0.00    +0.023 A 
ATOM     13  C   UNL     1       0.695  -7.359   2.672  0.00  0.00    +0.039 A 
ATOM     14  N   UNL     1       1.910  -7.630   2.041  0.00  0.00    -0.283 N 
ATOM     15  C   UNL     1       2.922  -6.906   2.555  0.00  0.00    +0.246 C 
ATOM     16  O   UNL     1       4.082  -6.933   2.203  0.00  0.00    -0.273 OA
ATOM     17  H   UNL     1       2.014  -8.266   1.317  0.00  0.00    +0.155 HD
ENDROOT
BRANCH   5  18
ATOM     18  C   UNL     1       4.295  -4.972   6.635  0.00  0.00    -0.042 A 
ATOM     19  C   UNL     1       3.254  -4.977   7.544  0.00  0.00    +0.007 A 
ATOM     20  C   UNL     1       3.502  -4.736   8.882  0.00  0.00    +0.046 A 
ATOM     21  C   UNL     1       4.798  -4.489   9.312  0.00  0.00    +0.120 A 
ATOM     22  C   UNL     1       5.841  -4.485   8.397  0.00  0.00    +0.046 A 
ATOM     23  C   UNL     1       5.588  -4.731   7.061  0.00  0.00    +0.007 A 
BRANCH  21  24
ATOM     24  O   UNL     1       5.045  -4.252  10.627  0.00  0.00    -0.495 OA
ATOM     25  C   UNL     1       6.403  -4.005  10.998  0.00  0.00    +0.277 C 
ENDBRANCH  21  24
ENDBRANCH   5  18
BRANCH   6  26
ATOM     26  C   UNL     1       3.691  -7.721   4.950  0.00  0.00    +0.170 C 
ATOM     27  O   UNL     1       4.847  -7.787   4.589  0.00  0.00    -0.292 OA
BRANCH  26  28
ATOM     28  C   UNL     1       2.970  -8.944   5.337  0.00  0.00    +0.018 A 
ATOM     29  C   UNL     1       1.635  -8.872   5.748  0.00  0.00    +0.011 A 
ATOM     30  C   UNL     1       0.966 -10.022   6.110  0.00  0.00    +0.001 A 
ATOM     31  C   UNL     1       1.612 -11.245   6.066  0.00  0.00    +0.000 A 
ATOM     32  C   UNL     1       2.933 -11.325   5.661  0.00  0.00    +0.001 A 
ATOM     33  C   UNL     1       3.614 -10.184   5.291  0.00  0.00    +0.011 A 
ENDBRANCH  26  28
ENDBRANCH   6  26
BRANCH   4  34
ATOM     34  C   UNL     1       2.285  -3.427   5.526  0.00  0.00    +0.020 C 
ATOM     35  C   UNL     1       1.542  -2.268   4.859  0.00  0.00    +0.006 C 
ENDBRANCH   4  34
BRANCH   1  36
ATOM     36  C   UNL     1       2.529  -2.526   2.087  0.00  0.00    +0.096 C 
BRANCH  36  37
ATOM     37  C   UNL     1       2.099  -2.068   0.691  0.00  0.00    +0.009 C 
BRANCH  37  38
ATOM     38  C   UNL     1       2.500  -0.606   0.488  0.00  0.00    +0.000 C 
BRANCH  38  40
ATOM     39  C   UNL     1       2.471   1.314  -1.111  0.00  0.00    +0.004 C 
ATOM     40  C   UNL     1       2.070  -0.148  -0.907  0.00  0.00    -0.003 C 
ENDBRANCH  38  40
ENDBRANCH  37  38
ENDBRANCH  36  37
ENDBRANCH   1  36
TORSDOF 9
