REMARK  Name = ZINC50987709
REMARK  3 active torsions:
REMARK  status: ('A' for Active; 'I' for Inactive)
REMARK    1  A    between atoms: C_2  and  C_3
REMARK    2  A    between atoms: C_3  and  N_4
REMARK    3  A    between atoms: C_7  and  C_10
REMARK                            x       y       z     vdW  Elec       q    Type
REMARK                         _______ _______ _______ _____ _____    ______ ____
ROOT
ATOM      1  N   UNL     1      -0.704   1.940   1.215  0.00  0.00    -0.269 N 
ATOM      2  C   UNL     1      -0.095   2.203   2.410  0.00  0.00    +0.161 C 
ATOM      3  N   UNL     1      -0.910   2.607   3.319  0.00  0.00    -0.366 N 
ATOM      4  C   UNL     1      -2.261   2.648   2.740  0.00  0.00    +0.172 C 
ATOM      5  C   UNL     1      -2.056   2.190   1.308  0.00  0.00    +0.101 C 
ATOM      6  N   UNL     1      -2.949   2.060   0.383  0.00  0.00    -0.388 N 
ATOM      7  H   UNL     1      -2.692   1.754  -0.500  0.00  0.00    +0.157 HD
ATOM      8  H   UNL     1      -3.877   2.269   0.573  0.00  0.00    +0.157 HD
ATOM      9  H   UNL     1      -0.674   2.844   4.230  0.00  0.00    +0.161 HD
ENDROOT
BRANCH   4  10
ATOM     10  C   UNL     1      -3.180   1.706   3.474  0.00  0.00    -0.015 A 
ATOM     11  C   UNL     1      -2.711   0.482   3.911  0.00  0.00    +0.026 A 
ATOM     12  C   UNL     1      -3.554  -0.383   4.586  0.00  0.00    +0.043 A 
ATOM     13  C   UNL     1      -4.868  -0.021   4.823  0.00  0.00    +0.040 A 
ATOM     14  C   UNL     1      -5.338   1.204   4.386  0.00  0.00    +0.043 A 
ATOM     15  C   UNL     1      -4.492   2.070   3.716  0.00  0.00    +0.026 A 
ATOM     16 CL   UNL     1      -6.987   1.658   4.683  0.00  0.00    -0.083 Cl
ATOM     17 CL   UNL     1      -2.964  -1.921   5.133  0.00  0.00    -0.083 Cl
ENDBRANCH   4  10
BRANCH   1  18
ATOM     18  C   UNL     1      -0.018   1.468   0.010  0.00  0.00    +0.201 C 
BRANCH  18  20
ATOM     19  C   UNL     1       0.018  -1.178  -0.004  0.00  0.00    +0.005 C 
ATOM     20  C   UNL     1       0.002  -0.004   0.002  0.00  0.00    -0.086 C 
ENDBRANCH  18  20
ENDBRANCH   1  18
TORSDOF 3
