REMARK  Name = ZINC08502017
REMARK  2 active torsions:
REMARK  status: ('A' for Active; 'I' for Inactive)
REMARK    1  A    between atoms: N_14  and  C_18
REMARK    2  A    between atoms: C_18  and  C_19
REMARK                            x       y       z     vdW  Elec       q    Type
REMARK                         _______ _______ _______ _____ _____    ______ ____
ROOT
ATOM      1  C   UNL     1       2.121   4.972   3.743  0.00  0.00    +0.000 A 
ATOM      2  C   UNL     1       2.398   3.672   3.362  0.00  0.00    +0.000 A 
ATOM      3  C   UNL     1       1.904   3.186   2.169  0.00  0.00    +0.006 A 
ATOM      4  C   UNL     1       1.127   3.997   1.343  0.00  0.00    -0.012 A 
ATOM      5  C   UNL     1       0.853   5.277   1.724  0.00  0.00    -0.042 A 
ATOM      6  C   UNL     1       1.351   5.773   2.926  0.00  0.00    +0.004 A 
ATOM      7  C   UNL     1       0.011   6.225   0.896  0.00  0.00    +0.035 C 
ATOM      8  C   UNL     1       0.727   6.514  -0.422  0.00  0.00    +0.005 C 
ATOM      9  C   UNL     1       0.461   5.416  -1.432  0.00  0.00    +0.003 C 
ATOM     10  C   UNL     1       1.196   4.122  -1.150  0.00  0.00    +0.040 C 
ATOM     11  C   UNL     1       0.631   3.381   0.056  0.00  0.00    +0.138 C 
ATOM     12  C   UNL     1      -0.865   3.268   0.022  0.00  0.00    +0.251 C 
ATOM     13  O   UNL     1      -1.701   4.146  -0.003  0.00  0.00    -0.272 OA
ATOM     14  N   UNL     1      -1.135   1.941   0.018  0.00  0.00    -0.219 N 
ATOM     15  C   UNL     1      -0.014   1.212   0.009  0.00  0.00    +0.310 C 
ATOM     16  O   UNL     1       0.002  -0.004   0.002  0.00  0.00    -0.252 OA
ATOM     17  N   UNL     1       1.091   1.977   0.002  0.00  0.00    -0.281 N 
ATOM     18  H   UNL     1       2.012   1.682  -0.037  0.00  0.00    +0.152 HD
ENDROOT
BRANCH  14  19
ATOM     19  C   UNL     1      -2.488   1.380   0.024  0.00  0.00    +0.157 C 
BRANCH  19  20
ATOM     20  C   UNL     1      -2.944   1.183   1.446  0.00  0.00    +0.014 A 
ATOM     21  C   UNL     1      -2.884  -0.070   2.024  0.00  0.00    +0.028 A 
ATOM     22  C   UNL     1      -3.303  -0.251   3.330  0.00  0.00    +0.042 A 
ATOM     23  C   UNL     1      -3.784   0.823   4.058  0.00  0.00    +0.029 A 
ATOM     24  C   UNL     1      -3.848   2.078   3.483  0.00  0.00    +0.022 A 
ATOM     25  C   UNL     1      -3.420   2.263   2.178  0.00  0.00    +0.134 A 
ATOM     26  O   UNL     1      -3.475   3.493   1.601  0.00  0.00    -0.466 OA
ATOM     27  C   UNL     1      -4.297   4.473   2.241  0.00  0.00    +0.394 C 
ATOM     28  O   UNL     1      -4.009   4.464   3.645  0.00  0.00    -0.339 OA
ATOM     29  C   UNL     1      -4.379   3.239   4.285  0.00  0.00    +0.202 C 
ATOM     30 CL   UNL     1      -3.224  -1.826   4.056  0.00  0.00    -0.084 Cl
ENDBRANCH  19  20
ENDBRANCH  14  19
TORSDOF 2
