REMARK  Name = ZINC63506790
REMARK  11 active torsions:
REMARK  status: ('A' for Active; 'I' for Inactive)
REMARK    1  A    between atoms: C_1  and  C_2
REMARK    2  A    between atoms: C_6  and  C_36
REMARK    3  A    between atoms: C_7  and  N_8
REMARK    4  A    between atoms: C_9  and  C_11
REMARK    5  A    between atoms: C_11  and  N_17
REMARK    6  A    between atoms: N_17  and  C_18
REMARK    7  A    between atoms: C_18  and  C_19
REMARK    8  A    between atoms: C_19  and  C_20
REMARK    9  A    between atoms: C_29  and  C_31
REMARK   10  A    between atoms: C_31  and  N_32
REMARK   11  A    between atoms: C_33  and  C_35
REMARK                            x       y       z     vdW  Elec       q    Type
REMARK                         _______ _______ _______ _____ _____    ______ ____
ROOT
ATOM      1  N   UNL     1       0.449   1.294   4.560  0.00  0.00    -0.286 N 
ATOM      2  C   UNL     1       1.783   1.185   4.403  0.00  0.00    +0.234 C 
ATOM      3  O   UNL     1       2.503   2.126   4.662  0.00  0.00    -0.274 OA
ENDROOT
BRANCH   1   4
ATOM      4  C   UNL     1      -0.406   0.115   4.403  0.00  0.00    +0.114 C 
ATOM      5  C   UNL     1      -1.873   0.525   4.552  0.00  0.00    +0.035 C 
ATOM      6  C   UNL     1      -2.094   1.134   5.938  0.00  0.00    +0.003 C 
ATOM      7  C   UNL     1      -1.741   0.102   7.011  0.00  0.00    +0.000 C 
ATOM      8  C   UNL     1      -0.274  -0.308   6.862  0.00  0.00    +0.003 C 
ATOM      9  C   UNL     1      -0.053  -0.917   5.476  0.00  0.00    +0.035 C 
BRANCH   4  11
ATOM     10  N   UNL     1       0.006   0.317   1.972  0.00  0.00    -0.283 N 
ATOM     11  C   UNL     1      -0.189  -0.485   3.038  0.00  0.00    +0.241 C 
ATOM     12  O   UNL     1      -0.189  -1.690   2.898  0.00  0.00    -0.273 OA
ATOM     13  H   UNL     1       0.053   1.279   2.091  0.00  0.00    +0.155 HD
BRANCH  10  20
ATOM     14  C   UNL     1       2.091   1.291   0.297  0.00  0.00    +0.045 C 
ATOM     15  C   UNL     1       1.144   0.209  -0.155  0.00  0.00    -0.029 A 
ATOM     16  C   UNL     1       1.278  -0.345  -1.413  0.00  0.00    +0.005 A 
ATOM     17  C   UNL     1       0.410  -1.337  -1.829  0.00  0.00    +0.001 A 
ATOM     18  C   UNL     1      -0.594  -1.779  -0.988  0.00  0.00    +0.005 A 
ATOM     19  C   UNL     1      -0.733  -1.230   0.272  0.00  0.00    -0.029 A 
ATOM     20  C   UNL     1       0.141  -0.237   0.695  0.00  0.00    +0.039 A 
ATOM     21  C   UNL     1      -1.828  -1.712   1.188  0.00  0.00    +0.045 C 
ENDBRANCH  10  20
ENDBRANCH   4  11
ENDBRANCH   1   4
BRANCH   1  22
ATOM     22  C   UNL     1      -0.146   2.592   4.888  0.00  0.00    +0.113 C 
BRANCH  22  23
ATOM     23  C   UNL     1       0.160   2.940   6.346  0.00  0.00    +0.052 C 
BRANCH  23  24
ATOM     24  C   UNL     1      -0.410   4.297   6.669  0.00  0.00    -0.040 C 
ATOM     25  C   UNL     1      -1.613   4.563   7.227  0.00  0.00    -0.001 A 
ATOM     26  C   UNL     1      -2.710   3.700   7.682  0.00  0.00    +0.010 A 
ATOM     27  C   UNL     1      -3.817   4.270   8.210  0.00  0.00    +0.001 A 
ATOM     28  C   UNL     1      -3.942   5.661   8.334  0.00  0.00    +0.002 A 
ATOM     29  C   UNL     1      -2.977   6.518   7.939  0.00  0.00    +0.026 A 
ATOM     30  C   UNL     1      -1.770   6.028   7.369  0.00  0.00    +0.043 A 
ATOM     31  N   UNL     1      -0.705   6.644   6.917  0.00  0.00    -0.380 N 
ATOM     32  C   UNL     1       0.251   5.638   6.441  0.00  0.00    +0.144 C 
ATOM     33  H   UNL     1      -0.570   7.605   6.902  0.00  0.00    +0.160 HD
ENDBRANCH  23  24
ENDBRANCH  22  23
ENDBRANCH   1  22
BRANCH   2  34
ATOM     34  C   UNL     1       2.380  -0.106   3.905  0.00  0.00    +0.200 C 
BRANCH  34  35
ATOM     35  N   UNL     1       3.834   0.036   3.803  0.00  0.00    -0.307 N 
ATOM     36  C   UNL     1       4.584  -0.999   3.376  0.00  0.00    +0.210 C 
ATOM     37  O   UNL     1       4.054  -2.048   3.075  0.00  0.00    -0.276 OA
ATOM     38  C   UNL     1       6.080  -0.854   3.272  0.00  0.00    +0.109 C 
ATOM     39  H   UNL     1       4.258   0.875   4.044  0.00  0.00    +0.149 HD
ENDBRANCH  34  35
ENDBRANCH   2  34
TORSDOF 8
