REMARK  Name = ZINC60319358
REMARK  8 active torsions:
REMARK  status: ('A' for Active; 'I' for Inactive)
REMARK    1  A    between atoms: C_4  and  N_24
REMARK    2  A    between atoms: C_5  and  N_7
REMARK    3  A    between atoms: C_8  and  C_10
REMARK    4  A    between atoms: C_10  and  S_11
REMARK    5  A    between atoms: S_11  and  C_12
REMARK    6  A    between atoms: C_15  and  C_21
REMARK    7  A    between atoms: C_17  and  N_18
REMARK    8  A    between atoms: C_27  and  C_30
REMARK                            x       y       z     vdW  Elec       q    Type
REMARK                         _______ _______ _______ _____ _____    ______ ____
ROOT
ATOM      1  N   UNL     1       1.234  -2.082  -0.021  0.00  0.00    -0.283 N 
ATOM      2  C   UNL     1       0.181  -2.769  -0.509  0.00  0.00    +0.227 C 
ATOM      3  O   UNL     1      -0.744  -2.178  -1.023  0.00  0.00    -0.275 OA
ATOM      4  H   UNL     1       2.009  -2.558   0.317  0.00  0.00    +0.155 HD
ENDROOT
BRANCH   1   9
ATOM      5  C   UNL     1      -0.028   1.374   0.036  0.00  0.00    +0.002 A 
ATOM      6  C   UNL     1       1.155   2.089   0.033  0.00  0.00    +0.002 A 
ATOM      7  C   UNL     1       2.368   1.427   0.011  0.00  0.00    +0.025 A 
ATOM      8  C   UNL     1       2.401   0.040  -0.007  0.00  0.00    +0.051 A 
ATOM      9  C   UNL     1       1.208  -0.681  -0.003  0.00  0.00    +0.055 A 
ATOM     10  C   UNL     1      -0.005  -0.008   0.019  0.00  0.00    +0.025 A 
BRANCH   8  11
ATOM     11  N   UNL     1       3.627  -0.632  -0.029  0.00  0.00    -0.328 N 
ATOM     12  C   UNL     1       4.272  -0.971  -1.305  0.00  0.00    +0.106 C 
ATOM     13  C   UNL     1       4.581  -2.471  -1.319  0.00  0.00    +0.031 C 
ATOM     14  C   UNL     1       5.408  -2.829  -0.082  0.00  0.00    +0.078 C 
ATOM     15  C   UNL     1       4.604  -2.513   1.181  0.00  0.00    +0.031 C 
ATOM     16  C   UNL     1       4.298  -1.008   1.223  0.00  0.00    +0.106 C 
BRANCH  14  17
ATOM     17  C   UNL     1       5.742  -4.298  -0.110  0.00  0.00    +0.214 C 
ATOM     18  O   UNL     1       5.357  -4.991  -1.028  0.00  0.00    -0.276 OA
ATOM     19  N   UNL     1       6.470  -4.843   0.886  0.00  0.00    -0.329 N 
ATOM     20  H   UNL     1       6.778  -4.289   1.620  0.00  0.00    +0.145 HD
ATOM     21  H   UNL     1       6.685  -5.788   0.868  0.00  0.00    +0.145 HD
ENDBRANCH  14  17
ENDBRANCH   8  11
ENDBRANCH   1   9
BRANCH   2  22
ATOM     22  C   UNL     1       0.155  -4.273  -0.415  0.00  0.00    +0.170 C 
BRANCH  22  23
ATOM     23  S   UNL     1      -1.380  -4.898  -1.153  0.00  0.00    -0.114 S 
BRANCH  23  24
ATOM     24  C   UNL     1      -1.261  -6.646  -0.968  0.00  0.00    +0.039 A 
ATOM     25  C   UNL     1      -0.144  -7.206  -0.351  0.00  0.00    +0.018 A 
ATOM     26  C   UNL     1      -0.046  -8.560  -0.205  0.00  0.00    +0.014 A 
ATOM     27  C   UNL     1      -1.069  -9.391  -0.674  0.00  0.00    +0.039 A 
ATOM     28  C   UNL     1      -2.191  -8.832  -1.293  0.00  0.00    +0.047 A 
ATOM     29  C   UNL     1      -2.287  -7.466  -1.432  0.00  0.00    +0.140 A 
BRANCH  27  30
ATOM     30  C   UNL     1      -0.963 -10.853  -0.517  0.00  0.00    +0.242 C 
ATOM     31  O   UNL     1      -1.853 -11.575  -0.925  0.00  0.00    -0.270 OA
ATOM     32  N   UNL     1       0.120 -11.390   0.079  0.00  0.00    -0.325 N 
ATOM     33  H   UNL     1       0.830 -10.815   0.405  0.00  0.00    +0.145 HD
ATOM     34  H   UNL     1       0.189 -12.352   0.182  0.00  0.00    +0.145 HD
ENDBRANCH  27  30
BRANCH  29  35
ATOM     35  N   UNL     1      -3.476  -6.869  -2.081  0.00  0.00    +0.058 N 
ATOM     36  O   UNL     1      -4.366  -7.581  -2.484  0.00  0.00    -0.126 OA
ATOM     37  O   UNL     1      -3.557  -5.670  -2.208  0.00  0.00    -0.126 OA
ENDBRANCH  29  35
ENDBRANCH  23  24
ENDBRANCH  22  23
ENDBRANCH   2  22
TORSDOF 8
