REMARK  Name = ZINC55064374
REMARK  8 active torsions:
REMARK  status: ('A' for Active; 'I' for Inactive)
REMARK    1  A    between atoms: C_1  and  C_2
REMARK    2  A    between atoms: C_2  and  C_3
REMARK    3  A    between atoms: C_3  and  C_5
REMARK    4  A    between atoms: C_3  and  N_6
REMARK    5  A    between atoms: N_9  and  C_12
REMARK    6  A    between atoms: C_12  and  C_14
REMARK    7  A    between atoms: C_12  and  C_16
REMARK    8  A    between atoms: C_14  and  N_15
REMARK                            x       y       z     vdW  Elec       q    Type
REMARK                         _______ _______ _______ _____ _____    ______ ____
ROOT
ATOM      1  C   UNL     1      -4.788   2.114  -3.493  0.00  0.00    +0.105 C 
ENDROOT
BRANCH   1   5
ATOM      2  N   UNL     1      -1.999   0.019  -1.105  0.00  0.00    +0.383 N 
ATOM      3  C   UNL     1      -1.785   1.457  -1.317  0.00  0.00    -0.063 C 
ATOM      4  C   UNL     1      -2.566   1.913  -2.551  0.00  0.00    +0.066 C 
ATOM      5  N   UNL     1      -3.996   1.638  -2.351  0.00  0.00    -0.298 NA
ATOM      6  C   UNL     1      -4.223   0.205  -2.113  0.00  0.00    +0.066 C 
ATOM      7  C   UNL     1      -3.428  -0.237  -0.883  0.00  0.00    -0.063 C 
ATOM      8  H   UNL     1      -1.689  -0.490  -1.919  0.00  0.00    -0.081 HD
BRANCH   2   9
ATOM      9  C   UNL     1      -1.234  -0.422   0.069  0.00  0.00    -0.072 C 
ATOM     10  C   UNL     1      -1.798   0.245   1.325  0.00  0.00    -0.013 C 
BRANCH   9  12
ATOM     11  C   UNL     1      -0.693  -2.611  -1.006  0.00  0.00    +0.002 C 
ATOM     12  C   UNL     1      -1.343  -1.942   0.206  0.00  0.00    -0.019 C 
ENDBRANCH   9  12
ENDBRANCH   2   9
ENDBRANCH   1   5
BRANCH   1  13
ATOM     13  C   UNL     1      -4.327   1.421  -4.749  0.00  0.00    +0.123 A 
ATOM     14  C   UNL     1      -4.045   2.020  -5.919  0.00  0.00    +0.062 A 
ATOM     15  C   UNL     1      -3.652   1.000  -6.817  0.00  0.00    +0.070 A 
ATOM     16  C   UNL     1      -3.718  -0.162  -6.141  0.00  0.00    +0.184 A 
ATOM     17  O   UNL     1      -4.123   0.100  -4.887  0.00  0.00    -0.450 OA
ATOM     18 BR   UNL     1      -3.305  -1.872  -6.836  0.00  0.00    -0.007 Br
ATOM     19 BR   UNL     1      -3.134   1.226  -8.622  0.00  0.00    -0.046 Br
ENDBRANCH   1  13
BRANCH   1  20
ATOM     20  C   UNL     1      -6.267   1.803  -3.252  0.00  0.00    -0.059 C 
BRANCH  20  21
ATOM     21  N   UNL     1      -6.686   2.379  -1.967  0.00  0.00    +0.379 N 
ATOM     22  H   UNL     1      -7.661   2.174  -1.809  0.00  0.00    -0.090 HD
ATOM     23  H   UNL     1      -6.133   1.980  -1.224  0.00  0.00    -0.090 HD
ATOM     24  H   UNL     1      -6.551   3.379  -1.987  0.00  0.00    -0.090 HD
ENDBRANCH  20  21
ENDBRANCH   1  20
TORSDOF 6
