REMARK  Name = ZINC06409946
REMARK  12 active torsions:
REMARK  status: ('A' for Active; 'I' for Inactive)
REMARK    1  A    between atoms: C_1  and  C_2
REMARK    2  A    between atoms: C_7  and  C_14
REMARK    3  A    between atoms: C_14  and  C_16
REMARK    4  A    between atoms: C_14  and  N_66
REMARK    5  A    between atoms: N_20  and  C_21
REMARK    6  A    between atoms: C_21  and  C_22
REMARK    7  A    between atoms: C_21  and  C_23
REMARK    8  A    between atoms: C_21  and  C_24
REMARK    9  A    between atoms: C_25  and  C_26
REMARK   10  A    between atoms: C_25  and  N_66
REMARK   11  A    between atoms: C_33  and  C_34
REMARK   12  A    between atoms: C_33  and  N_66
REMARK                            x       y       z     vdW  Elec       q    Type
REMARK                         _______ _______ _______ _____ _____    ______ ____
ROOT
ATOM      1  C   UNL     1      -4.364   0.720   0.771  0.00  0.00    +0.040 C 
ENDROOT
BRANCH   1   8
ATOM      2  C   UNL     1       2.516   4.226   2.770  0.00  0.00    +0.044 C 
ATOM      3  C   UNL     1       1.338   3.364   2.393  0.00  0.00    -0.048 A 
ATOM      4  C   UNL     1       1.509   1.995   2.243  0.00  0.00    +0.004 A 
ATOM      5  C   UNL     1       0.455   1.196   1.902  0.00  0.00    +0.010 A 
ATOM      6  C   UNL     1      -0.807   1.763   1.695  0.00  0.00    -0.001 A 
ATOM      7  C   UNL     1      -1.959   0.936   1.333  0.00  0.00    +0.017 A 
ATOM      8  C   UNL     1      -3.159   1.541   1.149  0.00  0.00    +0.011 A 
ATOM      9  C   UNL     1      -3.283   2.938   1.312  0.00  0.00    +0.251 A 
ATOM     10  O   UNL     1      -4.370   3.462   1.142  0.00  0.00    -0.268 OA
ATOM     11  N   UNL     1      -2.231   3.705   1.649  0.00  0.00    -0.322 N 
ATOM     12  H   UNL     1      -2.352   4.662   1.754  0.00  0.00    +0.169 HD
ATOM     13  C   UNL     1      -0.985   3.151   1.850  0.00  0.00    +0.049 A 
ATOM     14  C   UNL     1       0.103   3.945   2.199  0.00  0.00    +0.029 A 
ENDBRANCH   1   8
BRANCH   1  15
ATOM     15  C   UNL     1      -4.827   1.113  -0.608  0.00  0.00    +0.143 A 
ATOM     16  N   UNL     1      -5.504   2.188  -0.930  0.00  0.00    -0.115 NA
ATOM     17  N   UNL     1      -5.708   2.165  -2.202  0.00  0.00    -0.023 NA
ATOM     18  N   UNL     1      -5.178   1.102  -2.700  0.00  0.00    -0.043 NA
ATOM     19  N   UNL     1      -4.621   0.430  -1.750  0.00  0.00    -0.225 N 
BRANCH  19  20
ATOM     20  C   UNL     1      -3.902  -0.839  -1.887  0.00  0.00    +0.059 C 
ATOM     21  C   UNL     1      -4.632  -1.927  -1.097  0.00  0.00    +0.036 C 
ATOM     22  C   UNL     1      -3.843  -1.234  -3.364  0.00  0.00    +0.036 C 
ATOM     23  C   UNL     1      -2.480  -0.681  -1.344  0.00  0.00    +0.036 C 
ENDBRANCH  19  20
ENDBRANCH   1  15
BRANCH   1  24
ATOM     24  N   UNL     1      -5.455   0.986   1.732  0.00  0.00    +0.397 N 
ATOM     25  H   UNL     1      -5.868   1.903   1.522  0.00  0.00    -0.079 HD
BRANCH  24  26
ATOM     26  C   UNL     1      -6.502  -0.050   1.608  0.00  0.00    -0.041 C 
BRANCH  26  27
ATOM     27  C   UNL     1      -7.476   0.376   0.540  0.00  0.00    -0.064 A 
ATOM     28  C   UNL     1      -8.479   1.278   0.841  0.00  0.00    +0.004 A 
ATOM     29  C   UNL     1      -9.370   1.674  -0.139  0.00  0.00    +0.038 A 
ATOM     30  C   UNL     1      -9.264   1.158  -1.420  0.00  0.00    +0.123 A 
ATOM     31  C   UNL     1      -8.262   0.250  -1.718  0.00  0.00    +0.038 A 
ATOM     32  C   UNL     1      -7.369  -0.140  -0.738  0.00  0.00    +0.004 A 
ATOM     33  F   UNL     1     -10.137   1.540  -2.377  0.00  0.00    -0.205 F 
ENDBRANCH  26  27
ENDBRANCH  24  26
BRANCH  24  34
ATOM     34  C   UNL     1      -4.922   1.004   3.110  0.00  0.00    -0.001 C 
BRANCH  34  35
ATOM     35  C   UNL     1      -5.973   1.572   4.029  0.00  0.00    +0.089 A 
ATOM     36  C   UNL     1      -6.837   0.858   4.772  0.00  0.00    +0.042 A 
ATOM     37  C   UNL     1      -7.636   1.787   5.477  0.00  0.00    +0.041 A 
ATOM     38  C   UNL     1      -7.213   3.013   5.122  0.00  0.00    +0.195 A 
ATOM     39  O   UNL     1      -6.201   2.877   4.249  0.00  0.00    -0.470 OA
ENDBRANCH  34  35
ENDBRANCH  24  34
ENDBRANCH   1  24
TORSDOF 8
