REMARK  Name = ZINC35745767
REMARK  12 active torsions:
REMARK  status: ('A' for Active; 'I' for Inactive)
REMARK    1  A    between atoms: C_1  and  C_2
REMARK    2  A    between atoms: C_5  and  C_8
REMARK    3  A    between atoms: C_17  and  C_19
REMARK    4  A    between atoms: C_19  and  N_20
REMARK    5  A    between atoms: N_20  and  C_21
REMARK    6  A    between atoms: N_20  and  C_32
REMARK    7  A    between atoms: C_21  and  C_22
REMARK    8  A    between atoms: C_22  and  C_24
REMARK    9  A    between atoms: C_22  and  O_31
REMARK   10  A    between atoms: C_24  and  C_25
REMARK   11  A    between atoms: C_32  and  C_33
REMARK   12  A    between atoms: C_32  and  C_34
REMARK                            x       y       z     vdW  Elec       q    Type
REMARK                         _______ _______ _______ _____ _____    ______ ____
ROOT
ATOM      1  C   UNL     1       3.240  -5.122  -2.680  0.00  0.00    +0.004 A 
ATOM      2  C   UNL     1       2.811  -5.976  -3.641  0.00  0.00    +0.056 A 
ATOM      3  S   UNL     1       2.692  -7.534  -2.784  0.00  0.00    -0.076 S 
ATOM      4  C   UNL     1       3.216  -7.008  -1.172  0.00  0.00    +0.116 A 
ATOM      5  C   UNL     1       3.477  -5.638  -1.338  0.00  0.00    +0.080 A 
ATOM      6  C   UNL     1       3.930  -4.947  -0.169  0.00  0.00    +0.260 A 
ATOM      7  O   UNL     1       4.178  -3.755  -0.212  0.00  0.00    -0.267 OA
ATOM      8  N   UNL     1       4.079  -5.635   0.979  0.00  0.00    -0.312 N 
ATOM      9  H   UNL     1       4.386  -5.173   1.774  0.00  0.00    +0.170 HD
ATOM     10  C   UNL     1       3.807  -6.964   1.045  0.00  0.00    +0.094 A 
ATOM     11  N   UNL     1       3.381  -7.619  -0.002  0.00  0.00    -0.229 NA
ENDROOT
BRANCH   1  16
ATOM     12  C   UNL     1       4.134   0.437  -3.887  0.00  0.00    +0.044 C 
ATOM     13  C   UNL     1       3.900  -1.018  -3.571  0.00  0.00    -0.050 A 
ATOM     14  C   UNL     1       4.447  -1.995  -4.383  0.00  0.00    +0.004 A 
ATOM     15  C   UNL     1       4.237  -3.329  -4.098  0.00  0.00    +0.009 A 
ATOM     16  C   UNL     1       3.471  -3.691  -2.991  0.00  0.00    -0.017 A 
ATOM     17  C   UNL     1       2.922  -2.701  -2.177  0.00  0.00    +0.009 A 
ATOM     18  C   UNL     1       3.143  -1.370  -2.468  0.00  0.00    +0.004 A 
ENDBRANCH   1  16
BRANCH  10  19
ATOM     19  C   UNL     1       3.987  -7.692   2.352  0.00  0.00    -0.003 C 
BRANCH  19  20
ATOM     20  N   UNL     1       3.460  -9.058   2.228  0.00  0.00    +0.388 N 
ATOM     21  H   UNL     1       3.614  -9.394   1.289  0.00  0.00    -0.081 HD
BRANCH  20  22
ATOM     22  C   UNL     1       2.020  -9.055   2.517  0.00  0.00    -0.074 C 
ATOM     23  C   UNL     1       1.784  -8.517   3.929  0.00  0.00    -0.014 C 
ATOM     24  C   UNL     1       1.298  -8.164   1.504  0.00  0.00    -0.014 C 
ENDBRANCH  20  22
BRANCH  20  25
ATOM     25  C   UNL     1       4.150  -9.937   3.181  0.00  0.00    -0.046 C 
BRANCH  25  26
ATOM     26  C   UNL     1       3.717 -11.386   2.944  0.00  0.00    +0.102 C 
BRANCH  26  27
ATOM     27  O   UNL     1       2.351 -11.544   3.332  0.00  0.00    -0.393 OA
ATOM     28  H   UNL     1       2.169 -11.285   4.245  0.00  0.00    +0.210 HD
ENDBRANCH  26  27
BRANCH  26  29
ATOM     29  C   UNL     1       4.596 -12.323   3.776  0.00  0.00    +0.064 C 
BRANCH  29  30
ATOM     30  C   UNL     1       4.253 -13.754   3.450  0.00  0.00    -0.045 A 
ATOM     31  C   UNL     1       3.268 -14.409   4.165  0.00  0.00    +0.004 A 
ATOM     32  C   UNL     1       2.954 -15.721   3.866  0.00  0.00    +0.000 A 
ATOM     33  C   UNL     1       3.623 -16.378   2.851  0.00  0.00    +0.000 A 
ATOM     34  C   UNL     1       4.607 -15.723   2.135  0.00  0.00    +0.000 A 
ATOM     35  C   UNL     1       4.919 -14.409   2.431  0.00  0.00    +0.004 A 
ENDBRANCH  29  30
ENDBRANCH  26  29
ENDBRANCH  25  26
ENDBRANCH  20  25
ENDBRANCH  19  20
ENDBRANCH  10  19
TORSDOF 9
