REMARK  Name = ZINC63340046
REMARK  12 active torsions:
REMARK  status: ('A' for Active; 'I' for Inactive)
REMARK    1  A    between atoms: C_1  and  C_2
REMARK    2  A    between atoms: C_2  and  O_3
REMARK    3  A    between atoms: O_3  and  C_4
REMARK    4  A    between atoms: C_4  and  C_6
REMARK    5  A    between atoms: C_6  and  C_8
REMARK    6  A    between atoms: C_6  and  N_18
REMARK    7  A    between atoms: C_8  and  C_9
REMARK    8  A    between atoms: N_18  and  S_19
REMARK    9  A    between atoms: S_19  and  C_22
REMARK   10  A    between atoms: C_25  and  O_33
REMARK   11  A    between atoms: C_26  and  N_28
REMARK   12  A    between atoms: O_33  and  C_34
REMARK                            x       y       z     vdW  Elec       q    Type
REMARK                         _______ _______ _______ _____ _____    ______ ____
ROOT
ATOM      1  N   UNL     1       1.450  -3.817  -2.491  0.00  0.00    -0.176 NA
ATOM      2  H   UNL     1       2.137  -4.291  -1.996  0.00  0.00    +0.149 HD
ENDROOT
BRANCH   1   3
ATOM      3  S   UNL     1       0.258  -4.663  -3.269  0.00  0.00    +0.059 S 
ATOM      4  O   UNL     1       0.527  -6.040  -3.050  0.00  0.00    -0.153 OA
ATOM      5  O   UNL     1      -0.975  -4.059  -2.900  0.00  0.00    -0.153 OA
BRANCH   3   6
ATOM      6  C   UNL     1       0.460  -4.378  -4.996  0.00  0.00    +0.107 A 
ATOM      7  C   UNL     1      -0.180  -3.311  -5.599  0.00  0.00    +0.032 A 
ATOM      8  C   UNL     1      -0.025  -3.082  -6.954  0.00  0.00    +0.049 A 
ATOM      9  C   UNL     1       0.772  -3.924  -7.712  0.00  0.00    +0.143 A 
ATOM     10  C   UNL     1       1.417  -5.000  -7.106  0.00  0.00    +0.098 A 
ATOM     11  C   UNL     1       1.261  -5.220  -5.744  0.00  0.00    +0.057 A 
BRANCH  10  12
ATOM     12  N   UNL     1       2.222  -5.854  -7.866  0.00  0.00    -0.183 N 
ATOM     13  C   UNL     1       2.106  -7.320  -7.979  0.00  0.00    +0.257 C 
ATOM     14  N   UNL     1       3.204  -7.667  -8.901  0.00  0.00    -0.230 N 
ATOM     15  N   UNL     1       3.826  -6.457  -9.228  0.00  0.00    -0.064 NA
ATOM     16  N   UNL     1       3.301  -5.491  -8.681  0.00  0.00    -0.056 NA
ATOM     17  H   UNL     1       3.445  -8.552  -9.216  0.00  0.00    +0.172 HD
ENDBRANCH  10  12
BRANCH   9  18
ATOM     18  O   UNL     1       0.924  -3.701  -9.045  0.00  0.00    -0.493 OA
ATOM     19  C   UNL     1       0.233  -2.579  -9.598  0.00  0.00    +0.277 C 
ENDBRANCH   9  18
ENDBRANCH   3   6
ENDBRANCH   1   3
BRANCH   1  20
ATOM     20  C   UNL     1       1.468  -2.353  -2.550  0.00  0.00    +0.189 C 
BRANCH  20  21
ATOM     21  C   UNL     1       0.775  -1.794  -1.334  0.00  0.00    +0.326 C 
ATOM     22  O   UNL     1       0.314  -2.540  -0.504  0.00  0.00    -0.249 OA
BRANCH  21  23
ATOM     23  O   UNL     1       0.671  -0.465  -1.174  0.00  0.00    -0.464 OA
BRANCH  23  25
ATOM     24  C   UNL     1      -0.019   1.526   0.010  0.00  0.00    +0.048 C 
ATOM     25  C   UNL     1       0.002  -0.004   0.002  0.00  0.00    +0.229 C 
ENDBRANCH  23  25
ENDBRANCH  21  23
ENDBRANCH  20  21
BRANCH  20  26
ATOM     26  C   UNL     1       2.917  -1.862  -2.583  0.00  0.00    +0.065 C 
BRANCH  26  27
ATOM     27  C   UNL     1       3.573  -2.320  -3.860  0.00  0.00    -0.039 C 
ATOM     28  C   UNL     1       3.694  -1.618  -5.010  0.00  0.00    -0.001 A 
ATOM     29  C   UNL     1       3.265  -0.270  -5.401  0.00  0.00    +0.010 A 
ATOM     30  C   UNL     1       3.535   0.166  -6.653  0.00  0.00    +0.001 A 
ATOM     31  C   UNL     1       4.211  -0.635  -7.583  0.00  0.00    +0.002 A 
ATOM     32  C   UNL     1       4.635  -1.884  -7.298  0.00  0.00    +0.026 A 
ATOM     33  C   UNL     1       4.406  -2.444  -6.011  0.00  0.00    +0.043 A 
ATOM     34  N   UNL     1       4.714  -3.612  -5.499  0.00  0.00    -0.380 N 
ATOM     35  C   UNL     1       4.236  -3.656  -4.113  0.00  0.00    +0.144 C 
ATOM     36  H   UNL     1       5.182  -4.325  -5.960  0.00  0.00    +0.160 HD
ENDBRANCH  26  27
ENDBRANCH  20  26
ENDBRANCH   1  20
TORSDOF 10
