REMARK  Name = ZINC17877667
REMARK  6 active torsions:
REMARK  status: ('A' for Active; 'I' for Inactive)
REMARK    1  A    between atoms: C_1  and  C_2
REMARK    2  A    between atoms: C_7  and  O_8
REMARK    3  A    between atoms: O_8  and  C_9
REMARK    4  A    between atoms: C_9  and  C_11
REMARK    5  A    between atoms: C_9  and  C_12
REMARK    6  A    between atoms: N_14  and  N_15
REMARK                            x       y       z     vdW  Elec       q    Type
REMARK                         _______ _______ _______ _____ _____    ______ ____
ROOT
ATOM      1  C   UNL     1      -0.868  -0.069   4.605  0.00  0.00    +0.273 C 
ATOM      2  O   UNL     1      -1.321   1.025   4.346  0.00  0.00    -0.270 OA
ATOM      3  N   UNL     1      -1.085  -0.619   5.817  0.00  0.00    -0.203 N 
ATOM      4  H   UNL     1      -0.723  -1.494   6.024  0.00  0.00    +0.177 HD
ENDROOT
BRANCH   3   5
ATOM      5  N   UNL     1      -1.833   0.075   6.777  0.00  0.00    -0.174 NA
ATOM      6  C   UNL     1      -2.044  -0.459   7.955  0.00  0.00    +0.153 C 
ATOM      7  C   UNL     1      -2.809   0.120   9.084  0.00  0.00    +0.029 A 
ATOM      8  C   UNL     1      -3.498   1.315   9.253  0.00  0.00    +0.027 A 
ATOM      9  C   UNL     1      -4.130   1.578  10.454  0.00  0.00    +0.019 A 
ATOM     10  C   UNL     1      -4.076   0.652  11.483  0.00  0.00    +0.017 A 
ATOM     11  C   UNL     1      -3.395  -0.537  11.323  0.00  0.00    +0.025 A 
ATOM     12  C   UNL     1      -2.753  -0.819  10.122  0.00  0.00    +0.043 A 
ATOM     13  N   UNL     1      -2.012  -1.920   9.707  0.00  0.00    -0.280 N 
ATOM     14  C   UNL     1      -1.575  -1.771   8.445  0.00  0.00    +0.269 C 
ATOM     15  O   UNL     1      -0.909  -2.573   7.817  0.00  0.00    -0.268 OA
ATOM     16 BR   UNL     1      -5.068   3.203  10.692  0.00  0.00    -0.050 Br
ATOM     17  H   UNL     1      -1.836  -2.699  10.257  0.00  0.00    +0.155 HD
ENDBRANCH   3   5
BRANCH   1  18
ATOM     18  C   UNL     1      -0.064  -0.816   3.572  0.00  0.00    +0.257 C 
ATOM     19  C   UNL     1       1.342  -1.080   4.115  0.00  0.00    +0.062 C 
BRANCH  18  20
ATOM     20  O   UNL     1       0.025  -0.033   2.381  0.00  0.00    -0.480 OA
BRANCH  20  27
ATOM     21  C   UNL     1      -0.041   1.466  -0.013  0.00  0.00    +0.047 C 
ATOM     22  C   UNL     1       0.216  -0.019   0.009  0.00  0.00    -0.007 A 
ATOM     23  C   UNL     1       0.437  -0.701  -1.172  0.00  0.00    +0.027 A 
ATOM     24  C   UNL     1       0.672  -2.063  -1.152  0.00  0.00    +0.041 A 
ATOM     25  C   UNL     1       0.688  -2.747   0.051  0.00  0.00    +0.023 A 
ATOM     26  C   UNL     1       0.467  -2.070   1.234  0.00  0.00    +0.047 A 
ATOM     27  C   UNL     1       0.236  -0.702   1.217  0.00  0.00    +0.125 A 
ATOM     28 CL   UNL     1       0.949  -2.917  -2.638  0.00  0.00    -0.084 Cl
ENDBRANCH  20  27
ENDBRANCH  18  20
ENDBRANCH   1  18
TORSDOF 4
