REMARK  Name = ZINC00028985
REMARK  5 active torsions:
REMARK  status: ('A' for Active; 'I' for Inactive)
REMARK    1  A    between atoms: C_1  and  C_2
REMARK    2  A    between atoms: C_7  and  N_8
REMARK    3  A    between atoms: C_9  and  C_20
REMARK    4  A    between atoms: C_24  and  C_29
REMARK    5  A    between atoms: C_26  and  C_28
REMARK                            x       y       z     vdW  Elec       q    Type
REMARK                         _______ _______ _______ _____ _____    ______ ____
ROOT
ATOM      1  N   UNL     1       3.736  -0.423   0.077  0.00  0.00    -0.248 N 
ATOM      2  C   UNL     1       4.245  -0.787  -1.245  0.00  0.00    +0.170 C 
ATOM      3  N   UNL     1       5.056  -2.007  -1.161  0.00  0.00    -0.325 N 
ATOM      4  C   UNL     1       5.961  -2.138  -0.114  0.00  0.00    +0.041 A 
ATOM      5  C   UNL     1       7.119  -2.886  -0.241  0.00  0.00    +0.024 A 
ATOM      6  C   UNL     1       7.984  -2.995   0.831  0.00  0.00    +0.002 A 
ATOM      7  C   UNL     1       7.701  -2.363   2.032  0.00  0.00    +0.001 A 
ATOM      8  C   UNL     1       6.554  -1.611   2.174  0.00  0.00    +0.015 A 
ATOM      9  C   UNL     1       5.676  -1.488   1.099  0.00  0.00    +0.058 A 
ATOM     10  C   UNL     1       4.452  -0.670   1.192  0.00  0.00    +0.254 C 
ATOM     11  O   UNL     1       4.090  -0.227   2.265  0.00  0.00    -0.270 OA
ATOM     12  H   UNL     1       4.963  -2.709  -1.824  0.00  0.00    +0.148 HD
ENDROOT
BRANCH   2  13
ATOM     13  C   UNL     1       5.108   0.354  -1.788  0.00  0.00    +0.035 C 
ATOM     14  C   UNL     1       6.306   0.582  -0.858  0.00  0.00    +0.012 C 
ATOM     15  C   UNL     1       7.048   1.837  -1.323  0.00  0.00    +0.030 C 
ATOM     16  C   UNL     1       7.305   1.767  -2.800  0.00  0.00    -0.076 C 
ATOM     17  C   UNL     1       6.688   0.965  -3.606  0.00  0.00    -0.024 C 
ATOM     18  C   UNL     1       5.632  -0.013  -3.178  0.00  0.00    +0.015 C 
ATOM     19  C   UNL     1       4.475   0.011  -4.179  0.00  0.00    +0.012 C 
ATOM     20  C   UNL     1       8.346   2.689  -3.380  0.00  0.00    +0.039 C 
ENDBRANCH   2  13
BRANCH   1  27
ATOM     21  C   UNL     1       3.661   2.414   0.287  0.00  0.00    +0.045 C 
ATOM     22  C   UNL     1       2.405   1.581   0.291  0.00  0.00    -0.029 A 
ATOM     23  C   UNL     1       1.171   2.191   0.398  0.00  0.00    +0.005 A 
ATOM     24  C   UNL     1       0.018   1.427   0.402  0.00  0.00    +0.000 A 
ATOM     25  C   UNL     1       0.097   0.050   0.299  0.00  0.00    +0.002 A 
ATOM     26  C   UNL     1       1.328  -0.566   0.191  0.00  0.00    +0.024 A 
ATOM     27  C   UNL     1       2.488   0.198   0.186  0.00  0.00    +0.041 A 
ENDBRANCH   1  27
TORSDOF 2
