REMARK  Name = ZINC00613473
REMARK  3 active torsions:
REMARK  status: ('A' for Active; 'I' for Inactive)
REMARK    1  A    between atoms: C_1  and  C_2
REMARK    2  A    between atoms: C_6  and  N_8
REMARK    3  A    between atoms: C_11  and  C_14
REMARK                            x       y       z     vdW  Elec       q    Type
REMARK                         _______ _______ _______ _____ _____    ______ ____
ROOT
ATOM      1  N   UNL     1       0.051  -2.637   2.415  0.00  0.00    -0.279 N 
ATOM      2  C   UNL     1      -0.035  -4.021   2.467  0.00  0.00    +0.164 A 
ATOM      3  N   UNL     1      -0.131  -4.812   3.519  0.00  0.00    -0.224 NA
ATOM      4  C   UNL     1      -0.204  -6.134   3.382  0.00  0.00    +0.087 A 
ATOM      5  C   UNL     1      -0.178  -6.678   2.127  0.00  0.00    +0.077 A 
ATOM      6  S   UNL     1      -0.051  -5.202   1.126  0.00  0.00    -0.060 S 
ATOM      7  H   UNL     1       0.120  -2.125   3.235  0.00  0.00    +0.155 HD
ENDROOT
BRANCH   1  13
ATOM      8  C   UNL     1       0.043  -2.965  -2.362  0.00  0.00    +0.065 C 
ATOM      9  C   UNL     1       0.032  -2.114  -1.118  0.00  0.00    +0.040 A 
ATOM     10  C   UNL     1       0.007  -0.738  -1.234  0.00  0.00    +0.023 A 
ATOM     11  C   UNL     1      -0.003   0.041  -0.085  0.00  0.00    +0.005 A 
ATOM     12  C   UNL     1       0.011  -0.595   1.144  0.00  0.00    +0.044 A 
ATOM     13  C   UNL     1       0.036  -1.985   1.186  0.00  0.00    +0.125 A 
ATOM     14  N   UNL     1       0.040  -2.693   0.067  0.00  0.00    -0.237 NA
ENDBRANCH   1  13
BRANCH   4  15
ATOM     15  C   UNL     1      -0.311  -7.005   4.573  0.00  0.00    +0.038 A 
ATOM     16  C   UNL     1      -0.358  -6.655   5.895  0.00  0.00    +0.017 A 
ATOM     17  C   UNL     1      -0.460  -7.654   6.841  0.00  0.00    +0.008 A 
ATOM     18  C   UNL     1      -0.511  -8.947   6.434  0.00  0.00    +0.046 A 
ATOM     19  S   UNL     1      -0.422  -8.785   4.659  0.00  0.00    -0.095 S 
ENDBRANCH   4  15
TORSDOF 2
