REMARK  Name = ZINC14668504
REMARK  13 active torsions:
REMARK  status: ('A' for Active; 'I' for Inactive)
REMARK    1  A    between atoms: C_1  and  C_2
REMARK    2  A    between atoms: C_2  and  C_3
REMARK    3  A    between atoms: C_2  and  O_4
REMARK    4  A    between atoms: O_4  and  C_5
REMARK    5  A    between atoms: C_10  and  C_11
REMARK    6  A    between atoms: N_13  and  C_14
REMARK    7  A    between atoms: C_14  and  N_16
REMARK    8  A    between atoms: C_22  and  C_24
REMARK    9  A    between atoms: C_24  and  C_25
REMARK   10  A    between atoms: C_25  and  O_27
REMARK   11  A    between atoms: O_27  and  C_28
REMARK   12  A    between atoms: C_28  and  C_29
REMARK   13  A    between atoms: C_28  and  C_30
REMARK                            x       y       z     vdW  Elec       q    Type
REMARK                         _______ _______ _______ _____ _____    ______ ____
ROOT
ATOM      1  C   UNL     1      -4.913   4.761  -0.064  0.00  0.00    +0.140 C 
ATOM      2  S   UNL     1      -3.389   3.985   0.011  0.00  0.00    -0.018 S 
ENDROOT
BRANCH   1   3
ATOM      3  N   UNL     1      -6.042   4.027  -0.099  0.00  0.00    -0.299 N 
ATOM      4  C   UNL     1      -6.009   2.562   0.047  0.00  0.00    +0.126 C 
ATOM      5  C   UNL     1      -6.807   2.188   1.297  0.00  0.00    +0.123 C 
ATOM      6  N   UNL     1      -8.082   2.891   1.325  0.00  0.00    -0.312 N 
ATOM      7  C   UNL     1      -8.340   4.018   0.660  0.00  0.00    +0.234 C 
ATOM      8  O   UNL     1      -9.416   4.553   0.825  0.00  0.00    -0.274 OA
ATOM      9  C   UNL     1      -7.359   4.656  -0.279  0.00  0.00    +0.171 C 
ATOM     10  H   UNL     1      -8.794   2.513   1.865  0.00  0.00    +0.149 HD
BRANCH   9  11
ATOM     11  C   UNL     1      -7.831   4.456  -1.720  0.00  0.00    +0.152 C 
BRANCH  11  12
ATOM     12  C   UNL     1      -6.926   5.216  -2.655  0.00  0.00    +0.310 C 
ATOM     13  O   UNL     1      -5.950   5.783  -2.224  0.00  0.00    -0.251 OA
BRANCH  12  14
ATOM     14  O   UNL     1      -7.205   5.264  -3.967  0.00  0.00    -0.462 OA
BRANCH  14  15
ATOM     15  C   UNL     1      -6.291   6.016  -4.808  0.00  0.00    +0.170 C 
ATOM     16  C   UNL     1      -6.269   5.404  -6.211  0.00  0.00    +0.052 C 
ATOM     17  C   UNL     1      -6.754   7.471  -4.893  0.00  0.00    +0.052 C 
ENDBRANCH  14  15
ENDBRANCH  12  14
ENDBRANCH  11  12
ENDBRANCH   9  11
ENDBRANCH   1   3
BRANCH   1  20
ATOM     18  C   UNL     1      -3.854   6.839  -0.162  0.00  0.00    +0.253 C 
ATOM     19  O   UNL     1      -2.772   6.286  -0.207  0.00  0.00    -0.270 OA
ATOM     20  N   UNL     1      -4.983   6.107  -0.089  0.00  0.00    -0.264 N 
ATOM     21  H   UNL     1      -5.846   6.548  -0.053  0.00  0.00    +0.157 HD
BRANCH  18  27
ATOM     22  C   UNL     1      -2.759   9.077  -0.266  0.00  0.00    +0.133 A 
ATOM     23  C   UNL     1      -2.842  10.461  -0.291  0.00  0.00    +0.047 A 
ATOM     24  C   UNL     1      -4.075  11.081  -0.241  0.00  0.00    +0.019 A 
ATOM     25  C   UNL     1      -5.236  10.328  -0.165  0.00  0.00    +0.019 A 
ATOM     26  C   UNL     1      -5.171   8.952  -0.134  0.00  0.00    +0.032 A 
ATOM     27  C   UNL     1      -3.930   8.311  -0.189  0.00  0.00    +0.080 A 
ATOM     28 BR   UNL     1      -6.916  11.193  -0.098  0.00  0.00    -0.050 Br
BRANCH  22  29
ATOM     29  O   UNL     1      -1.548   8.467  -0.316  0.00  0.00    -0.489 OA
BRANCH  29  31
ATOM     30  C   UNL     1       0.199   9.680   0.832  0.00  0.00    +0.051 C 
ATOM     31  C   UNL     1      -0.408   9.303  -0.521  0.00  0.00    +0.167 C 
ATOM     32  C   UNL     1       0.632   8.552  -1.355  0.00  0.00    +0.051 C 
ENDBRANCH  29  31
ENDBRANCH  22  29
ENDBRANCH  18  27
ENDBRANCH   1  20
TORSDOF 9
