REMARK  Name = ZINC13280712
REMARK  6 active torsions:
REMARK  status: ('A' for Active; 'I' for Inactive)
REMARK    1  A    between atoms: C_6  and  C_7
REMARK    2  A    between atoms: C_10  and  S_15
REMARK    3  A    between atoms: N_11  and  C_12
REMARK    4  A    between atoms: C_12  and  C_13
REMARK    5  A    between atoms: S_15  and  C_16
REMARK    6  A    between atoms: C_16  and  C_17
REMARK                            x       y       z     vdW  Elec       q    Type
REMARK                         _______ _______ _______ _____ _____    ______ ____
ROOT
ATOM      1  C   UNL     1      -3.126   0.506  -1.072  0.00  0.00    +0.165 A 
ATOM      2  N   UNL     1      -4.016  -0.349  -0.624  0.00  0.00    -0.128 NA
ATOM      3  N   UNL     1      -3.936  -0.436   0.656  0.00  0.00    -0.122 NA
ATOM      4  C   UNL     1      -2.985   0.354   1.103  0.00  0.00    +0.193 A 
ATOM      5  N   UNL     1      -2.434   0.977   0.019  0.00  0.00    -0.291 N 
ENDROOT
BRANCH   1  11
ATOM      6  C   UNL     1      -3.910   0.676  -3.430  0.00  0.00    +0.013 A 
ATOM      7  C   UNL     1      -3.701   1.038  -4.745  0.00  0.00    +0.021 A 
ATOM      8  C   UNL     1      -2.495   1.600  -5.128  0.00  0.00    +0.041 A 
ATOM      9  C   UNL     1      -1.494   1.806  -4.194  0.00  0.00    +0.021 A 
ATOM     10  C   UNL     1      -1.693   1.453  -2.876  0.00  0.00    +0.013 A 
ATOM     11  C   UNL     1      -2.907   0.887  -2.483  0.00  0.00    +0.019 A 
ATOM     12 CL   UNL     1      -2.237   2.047  -6.785  0.00  0.00    -0.084 Cl
ENDBRANCH   1  11
BRANCH   5  13
ATOM     13  C   UNL     1      -1.339   1.950   0.020  0.00  0.00    +0.250 C 
BRANCH  13  14
ATOM     14  C   UNL     1      -0.021   1.223  -0.056  0.00  0.00    +0.375 C 
ATOM     15  O   UNL     1       0.001   0.016  -0.106  0.00  0.00    -0.244 OA
ATOM     16  O   UNL     1       1.128   1.917  -0.074  0.00  0.00    -0.244 OA
ENDBRANCH  13  14
ENDBRANCH   5  13
BRANCH   4  17
ATOM     17  S   UNL     1      -2.509   0.568   2.786  0.00  0.00    -0.081 S 
BRANCH  17  18
ATOM     18  C   UNL     1      -3.672  -0.564   3.587  0.00  0.00    +0.113 C 
BRANCH  18  19
ATOM     19  C   UNL     1      -3.444  -0.546   5.077  0.00  0.00    -0.019 A 
ATOM     20  C   UNL     1      -2.551  -1.434   5.649  0.00  0.00    +0.055 A 
ATOM     21  C   UNL     1      -2.337  -1.416   7.018  0.00  0.00    +0.167 A 
ATOM     22  C   UNL     1      -3.031  -0.510   7.816  0.00  0.00    +0.167 A 
ATOM     23  C   UNL     1      -3.927   0.373   7.237  0.00  0.00    +0.065 A 
ATOM     24  C   UNL     1      -4.133   0.354   5.869  0.00  0.00    +0.026 A 
ATOM     25 BR   UNL     1      -5.357   1.560   5.082  0.00  0.00    -0.050 Br
ATOM     26  O   UNL     1      -2.652  -0.694   9.115  0.00  0.00    -0.453 OA
ATOM     27  C   UNL     1      -1.423  -1.441   9.055  0.00  0.00    +0.466 C 
ATOM     28  O   UNL     1      -1.524  -2.168   7.816  0.00  0.00    -0.453 OA
ENDBRANCH  18  19
ENDBRANCH  17  18
ENDBRANCH   4  17
TORSDOF 6
