REMARK  Name = ZINC35378768
REMARK  7 active torsions:
REMARK  status: ('A' for Active; 'I' for Inactive)
REMARK    1  A    between atoms: C_1  and  C_2
REMARK    2  A    between atoms: C_2  and  C_3
REMARK    3  A    between atoms: C_8  and  N_9
REMARK    4  A    between atoms: C_10  and  C_12
REMARK    5  A    between atoms: N_17  and  S_19
REMARK    6  A    between atoms: S_19  and  C_22
REMARK    7  A    between atoms: C_27  and  C_28
REMARK                            x       y       z     vdW  Elec       q    Type
REMARK                         _______ _______ _______ _____ _____    ______ ____
ROOT
ATOM      1  C   UNL     1      -1.288  -0.162  -4.860  0.00  0.00    +0.091 C 
ATOM      2  C   UNL     1      -0.914   1.315  -4.994  0.00  0.00    +0.015 C 
ATOM      3  C   UNL     1      -0.242   1.552  -6.349  0.00  0.00    +0.018 C 
ATOM      4  C   UNL     1      -1.225   1.199  -7.470  0.00  0.00    +0.109 C 
ATOM      5  N   UNL     1      -1.702  -0.175  -7.265  0.00  0.00    -0.176 NA
ATOM      6  C   UNL     1      -2.283  -0.535  -5.964  0.00  0.00    +0.122 C 
ENDROOT
BRANCH   1   8
ATOM      7  N   UNL     1      -1.226  -0.139  -2.387  0.00  0.00    -0.285 N 
ATOM      8  C   UNL     1      -1.920  -0.401  -3.513  0.00  0.00    +0.222 C 
ATOM      9  O   UNL     1      -3.053  -0.828  -3.441  0.00  0.00    -0.275 OA
ATOM     10  H   UNL     1      -0.344   0.261  -2.443  0.00  0.00    +0.155 HD
BRANCH   7  16
ATOM     11  C   UNL     1      -0.958  -0.860  -0.098  0.00  0.00    -0.026 A 
ATOM     12  C   UNL     1      -1.505  -1.154   1.136  0.00  0.00    +0.005 A 
ATOM     13  C   UNL     1      -2.869  -1.041   1.334  0.00  0.00    +0.000 A 
ATOM     14  C   UNL     1      -3.689  -0.633   0.298  0.00  0.00    +0.002 A 
ATOM     15  C   UNL     1      -3.148  -0.336  -0.938  0.00  0.00    +0.023 A 
ATOM     16  C   UNL     1      -1.778  -0.444  -1.138  0.00  0.00    +0.037 A 
BRANCH  11  18
ATOM     17  C   UNL     1       1.190   0.380  -0.094  0.00  0.00    +0.009 C 
ATOM     18  C   UNL     1       0.529  -0.983  -0.312  0.00  0.00    +0.033 C 
ENDBRANCH  11  18
ENDBRANCH   7  16
ENDBRANCH   1   8
BRANCH   5  19
ATOM     19  S   UNL     1      -1.588  -1.297  -8.477  0.00  0.00    +0.061 S 
ATOM     20  O   UNL     1      -2.672  -2.198  -8.300  0.00  0.00    -0.153 OA
ATOM     21  O   UNL     1      -1.388  -0.573  -9.683  0.00  0.00    -0.153 OA
BRANCH  19  22
ATOM     22  C   UNL     1      -0.115  -2.221  -8.194  0.00  0.00    +0.112 A 
ATOM     23  C   UNL     1      -0.196  -3.553  -7.827  0.00  0.00    +0.076 A 
ATOM     24  C   UNL     1       0.961  -4.278  -7.606  0.00  0.00    +0.144 A 
ATOM     25  C   UNL     1       2.205  -3.665  -7.753  0.00  0.00    +0.076 A 
ATOM     26  C   UNL     1       2.279  -2.332  -8.121  0.00  0.00    +0.032 A 
ATOM     27  C   UNL     1       1.118  -1.614  -8.346  0.00  0.00    -0.022 A 
ATOM     28  C   UNL     1       1.197  -0.165  -8.752  0.00  0.00    +0.046 C 
ATOM     29  N   UNL     1       3.369  -4.412  -7.524  0.00  0.00    -0.280 N 
ATOM     30  C   UNL     1       3.284  -5.759  -7.479  0.00  0.00    +0.255 C 
ATOM     31  O   UNL     1       4.273  -6.424  -7.251  0.00  0.00    -0.272 OA
ATOM     32  C   UNL     1       1.956  -6.433  -7.711  0.00  0.00    +0.325 C 
ATOM     33  O   UNL     1       0.900  -5.588  -7.245  0.00  0.00    -0.481 OA
ATOM     34  H   UNL     1       4.223  -3.967  -7.400  0.00  0.00    +0.155 HD
ENDBRANCH  19  22
ENDBRANCH   5  19
TORSDOF 5
