REMARK  Name = ZINC41022100
REMARK  8 active torsions:
REMARK  status: ('A' for Active; 'I' for Inactive)
REMARK    1  A    between atoms: C_3  and  C_6
REMARK    2  A    between atoms: C_6  and  C_8
REMARK    3  A    between atoms: C_6  and  N_26
REMARK    4  A    between atoms: C_8  and  N_9
REMARK    5  A    between atoms: C_10  and  C_12
REMARK    6  A    between atoms: C_12  and  C_13
REMARK    7  A    between atoms: C_13  and  C_14
REMARK    8  A    between atoms: C_17  and  C_19
REMARK                            x       y       z     vdW  Elec       q    Type
REMARK                         _______ _______ _______ _____ _____    ______ ____
ROOT
ATOM      1  N   UNL     1       5.749   2.256  -1.405  0.00  0.00    -0.317 N 
ATOM      2  C   UNL     1       6.454   2.369  -2.548  0.00  0.00    +0.213 C 
ATOM      3  O   UNL     1       5.949   2.058  -3.606  0.00  0.00    -0.276 OA
ATOM      4  H   UNL     1       6.153   2.505  -0.559  0.00  0.00    +0.149 HD
ENDROOT
BRANCH   1   5
ATOM      5  C   UNL     1       4.372   1.756  -1.440  0.00  0.00    +0.094 C 
BRANCH   5   6
ATOM      6  C   UNL     1       3.760   1.850  -0.041  0.00  0.00    -0.013 C 
BRANCH   6   7
ATOM      7  N   UNL     1       2.411   1.266  -0.057  0.00  0.00    +0.386 N 
ATOM      8  C   UNL     1       1.793   1.432   1.264  0.00  0.00    -0.078 C 
ATOM      9  C   UNL     1       0.359   0.899   1.230  0.00  0.00    -0.019 C 
ATOM     10  C   UNL     1       0.381  -0.586   0.858  0.00  0.00    -0.004 C 
ATOM     11  C   UNL     1       1.094  -0.755  -0.487  0.00  0.00    -0.019 C 
ATOM     12  C   UNL     1       2.501  -0.160  -0.390  0.00  0.00    -0.078 C 
ATOM     13  H   UNL     1       1.850   1.738  -0.750  0.00  0.00    -0.081 HD
ENDBRANCH   6   7
BRANCH   6  16
ATOM     14  C   UNL     1       4.228   5.331   1.433  0.00  0.00    +0.008 A 
ATOM     15  C   UNL     1       4.502   3.998   1.190  0.00  0.00    +0.009 A 
ATOM     16  C   UNL     1       3.676   3.296   0.375  0.00  0.00    -0.022 A 
ATOM     17  S   UNL     1       2.466   4.528  -0.076  0.00  0.00    -0.103 S 
ATOM     18  C   UNL     1       3.142   5.896   0.851  0.00  0.00    +0.045 A 
ENDBRANCH   6  16
ENDBRANCH   5   6
ENDBRANCH   1   5
BRANCH   2  19
ATOM     19  C   UNL     1       7.870   2.884  -2.512  0.00  0.00    +0.105 C 
BRANCH  19  20
ATOM     20  C   UNL     1       8.438   2.913  -3.932  0.00  0.00    +0.105 C 
BRANCH  20  21
ATOM     21  C   UNL     1       9.854   3.427  -3.896  0.00  0.00    +0.197 A 
ATOM     22  N   UNL     1      10.923   2.693  -3.761  0.00  0.00    -0.221 NA
ATOM     23  C   UNL     1      12.002   3.489  -3.773  0.00  0.00    +0.161 A 
ATOM     24  C   UNL     1      11.566   4.766  -3.921  0.00  0.00    +0.155 A 
ATOM     25  O   UNL     1      10.218   4.713  -4.002  0.00  0.00    -0.440 OA
BRANCH  24  26
ATOM     26  C   UNL     1      12.405   5.982  -3.987  0.00  0.00    +0.019 A 
ATOM     27  C   UNL     1      11.811   7.236  -4.136  0.00  0.00    +0.013 A 
ATOM     28  C   UNL     1      12.599   8.367  -4.197  0.00  0.00    +0.021 A 
ATOM     29  C   UNL     1      13.977   8.259  -4.110  0.00  0.00    +0.041 A 
ATOM     30  C   UNL     1      14.572   7.018  -3.962  0.00  0.00    +0.021 A 
ATOM     31  C   UNL     1      13.794   5.880  -3.894  0.00  0.00    +0.013 A 
ATOM     32 CL   UNL     1      14.962   9.686  -4.187  0.00  0.00    -0.084 Cl
ENDBRANCH  24  26
ENDBRANCH  20  21
ENDBRANCH  19  20
ENDBRANCH   2  19
TORSDOF 8
