REMARK  Name = ZINC23426361
REMARK  13 active torsions:
REMARK  status: ('A' for Active; 'I' for Inactive)
REMARK    1  A    between atoms: C_1  and  C_2
REMARK    2  A    between atoms: C_5  and  C_7
REMARK    3  A    between atoms: C_9  and  C_30
REMARK    4  A    between atoms: N_10  and  C_12
REMARK    5  A    between atoms: C_16  and  C_18
REMARK    6  A    between atoms: N_20  and  C_21
REMARK    7  A    between atoms: C_21  and  C_22
REMARK    8  A    between atoms: C_26  and  C_28
REMARK    9  A    between atoms: C_26  and  C_29
REMARK   10  A    between atoms: C_30  and  C_31
REMARK   11  A    between atoms: C_31  and  C_32
REMARK   12  A    between atoms: C_32  and  C_33
REMARK   13  A    between atoms: C_32  and  C_34
REMARK                            x       y       z     vdW  Elec       q    Type
REMARK                         _______ _______ _______ _____ _____    ______ ____
ROOT
ATOM      1  C   UNL     1      -3.425   2.102   0.664  0.00  0.00    +0.066 A 
ATOM      2  C   UNL     1      -3.464   3.428   1.078  0.00  0.00    +0.028 A 
ATOM      3  C   UNL     1      -2.300   4.077   1.445  0.00  0.00    +0.003 A 
ATOM      4  C   UNL     1      -1.091   3.413   1.402  0.00  0.00    +0.013 A 
ATOM      5  C   UNL     1      -1.041   2.081   0.987  0.00  0.00    +0.039 A 
ATOM      6  C   UNL     1      -2.215   1.428   0.611  0.00  0.00    +0.040 A 
ENDROOT
BRANCH   1  10
ATOM      7  C   UNL     1      -6.574   1.073  -0.625  0.00  0.00    +0.149 A 
ATOM      8  C   UNL     1      -6.167  -0.076   0.085  0.00  0.00    +0.058 A 
ATOM      9  C   UNL     1      -4.959   0.181   0.632  0.00  0.00    +0.046 A 
ATOM     10  N   UNL     1      -4.608   1.449   0.293  0.00  0.00    -0.236 N 
ATOM     11  N   UNL     1      -5.632   1.987  -0.497  0.00  0.00    -0.161 NA
BRANCH   7  16
ATOM     12  C   UNL     1     -10.278   2.930  -3.445  0.00  0.00    +0.111 C 
ATOM     13  C   UNL     1      -9.430   2.020  -2.593  0.00  0.00    +0.215 A 
ATOM     14  N   UNL     1      -9.727   0.802  -2.237  0.00  0.00    -0.112 NA
ATOM     15  N   UNL     1      -8.777   0.322  -1.513  0.00  0.00    -0.106 NA
ATOM     16  C   UNL     1      -7.835   1.226  -1.381  0.00  0.00    +0.268 A 
ATOM     17  O   UNL     1      -8.234   2.321  -2.058  0.00  0.00    -0.419 OA
ENDBRANCH   7  16
BRANCH   9  18
ATOM     18  C   UNL     1      -4.146  -0.770   1.472  0.00  0.00    +0.056 C 
BRANCH  18  19
ATOM     19  C   UNL     1      -3.395  -1.742   0.560  0.00  0.00    +0.009 C 
BRANCH  19  20
ATOM     20  C   UNL     1      -2.469  -2.621   1.403  0.00  0.00    -0.017 C 
ATOM     21  C   UNL     1      -3.308  -3.503   2.330  0.00  0.00    +0.007 C 
ATOM     22  C   UNL     1      -1.627  -3.505   0.482  0.00  0.00    +0.007 C 
ENDBRANCH  19  20
ENDBRANCH  18  19
ENDBRANCH   9  18
ENDBRANCH   1  10
BRANCH   5  23
ATOM     23  C   UNL     1       0.252   1.366   0.940  0.00  0.00    +0.244 C 
ATOM     24  O   UNL     1       0.293   0.207   0.578  0.00  0.00    -0.270 OA
ATOM     25  N   UNL     1       1.387   2.003   1.293  0.00  0.00    -0.309 N 
ATOM     26  H   UNL     1       1.350   3.052   1.621  0.00  0.00    +0.149 HD
BRANCH  25  27
ATOM     27  C   UNL     1       2.669   1.297   1.241  0.00  0.00    +0.138 C 
BRANCH  27  28
ATOM     28  C   UNL     1       3.789   2.239   1.689  0.00  0.00    +0.164 C 
ATOM     29  C   UNL     1       5.163   1.526   1.647  0.00  0.00    +0.196 C 
ATOM     30  O   UNL     1       6.090   2.614   1.457  0.00  0.00    -0.347 OA
ATOM     31  C   UNL     1       5.351   3.710   0.901  0.00  0.00    +0.165 C 
ATOM     32  O   UNL     1       3.982   3.307   0.731  0.00  0.00    -0.342 OA
ATOM     33  C   UNL     1       5.419   4.909   1.849  0.00  0.00    +0.074 C 
ATOM     34  C   UNL     1       5.943   4.094  -0.456  0.00  0.00    +0.074 C 
ENDBRANCH  27  28
ENDBRANCH  25  27
ENDBRANCH   5  23
TORSDOF 8
