REMARK  Name = ZINC36027430
REMARK  8 active torsions:
REMARK  status: ('A' for Active; 'I' for Inactive)
REMARK    1  A    between atoms: C_1  and  C_2
REMARK    2  A    between atoms: C_2  and  C_3
REMARK    3  A    between atoms: C_3  and  C_5
REMARK    4  A    between atoms: C_3  and  C_6
REMARK    5  A    between atoms: N_10  and  C_29
REMARK    6  A    between atoms: N_15  and  S_18
REMARK    7  A    between atoms: S_18  and  C_21
REMARK    8  A    between atoms: C_29  and  C_30
REMARK                            x       y       z     vdW  Elec       q    Type
REMARK                         _______ _______ _______ _____ _____    ______ ____
ROOT
ATOM      1  C   UNL     1       1.377  -3.450   0.694  0.00  0.00    +0.022 C 
ATOM      2  C   UNL     1       0.878  -4.037   1.997  0.00  0.00    +0.201 C 
ATOM      3  O   UNL     1       1.544  -4.670   2.789  0.00  0.00    -0.277 OA
ATOM      4  N   UNL     1      -0.430  -3.737   2.129  0.00  0.00    -0.309 N 
ATOM      5  C   UNL     1      -0.875  -2.966   0.965  0.00  0.00    +0.006 C 
ATOM      6  N   UNL     1       0.348  -2.454   0.308  0.00  0.00    +0.401 N 
ATOM      7  C   UNL     1      -1.751  -1.796   1.409  0.00  0.00    +0.023 C 
ATOM      8  C   UNL     1      -2.997  -2.335   2.120  0.00  0.00    +0.109 C 
ATOM      9  N   UNL     1      -3.665  -3.300   1.237  0.00  0.00    -0.177 NA
ATOM     10  C   UNL     1      -2.885  -4.422   0.696  0.00  0.00    +0.109 C 
ATOM     11  C   UNL     1      -1.641  -3.865  -0.004  0.00  0.00    +0.023 C 
ATOM     12  H   UNL     1       0.586  -1.540   0.661  0.00  0.00    -0.082 HD
ATOM     13  H   UNL     1       0.233  -2.432  -0.695  0.00  0.00    -0.082 HD
ENDROOT
BRANCH   9  14
ATOM     14  S   UNL     1      -5.268  -3.127   0.857  0.00  0.00    +0.061 S 
ATOM     15  O   UNL     1      -5.742  -4.418   0.500  0.00  0.00    -0.153 OA
ATOM     16  O   UNL     1      -5.852  -2.363   1.903  0.00  0.00    -0.153 OA
BRANCH  14  17
ATOM     17  C   UNL     1      -5.354  -2.138  -0.598  0.00  0.00    +0.107 A 
ATOM     18  C   UNL     1      -5.436  -0.761  -0.494  0.00  0.00    +0.030 A 
ATOM     19  C   UNL     1      -5.504   0.016  -1.635  0.00  0.00    +0.023 A 
ATOM     20  C   UNL     1      -5.491  -0.583  -2.882  0.00  0.00    +0.059 A 
ATOM     21  C   UNL     1      -5.409  -1.961  -2.986  0.00  0.00    +0.061 A 
ATOM     22  C   UNL     1      -5.335  -2.737  -1.843  0.00  0.00    +0.050 A 
ATOM     23 CL   UNL     1      -5.393  -2.715  -4.550  0.00  0.00    -0.082 Cl
ATOM     24 CL   UNL     1      -5.578   0.393  -4.315  0.00  0.00    -0.082 Cl
ENDBRANCH  14  17
ENDBRANCH   9  14
BRANCH   1  25
ATOM     25  C   UNL     1       2.729  -2.765   0.901  0.00  0.00    -0.020 C 
ATOM     26  C   UNL     1       3.178  -2.116  -0.409  0.00  0.00    +0.006 C 
BRANCH  25  28
ATOM     27  C   UNL     1       5.085  -3.102   1.664  0.00  0.00    +0.004 C 
ATOM     28  C   UNL     1       3.765  -3.804   1.337  0.00  0.00    -0.001 C 
ENDBRANCH  25  28
ENDBRANCH   1  25
BRANCH   4  29
ATOM     29  C   UNL     1      -1.276  -4.123   3.261  0.00  0.00    +0.141 C 
BRANCH  29  30
ATOM     30  C   UNL     1      -1.156  -3.091   4.353  0.00  0.00    -0.030 A 
ATOM     31  C   UNL     1       0.053  -2.458   4.575  0.00  0.00    +0.005 A 
ATOM     32  C   UNL     1       0.163  -1.512   5.577  0.00  0.00    +0.000 A 
ATOM     33  C   UNL     1      -0.935  -1.198   6.355  0.00  0.00    +0.000 A 
ATOM     34  C   UNL     1      -2.144  -1.830   6.132  0.00  0.00    +0.000 A 
ATOM     35  C   UNL     1      -2.256  -2.773   5.128  0.00  0.00    +0.005 A 
ENDBRANCH  29  30
ENDBRANCH   4  29
TORSDOF 6
