REMARK  Name = ZINC49962811
REMARK  4 active torsions:
REMARK  status: ('A' for Active; 'I' for Inactive)
REMARK    1  A    between atoms: C_1  and  C_2
REMARK    2  A    between atoms: C_2  and  C_3
REMARK    3  A    between atoms: C_6  and  C_9
REMARK    4  A    between atoms: C_9  and  N_10
REMARK                            x       y       z     vdW  Elec       q    Type
REMARK                         _______ _______ _______ _____ _____    ______ ____
ROOT
ATOM      1  C   UNL     1       2.707  -1.868  -4.752  0.00  0.00    +0.178 C 
ENDROOT
BRANCH   1   2
ATOM      2  N   UNL     1       3.149  -0.719  -5.546  0.00  0.00    -0.264 N 
ATOM      3  C   UNL     1       4.410  -0.482  -5.966  0.00  0.00    +0.126 A 
ATOM      4  C   UNL     1       4.401   0.676  -6.667  0.00  0.00    +0.086 A 
ATOM      5  C   UNL     1       3.089   1.163  -6.674  0.00  0.00    +0.249 A 
ATOM      6  N   UNL     1       2.338   0.325  -6.007  0.00  0.00    -0.145 NA
ATOM      7  N   UNL     1       2.630   2.409  -7.329  0.00  0.00    +0.078 N 
ATOM      8  O   UNL     1       3.419   3.106  -7.924  0.00  0.00    -0.125 OA
ATOM      9  O   UNL     1       1.466   2.730  -7.268  0.00  0.00    -0.125 OA
ATOM     10 BR   UNL     1       5.896   1.492  -7.488  0.00  0.00    -0.045 Br
ENDBRANCH   1   2
BRANCH   1  14
ATOM     11  C   UNL     1       0.707  -0.490  -1.238  0.00  0.00    -0.048 A 
ATOM     12  C   UNL     1      -0.011  -0.719  -2.397  0.00  0.00    +0.004 A 
ATOM     13  C   UNL     1       0.636  -1.164  -3.534  0.00  0.00    +0.006 A 
ATOM     14  C   UNL     1       2.002  -1.381  -3.513  0.00  0.00    -0.026 A 
ATOM     15  C   UNL     1       2.720  -1.152  -2.354  0.00  0.00    +0.006 A 
ATOM     16  C   UNL     1       2.073  -0.702  -1.218  0.00  0.00    +0.004 A 
BRANCH  11  18
ATOM     17  C   UNL     1      -0.019   1.526   0.010  0.00  0.00    +0.009 C 
ATOM     18  C   UNL     1       0.002  -0.004   0.002  0.00  0.00    +0.032 C 
ENDBRANCH  11  18
ENDBRANCH   1  14
TORSDOF 3
