REMARK  Name = ZINC13389362
REMARK  5 active torsions:
REMARK  status: ('A' for Active; 'I' for Inactive)
REMARK    1  A    between atoms: C_1  and  C_2
REMARK    2  A    between atoms: C_5  and  O_27
REMARK    3  A    between atoms: C_15  and  C_18
REMARK    4  A    between atoms: C_21  and  N_24
REMARK    5  A    between atoms: O_27  and  C_28
REMARK                            x       y       z     vdW  Elec       q    Type
REMARK                         _______ _______ _______ _____ _____    ______ ____
ROOT
ATOM      1  C   UNL     1      -3.713   0.185  -0.976  0.00  0.00    +0.044 C 
ATOM      2  C   UNL     1      -3.802   1.277   0.059  0.00  0.00    -0.045 A 
ATOM      3  C   UNL     1      -5.033   1.805   0.389  0.00  0.00    +0.007 A 
ATOM      4  C   UNL     1      -5.125   2.806   1.338  0.00  0.00    +0.048 A 
ATOM      5  C   UNL     1      -3.979   3.274   1.955  0.00  0.00    +0.141 A 
ATOM      6  C   UNL     1      -2.731   2.738   1.623  0.00  0.00    +0.074 A 
ATOM      7  C   UNL     1      -2.643   1.739   0.671  0.00  0.00    -0.013 A 
ATOM      8  C   UNL     1      -1.338   1.123   0.263  0.00  0.00    +0.049 C 
ATOM      9  C   UNL     1      -0.943   1.579  -1.123  0.00  0.00    -0.023 C 
ATOM     10  C   UNL     1       0.350   1.778  -1.189  0.00  0.00    -0.030 C 
ATOM     11  C   UNL     1       1.003   1.475   0.145  0.00  0.00    +0.033 C 
ATOM     12  C   UNL     1      -0.167   1.589   1.162  0.00  0.00    +0.029 C 
ATOM     13  C   UNL     1      -0.385   3.083   1.488  0.00  0.00    +0.105 C 
ATOM     14  N   UNL     1      -1.605   3.240   2.281  0.00  0.00    -0.334 N 
ATOM     15  H   UNL     1      -1.742   4.204   2.547  0.00  0.00    +0.147 HD
ENDROOT
BRANCH  13  16
ATOM     16  C   UNL     1      -0.513   3.868   0.208  0.00  0.00    -0.027 A 
ATOM     17  C   UNL     1       0.619   4.220  -0.503  0.00  0.00    +0.008 A 
ATOM     18  C   UNL     1       0.502   4.935  -1.680  0.00  0.00    +0.033 A 
ATOM     19  C   UNL     1      -0.748   5.308  -2.141  0.00  0.00    +0.126 A 
ATOM     20  C   UNL     1      -1.879   4.960  -1.427  0.00  0.00    +0.033 A 
ATOM     21  C   UNL     1      -1.762   4.240  -0.253  0.00  0.00    +0.008 A 
BRANCH  19  22
ATOM     22  N   UNL     1      -0.873   6.078  -3.399  0.00  0.00    +0.056 N 
ATOM     23  O   UNL     1      -1.974   6.405  -3.805  0.00  0.00    -0.126 OA
ATOM     24  O   UNL     1       0.124   6.384  -4.028  0.00  0.00    -0.126 OA
ENDBRANCH  19  22
ENDBRANCH  13  16
BRANCH   5  25
ATOM     25  O   UNL     1      -4.066   4.259   2.889  0.00  0.00    -0.493 OA
ATOM     26  C   UNL     1      -5.371   4.761   3.181  0.00  0.00    +0.277 C 
ENDBRANCH   5  25
TORSDOF 3
