REMARK  Name = ZINC49549369
REMARK  3 active torsions:
REMARK  status: ('A' for Active; 'I' for Inactive)
REMARK    1  A    between atoms: C_3  and  N_11
REMARK    2  A    between atoms: C_4  and  C_8
REMARK    3  A    between atoms: C_6  and  N_7
REMARK                            x       y       z     vdW  Elec       q    Type
REMARK                         _______ _______ _______ _____ _____    ______ ____
ROOT
ATOM      1  C   UNL     1      -0.204   0.718  -0.271  0.00  0.00    +0.024 A 
ATOM      2  C   UNL     1       0.680   1.777  -0.246  0.00  0.00    +0.026 A 
ATOM      3  C   UNL     1       2.030   1.552  -0.008  0.00  0.00    +0.045 A 
ATOM      4  C   UNL     1       2.492   0.245   0.208  0.00  0.00    +0.059 A 
ATOM      5  C   UNL     1       1.589  -0.821   0.181  0.00  0.00    +0.037 A 
ATOM      6  C   UNL     1       0.247  -0.580  -0.058  0.00  0.00    +0.025 A 
ENDROOT
BRANCH   3   7
ATOM      7  N   UNL     1       2.922   2.621   0.017  0.00  0.00    -0.293 N 
ATOM      8  C   UNL     1       2.447   3.922  -0.054  0.00  0.00    +0.163 A 
ATOM      9  N   UNL     1       1.204   4.339  -0.042  0.00  0.00    -0.229 NA
ATOM     10  C   UNL     1       0.890   5.640  -0.117  0.00  0.00    +0.054 A 
ATOM     11  C   UNL     1       1.950   6.475  -0.207  0.00  0.00    +0.014 A 
ATOM     12  S   UNL     1       3.327   5.353  -0.168  0.00  0.00    -0.057 S 
ATOM     13  C   UNL     1       1.532   7.912  -0.294  0.00  0.00    +0.045 C 
ATOM     14  C   UNL     1       0.035   7.861  -0.674  0.00  0.00    +0.011 C 
ATOM     15  C   UNL     1      -0.385   6.481  -0.127  0.00  0.00    +0.056 C 
ATOM     16  H   UNL     1       3.875   2.455   0.083  0.00  0.00    +0.154 HD
ENDBRANCH   3   7
BRANCH   4  17
ATOM     17  C   UNL     1       3.923  -0.003   0.462  0.00  0.00    +0.243 C 
ATOM     18  O   UNL     1       4.709   0.924   0.465  0.00  0.00    -0.270 OA
ATOM     19  N   UNL     1       4.359  -1.257   0.691  0.00  0.00    -0.325 N 
ATOM     20  H   UNL     1       3.732  -1.997   0.688  0.00  0.00    +0.145 HD
ATOM     21  H   UNL     1       5.301  -1.421   0.858  0.00  0.00    +0.145 HD
ENDBRANCH   4  17
BRANCH   6  22
ATOM     22  N   UNL     1      -0.659  -1.647  -0.085  0.00  0.00    -0.358 N 
ATOM     23  H   UNL     1      -1.600  -1.480  -0.252  0.00  0.00    +0.142 HD
ATOM     24  H   UNL     1      -0.346  -2.553   0.064  0.00  0.00    +0.142 HD
ENDBRANCH   6  22
TORSDOF 3
