REMARK  Name = ZINC00706744
REMARK  5 active torsions:
REMARK  status: ('A' for Active; 'I' for Inactive)
REMARK    1  A    between atoms: C_1  and  C_2
REMARK    2  A    between atoms: C_6  and  C_9
REMARK    3  A    between atoms: C_7  and  O_8
REMARK    4  A    between atoms: C_12  and  C_22
REMARK    5  A    between atoms: C_12  and  O_26
REMARK                            x       y       z     vdW  Elec       q    Type
REMARK                         _______ _______ _______ _____ _____    ______ ____
ROOT
ATOM      1  C   UNL     1      -1.263  -0.763   0.009  0.00  0.00    +0.272 C 
ATOM      2  O   UNL     1      -1.244  -1.976  -0.076  0.00  0.00    -0.268 OA
ATOM      3  N   UNL     1      -2.438  -0.114   0.126  0.00  0.00    -0.148 N 
ATOM      4  C   UNL     1      -3.760  -0.748   0.251  0.00  0.00    +0.259 C 
ATOM      5  C   UNL     1      -4.716   0.454   0.437  0.00  0.00    +0.096 C 
ATOM      6  C   UNL     1      -5.307   0.394   1.822  0.00  0.00    +0.014 C 
ATOM      7  C   UNL     1      -6.446   1.294   2.136  0.00  0.00    +0.001 C 
ATOM      8  C   UNL     1      -6.436   2.680   1.568  0.00  0.00    +0.000 C 
ATOM      9  C   UNL     1      -5.111   3.372   1.506  0.00  0.00    +0.006 C 
ATOM     10  C   UNL     1      -4.309   3.072   0.257  0.00  0.00    +0.053 C 
ATOM     11  C   UNL     1      -3.803   1.653   0.286  0.00  0.00    +0.045 C 
ATOM     12  N   UNL     1      -2.602   1.269   0.153  0.00  0.00    -0.183 NA
ENDROOT
BRANCH   1  18
ATOM     13  C   UNL     1       3.736  -0.672  -0.020  0.00  0.00    +0.047 C 
ATOM     14  C   UNL     1       2.412   0.047  -0.029  0.00  0.00    -0.008 A 
ATOM     15  C   UNL     1       2.377   1.428  -0.058  0.00  0.00    +0.007 A 
ATOM     16  C   UNL     1       1.165   2.098  -0.065  0.00  0.00    +0.001 A 
ATOM     17  C   UNL     1      -0.019   1.393  -0.043  0.00  0.00    +0.017 A 
ATOM     18  C   UNL     1       0.001  -0.003  -0.013  0.00  0.00    +0.080 A 
ATOM     19  C   UNL     1       1.230  -0.678  -0.006  0.00  0.00    +0.132 A 
BRANCH  19  20
ATOM     20  O   UNL     1       1.263  -2.034   0.023  0.00  0.00    -0.506 OA
ATOM     21  H   UNL     1       1.267  -2.446  -0.851  0.00  0.00    +0.292 HD
ENDBRANCH  19  20
ENDBRANCH   1  18
BRANCH   4  22
ATOM     22  C   UNL     1      -4.109  -1.523  -1.021  0.00  0.00    +0.438 C 
ATOM     23  F   UNL     1      -3.167  -2.538  -1.222  0.00  0.00    -0.166 F 
ATOM     24  F   UNL     1      -5.382  -2.088  -0.888  0.00  0.00    -0.166 F 
ATOM     25  F   UNL     1      -4.096  -0.653  -2.116  0.00  0.00    -0.166 F 
ENDBRANCH   4  22
BRANCH   4  26
ATOM     26  O   UNL     1      -3.799  -1.609   1.391  0.00  0.00    -0.363 OA
ATOM     27  H   UNL     1      -3.167  -2.339   1.354  0.00  0.00    +0.212 HD
ENDBRANCH   4  26
TORSDOF 4
