REMARK  Name = ZINC15931344
REMARK  7 active torsions:
REMARK  status: ('A' for Active; 'I' for Inactive)
REMARK    1  A    between atoms: C_1  and  C_2
REMARK    2  A    between atoms: C_2  and  C_3
REMARK    3  A    between atoms: C_2  and  C_4
REMARK    4  A    between atoms: C_2  and  N_5
REMARK    5  A    between atoms: C_6  and  C_8
REMARK    6  A    between atoms: C_13  and  C_26
REMARK    7  A    between atoms: C_16  and  C_19
REMARK                            x       y       z     vdW  Elec       q    Type
REMARK                         _______ _______ _______ _____ _____    ______ ____
ROOT
ATOM      1  C   UNL     1      -0.588  -1.813   0.280  0.00  0.00    +0.167 A 
ATOM      2  C   UNL     1      -1.094  -3.131   0.235  0.00  0.00    +0.112 A 
ATOM      3  C   UNL     1      -2.445  -3.052   0.162  0.00  0.00    +0.137 A 
ATOM      4  N   UNL     1      -2.783  -1.731   0.152  0.00  0.00    -0.237 N 
ATOM      5  N   UNL     1      -1.611  -0.979   0.227  0.00  0.00    -0.163 NA
ATOM      6  C   UNL     1      -4.162  -1.235   0.073  0.00  0.00    +0.215 C 
ATOM      7  C   UNL     1      -5.055  -2.401  -0.376  0.00  0.00    +0.063 C 
ATOM      8  C   UNL     1      -4.706  -3.642   0.452  0.00  0.00    +0.104 C 
ATOM      9  N   UNL     1      -3.355  -4.106   0.102  0.00  0.00    -0.321 N 
ATOM     10 CL   UNL     1      -0.154  -4.590   0.270  0.00  0.00    -0.078 Cl
ATOM     11  H   UNL     1      -3.346  -4.539  -0.810  0.00  0.00    +0.148 HD
ENDROOT
BRANCH   8  12
ATOM     12  C   UNL     1      -4.754  -3.297   1.918  0.00  0.00    -0.027 A 
ATOM     13  C   UNL     1      -3.583  -3.221   2.648  0.00  0.00    +0.006 A 
ATOM     14  C   UNL     1      -3.626  -2.900   3.992  0.00  0.00    +0.015 A 
ATOM     15  C   UNL     1      -4.842  -2.665   4.608  0.00  0.00    +0.018 A 
ATOM     16  C   UNL     1      -6.014  -2.747   3.878  0.00  0.00    +0.015 A 
ATOM     17  C   UNL     1      -5.970  -3.063   2.533  0.00  0.00    +0.006 A 
ATOM     18 BR   UNL     1      -4.902  -2.234   6.448  0.00  0.00    -0.050 Br
ENDBRANCH   8  12
BRANCH   1  20
ATOM     19  N   UNL     1       1.187  -0.133   0.396  0.00  0.00    -0.305 N 
ATOM     20  C   UNL     1       0.837  -1.434   0.366  0.00  0.00    +0.266 C 
ATOM     21  O   UNL     1       1.693  -2.296   0.409  0.00  0.00    -0.268 OA
ATOM     22  H   UNL     1       0.504   0.554   0.358  0.00  0.00    +0.150 HD
BRANCH  19  24
ATOM     23  C   UNL     1       3.350  -0.314  -0.731  0.00  0.00    +0.031 C 
ATOM     24  C   UNL     1       2.601   0.242   0.481  0.00  0.00    +0.027 C 
ATOM     25  C   UNL     1       2.723   1.768   0.500  0.00  0.00    +0.031 C 
ATOM     26  C   UNL     1       3.205  -0.333   1.763  0.00  0.00    +0.031 C 
ENDBRANCH  19  24
ENDBRANCH   1  20
BRANCH   6  27
ATOM     27  C   UNL     1      -4.246  -0.096  -0.945  0.00  0.00    +0.412 C 
ATOM     28  F   UNL     1      -3.851  -0.565  -2.202  0.00  0.00    -0.168 F 
ATOM     29  F   UNL     1      -5.563   0.371  -1.014  0.00  0.00    -0.168 F 
ATOM     30  F   UNL     1      -3.402   0.946  -0.549  0.00  0.00    -0.168 F 
ENDBRANCH   6  27
TORSDOF 4
