REMARK  Name = ZINC66686896
REMARK  9 active torsions:
REMARK  status: ('A' for Active; 'I' for Inactive)
REMARK    1  A    between atoms: C_1  and  C_2
REMARK    2  A    between atoms: C_7  and  C_8
REMARK    3  A    between atoms: C_11  and  N_13
REMARK    4  A    between atoms: N_16  and  C_17
REMARK    5  A    between atoms: C_20  and  C_29
REMARK    6  A    between atoms: C_21  and  C_23
REMARK    7  A    between atoms: N_25  and  C_26
REMARK    8  A    between atoms: C_26  and  C_27
REMARK    9  A    between atoms: C_26  and  C_28
REMARK                            x       y       z     vdW  Elec       q    Type
REMARK                         _______ _______ _______ _____ _____    ______ ____
ROOT
ATOM      1  N   UNL     1       1.152  -4.874  -0.088  0.00  0.00    -0.289 N 
ATOM      2  C   UNL     1       1.353  -6.191  -0.290  0.00  0.00    +0.304 C 
ATOM      3  O   UNL     1       0.409  -6.957  -0.288  0.00  0.00    -0.252 OA
ATOM      4  N   UNL     1       2.600  -6.659  -0.496  0.00  0.00    -0.269 N 
ATOM      5  H   UNL     1       1.905  -4.262  -0.090  0.00  0.00    +0.151 HD
ATOM      6  H   UNL     1       3.344  -6.041  -0.570  0.00  0.00    +0.156 HD
ENDROOT
BRANCH   1  17
ATOM      7  C   UNL     1      -0.599   1.345  -0.473  0.00  0.00    +0.044 C 
ATOM      8  C   UNL     1      -0.493  -0.157  -0.396  0.00  0.00    -0.044 A 
ATOM      9  C   UNL     1      -0.501  -0.906  -1.558  0.00  0.00    +0.004 A 
ATOM     10  C   UNL     1      -0.407  -2.285  -1.487  0.00  0.00    +0.009 A 
ATOM     11  C   UNL     1      -0.307  -2.905  -0.261  0.00  0.00    +0.018 A 
ATOM     12  C   UNL     1      -0.291  -2.162   0.912  0.00  0.00    +0.129 A 
ATOM     13  C   UNL     1      -0.385  -0.775   0.832  0.00  0.00    -0.006 A 
ATOM     14  C   UNL     1      -0.373   0.053   2.091  0.00  0.00    +0.048 C 
ATOM     15  O   UNL     1      -0.163  -2.967   2.003  0.00  0.00    -0.489 OA
ATOM     16  C   UNL     1      -0.531  -4.310   1.647  0.00  0.00    +0.256 C 
ATOM     17  C   UNL     1      -0.203  -4.365   0.136  0.00  0.00    +0.146 C 
ENDBRANCH   1  17
BRANCH   4  18
ATOM     18  C   UNL     1       2.822  -8.037  -0.603  0.00  0.00    +0.035 A 
ATOM     19  C   UNL     1       1.875  -8.847  -1.219  0.00  0.00    +0.023 A 
ATOM     20  C   UNL     1       2.089 -10.208  -1.327  0.00  0.00    +0.006 A 
ATOM     21  C   UNL     1       3.245 -10.772  -0.826  0.00  0.00    -0.038 A 
ATOM     22  C   UNL     1       4.202  -9.966  -0.206  0.00  0.00    +0.041 A 
ATOM     23  C   UNL     1       3.988  -8.592  -0.101  0.00  0.00    +0.036 A 
ATOM     24  C   UNL     1       3.473 -12.257  -0.946  0.00  0.00    +0.044 C 
BRANCH  22  25
ATOM     25  C   UNL     1       5.441 -10.568   0.332  0.00  0.00    +0.245 C 
ATOM     26  O   UNL     1       5.594 -11.773   0.304  0.00  0.00    -0.270 OA
ATOM     27  N   UNL     1       6.401  -9.779   0.855  0.00  0.00    -0.309 N 
ATOM     28  H   UNL     1       6.279  -8.817   0.877  0.00  0.00    +0.149 HD
BRANCH  27  29
ATOM     29  C   UNL     1       7.628 -10.374   1.388  0.00  0.00    +0.067 C 
ATOM     30  C   UNL     1       8.759  -9.345   1.335  0.00  0.00    +0.027 C 
ATOM     31  C   UNL     1       7.398 -10.805   2.838  0.00  0.00    +0.027 C 
ENDBRANCH  27  29
ENDBRANCH  22  25
ENDBRANCH   4  18
TORSDOF 4
