REMARK  Name = ZINC18996447
REMARK  2 active torsions:
REMARK  status: ('A' for Active; 'I' for Inactive)
REMARK    1  A    between atoms: C_4  and  N_7
REMARK    2  A    between atoms: C_13  and  C_14
REMARK                            x       y       z     vdW  Elec       q    Type
REMARK                         _______ _______ _______ _____ _____    ______ ____
ROOT
ATOM      1  N   UNL     1       3.273  -1.284  -0.653  0.00  0.00    -0.226 NA
ATOM      2  C   UNL     1       3.535  -2.187   0.267  0.00  0.00    +0.166 C 
ATOM      3  N   UNL     1       2.661  -2.848   1.105  0.00  0.00    -0.260 N 
ATOM      4  C   UNL     1       3.117  -3.733   1.975  0.00  0.00    +0.256 C 
ATOM      5  O   UNL     1       2.357  -4.324   2.721  0.00  0.00    -0.269 OA
ATOM      6  C   UNL     1       4.521  -3.978   2.018  0.00  0.00    +0.078 C 
ATOM      7  C   UNL     1       5.223  -4.830   2.815  0.00  0.00    +0.030 C 
ATOM      8  S   UNL     1       5.113  -2.876   0.743  0.00  0.00    -0.049 S 
ATOM      9  H   UNL     1       1.710  -2.663   1.056  0.00  0.00    +0.157 HD
ENDROOT
BRANCH   7  10
ATOM     10  C   UNL     1       4.549  -5.532   3.908  0.00  0.00    +0.001 A 
ATOM     11  C   UNL     1       3.587  -5.026   4.736  0.00  0.00    +0.091 A 
ATOM     12  N   UNL     1       3.203  -5.977   5.625  0.00  0.00    -0.360 N 
ATOM     13  H   UNL     1       2.531  -5.852   6.314  0.00  0.00    +0.165 HD
ATOM     14  C   UNL     1       3.902  -7.147   5.412  0.00  0.00    +0.047 A 
ATOM     15  C   UNL     1       4.770  -6.929   4.329  0.00  0.00    +0.007 A 
ATOM     16  C   UNL     1       5.603  -7.952   3.885  0.00  0.00    +0.010 A 
ATOM     17  C   UNL     1       5.570  -9.180   4.511  0.00  0.00    +0.001 A 
ATOM     18  C   UNL     1       4.711  -9.398   5.577  0.00  0.00    +0.002 A 
ATOM     19  C   UNL     1       3.886  -8.392   6.033  0.00  0.00    +0.026 A 
ENDBRANCH   7  10
BRANCH   1  23
ATOM     20  C   UNL     1      -0.628  -0.072  -1.309  0.00  0.00    +0.000 A 
ATOM     21  C   UNL     1       0.382   0.870  -1.230  0.00  0.00    +0.002 A 
ATOM     22  C   UNL     1       1.684   0.474  -1.011  0.00  0.00    +0.028 A 
ATOM     23  C   UNL     1       1.983  -0.883  -0.870  0.00  0.00    +0.067 A 
ATOM     24  C   UNL     1       0.959  -1.830  -0.951  0.00  0.00    +0.028 A 
ATOM     25  C   UNL     1      -0.340  -1.419  -1.170  0.00  0.00    +0.002 A 
ENDBRANCH   1  23
TORSDOF 2
