REMARK  Name = ZINC08845220
REMARK  7 active torsions:
REMARK  status: ('A' for Active; 'I' for Inactive)
REMARK    1  A    between atoms: C_1  and  C_2
REMARK    2  A    between atoms: C_4  and  C_10
REMARK    3  A    between atoms: C_5  and  O_9
REMARK    4  A    between atoms: C_7  and  C_8
REMARK    5  A    between atoms: N_18  and  C_28
REMARK    6  A    between atoms: C_19  and  C_21
REMARK    7  A    between atoms: C_28  and  C_29
REMARK                            x       y       z     vdW  Elec       q    Type
REMARK                         _______ _______ _______ _____ _____    ______ ____
ROOT
ATOM      1  C   UNL     1       0.096  -2.823  -2.599  0.00  0.00    +0.102 A 
ATOM      2  C   UNL     1       0.179  -4.215  -2.712  0.00  0.00    +0.035 A 
ATOM      3  C   UNL     1       0.128  -4.487  -4.066  0.00  0.00    +0.126 A 
ATOM      4  N   UNL     1       0.021  -3.277  -4.692  0.00  0.00    -0.272 N 
ATOM      5  H   UNL     1      -0.035  -3.150  -5.652  0.00  0.00    +0.189 HD
ATOM      6  N   UNL     1      -0.000  -2.333  -3.819  0.00  0.00    -0.173 NA
ATOM      7  C   UNL     1       0.210  -5.939  -4.254  0.00  0.00    +0.266 C 
ATOM      8  O   UNL     1       0.193  -6.502  -5.332  0.00  0.00    -0.268 OA
ATOM      9  N   UNL     1       0.308  -6.561  -3.065  0.00  0.00    -0.281 N 
ATOM     10  C   UNL     1       0.297  -5.540  -2.009  0.00  0.00    +0.142 C 
ENDROOT
BRANCH   1  14
ATOM     11  C   UNL     1      -1.532  -2.130   2.069  0.00  0.00    +0.044 C 
ATOM     12  C   UNL     1      -0.671  -1.704   0.908  0.00  0.00    -0.047 A 
ATOM     13  C   UNL     1      -0.686  -2.434  -0.264  0.00  0.00    +0.017 A 
ATOM     14  C   UNL     1       0.109  -2.042  -1.337  0.00  0.00    +0.044 A 
ATOM     15  C   UNL     1       0.920  -0.909  -1.221  0.00  0.00    +0.126 A 
ATOM     16  C   UNL     1       0.926  -0.186  -0.039  0.00  0.00    +0.049 A 
ATOM     17  C   UNL     1       0.129  -0.581   1.018  0.00  0.00    -0.044 A 
ATOM     18  C   UNL     1       0.134   0.213   2.299  0.00  0.00    +0.044 C 
BRANCH  15  19
ATOM     19  O   UNL     1       1.700  -0.519  -2.263  0.00  0.00    -0.506 OA
ATOM     20  H   UNL     1       1.295   0.154  -2.826  0.00  0.00    +0.292 HD
ENDBRANCH  15  19
ENDBRANCH   1  14
BRANCH  10  21
ATOM     21  C   UNL     1       1.580  -5.595  -1.220  0.00  0.00    -0.021 A 
ATOM     22  C   UNL     1       2.791  -5.715  -1.876  0.00  0.00    +0.006 A 
ATOM     23  C   UNL     1       3.967  -5.766  -1.152  0.00  0.00    +0.001 A 
ATOM     24  C   UNL     1       3.934  -5.696   0.228  0.00  0.00    +0.015 A 
ATOM     25  C   UNL     1       2.723  -5.575   0.885  0.00  0.00    +0.018 A 
ATOM     26  C   UNL     1       1.546  -5.520   0.160  0.00  0.00    +0.021 A 
ATOM     27 BR   UNL     1       2.676  -5.481   2.773  0.00  0.00    -0.050 Br
ENDBRANCH  10  21
BRANCH   9  28
ATOM     28  C   UNL     1       0.409  -8.008  -2.858  0.00  0.00    +0.135 C 
BRANCH  28  29
ATOM     29  C   UNL     1       1.860  -8.416  -2.857  0.00  0.00    -0.016 C 
ATOM     30  C   UNL     1       2.353  -9.079  -1.841  0.00  0.00    +0.005 C 
ENDBRANCH  28  29
ENDBRANCH   9  28
TORSDOF 5
