REMARK  Name = ZINC41021143
REMARK  9 active torsions:
REMARK  status: ('A' for Active; 'I' for Inactive)
REMARK    1  A    between atoms: C_1  and  C_2
REMARK    2  A    between atoms: C_5  and  C_8
REMARK    3  A    between atoms: C_11  and  C_13
REMARK    4  A    between atoms: C_13  and  C_14
REMARK    5  A    between atoms: C_14  and  C_15
REMARK    6  A    between atoms: N_17  and  C_18
REMARK    7  A    between atoms: C_18  and  C_19
REMARK    8  A    between atoms: C_19  and  C_21
REMARK    9  A    between atoms: C_19  and  N_26
REMARK                            x       y       z     vdW  Elec       q    Type
REMARK                         _______ _______ _______ _____ _____    ______ ____
ROOT
ATOM      1  C   UNL     1       1.574  -9.346   2.422  0.00  0.00    +0.213 C 
ATOM      2  O   UNL     1       0.550  -9.974   2.590  0.00  0.00    -0.276 OA
ATOM      3  N   UNL     1       2.732  -9.792   2.947  0.00  0.00    -0.317 N 
ATOM      4  H   UNL     1       3.551  -9.290   2.813  0.00  0.00    +0.149 HD
ENDROOT
BRANCH   1   5
ATOM      5  C   UNL     1       1.550  -8.066   1.627  0.00  0.00    +0.105 C 
BRANCH   5   6
ATOM      6  C   UNL     1       0.124  -7.788   1.149  0.00  0.00    +0.105 C 
BRANCH   6  10
ATOM      7  C   UNL     1      -0.054  -4.404  -0.167  0.00  0.00    +0.155 A 
ATOM      8  C   UNL     1       0.190  -5.125  -1.292  0.00  0.00    +0.161 A 
ATOM      9  N   UNL     1       0.279  -6.414  -0.934  0.00  0.00    -0.221 NA
ATOM     10  C   UNL     1       0.100  -6.508   0.354  0.00  0.00    +0.197 A 
ATOM     11  O   UNL     1      -0.103  -5.283   0.858  0.00  0.00    -0.440 OA
BRANCH   7  16
ATOM     12  C   UNL     1      -0.730   1.300   0.172  0.00  0.00    +0.044 C 
ATOM     13  C   UNL     1      -0.553  -0.194   0.083  0.00  0.00    -0.050 A 
ATOM     14  C   UNL     1      -0.313  -0.787  -1.143  0.00  0.00    +0.004 A 
ATOM     15  C   UNL     1      -0.150  -2.154  -1.232  0.00  0.00    +0.012 A 
ATOM     16  C   UNL     1      -0.227  -2.939  -0.080  0.00  0.00    +0.019 A 
ATOM     17  C   UNL     1      -0.469  -2.334   1.154  0.00  0.00    +0.012 A 
ATOM     18  C   UNL     1      -0.625  -0.965   1.230  0.00  0.00    +0.004 A 
ENDBRANCH   7  16
ENDBRANCH   6  10
ENDBRANCH   5   6
ENDBRANCH   1   5
BRANCH   3  19
ATOM     19  C   UNL     1       2.755 -11.036   3.720  0.00  0.00    +0.094 C 
BRANCH  19  20
ATOM     20  C   UNL     1       4.199 -11.382   4.087  0.00  0.00    -0.013 C 
BRANCH  20  21
ATOM     21  N   UNL     1       4.215 -12.581   4.937  0.00  0.00    +0.386 N 
ATOM     22  C   UNL     1       3.511 -12.297   6.193  0.00  0.00    -0.078 C 
ATOM     23  C   UNL     1       3.453 -13.565   7.048  0.00  0.00    -0.019 C 
ATOM     24  C   UNL     1       4.879 -14.033   7.354  0.00  0.00    -0.004 C 
ATOM     25  C   UNL     1       5.628 -14.254   6.036  0.00  0.00    -0.019 C 
ATOM     26  C   UNL     1       5.604 -12.960   5.219  0.00  0.00    -0.078 C 
ATOM     27  H   UNL     1       3.751 -13.338   4.457  0.00  0.00    -0.081 HD
ENDBRANCH  20  21
BRANCH  20  28
ATOM     28  C   UNL     1       4.987 -11.647   2.830  0.00  0.00    -0.022 A 
ATOM     29  C   UNL     1       5.841 -10.827   2.170  0.00  0.00    +0.009 A 
ATOM     30  C   UNL     1       6.461 -11.288   1.023  0.00  0.00    +0.008 A 
ATOM     31  C   UNL     1       6.196 -12.546   0.594  0.00  0.00    +0.045 A 
ATOM     32  S   UNL     1       5.045 -13.124   1.830  0.00  0.00    -0.103 S 
ENDBRANCH  20  28
ENDBRANCH  19  20
ENDBRANCH   3  19
TORSDOF 8
