REMARK  Name = ZINC29787939
REMARK  8 active torsions:
REMARK  status: ('A' for Active; 'I' for Inactive)
REMARK    1  A    between atoms: C_1  and  C_2
REMARK    2  A    between atoms: C_3  and  C_13
REMARK    3  A    between atoms: C_5  and  C_7
REMARK    4  A    between atoms: N_15  and  C_16
REMARK    5  A    between atoms: C_18  and  C_24
REMARK    6  A    between atoms: C_18  and  C_25
REMARK    7  A    between atoms: C_20  and  C_22
REMARK    8  A    between atoms: C_20  and  C_23
REMARK                            x       y       z     vdW  Elec       q    Type
REMARK                         _______ _______ _______ _____ _____    ______ ____
ROOT
ATOM      1  C   UNL     1      -0.014   1.213   0.009  0.00  0.00    +0.253 C 
ATOM      2  O   UNL     1       0.002  -0.004   0.002  0.00  0.00    -0.270 OA
ATOM      3  N   UNL     1      -1.191   1.871   0.018  0.00  0.00    -0.308 N 
ATOM      4  H   UNL     1      -1.206   2.970   0.024  0.00  0.00    +0.149 HD
ENDROOT
BRANCH   3   5
ATOM      5  C   UNL     1      -2.452   1.119   0.020  0.00  0.00    +0.071 C 
ATOM      6  C   UNL     1      -2.846   0.792  -1.421  0.00  0.00    +0.009 C 
ATOM      7  C   UNL     1      -4.168   0.030  -1.451  0.00  0.00    -0.072 C 
ATOM      8  N   UNL     1      -5.201   0.658  -0.654  0.00  0.00    +0.386 N 
ATOM      9  C   UNL     1      -4.881   1.232   0.635  0.00  0.00    -0.072 C 
ATOM     10  C   UNL     1      -3.551   1.982   0.640  0.00  0.00    +0.009 C 
ATOM     11  C   UNL     1      -4.868   0.160   1.732  0.00  0.00    -0.010 C 
ATOM     12  C   UNL     1      -5.988   2.247   1.000  0.00  0.00    -0.010 C 
ATOM     13  C   UNL     1      -3.933  -1.420  -1.010  0.00  0.00    -0.010 C 
ATOM     14  C   UNL     1      -4.648  -0.010  -2.919  0.00  0.00    -0.010 C 
ATOM     15  H   UNL     1      -5.637   1.498  -1.216  0.00  0.00    -0.084 HD
ATOM     16  H   UNL     1      -5.987  -0.078  -0.427  0.00  0.00    -0.084 HD
ENDBRANCH   3   5
BRANCH   1  19
ATOM     17  C   UNL     1       2.859   0.023  -0.012  0.00  0.00    +0.067 C 
ATOM     18  C   UNL     1       2.556   1.499  -0.009  0.00  0.00    +0.058 A 
ATOM     19  C   UNL     1       1.246   1.963   0.001  0.00  0.00    +0.097 A 
ATOM     20  S   UNL     1       1.524   3.729   0.008  0.00  0.00    -0.061 S 
ATOM     21  C   UNL     1       3.259   3.685  -0.009  0.00  0.00    +0.127 A 
ATOM     22  N   UNL     1       3.514   2.385  -0.019  0.00  0.00    -0.242 NA
BRANCH  21  23
ATOM     23  C   UNL     1       4.213   4.815  -0.012  0.00  0.00    +0.096 A 
ATOM     24  C   UNL     1       5.585   4.562  -0.027  0.00  0.00    +0.030 A 
ATOM     25  C   UNL     1       6.465   5.631  -0.030  0.00  0.00    +0.004 A 
ATOM     26  C   UNL     1       5.946   6.917  -0.019  0.00  0.00    +0.020 A 
ATOM     27  C   UNL     1       4.574   7.095  -0.004  0.00  0.00    +0.111 A 
ATOM     28  N   UNL     1       3.757   6.062  -0.007  0.00  0.00    -0.253 NA
ENDBRANCH  21  23
ENDBRANCH   1  19
TORSDOF 3
