REMARK  Name = ZINC20386602
REMARK  16 active torsions:
REMARK  status: ('A' for Active; 'I' for Inactive)
REMARK    1  A    between atoms: C_1  and  C_2
REMARK    2  A    between atoms: C_2  and  C_3
REMARK    3  A    between atoms: C_2  and  C_4
REMARK    4  A    between atoms: C_4  and  C_5
REMARK    5  A    between atoms: C_5  and  C_6
REMARK    6  A    between atoms: C_6  and  C_8
REMARK    7  A    between atoms: C_6  and  N_23
REMARK    8  A    between atoms: C_12  and  N_13
REMARK    9  A    between atoms: N_19  and  C_22
REMARK   10  A    between atoms: N_26  and  C_27
REMARK   11  A    between atoms: C_29  and  O_37
REMARK   12  A    between atoms: C_30  and  O_35
REMARK   13  A    between atoms: C_31  and  O_33
REMARK   14  A    between atoms: O_33  and  C_34
REMARK   15  A    between atoms: O_35  and  C_36
REMARK   16  A    between atoms: O_37  and  C_38
REMARK                            x       y       z     vdW  Elec       q    Type
REMARK                         _______ _______ _______ _____ _____    ______ ____
ROOT
ATOM      1  C   UNL     1       5.649   1.696  -0.672  0.00  0.00    +0.108 C 
ENDROOT
BRANCH   1   2
ATOM      2  C   UNL     1       6.824   0.995  -1.304  0.00  0.00    +0.007 A 
ATOM      3  C   UNL     1       7.522   1.600  -2.346  0.00  0.00    -0.034 A 
ATOM      4  C   UNL     1       8.573   0.906  -2.864  0.00  0.00    -0.021 A 
ATOM      5  S   UNL     1       8.598  -0.593  -1.920  0.00  0.00    -0.077 S 
ATOM      6  C   UNL     1       7.203  -0.235  -0.862  0.00  0.00    +0.090 A 
ATOM      7  C   UNL     1       9.471   1.338  -3.976  0.00  0.00    -0.036 C 
ATOM      8  N   UNL     1       8.840   2.482  -4.660  0.00  0.00    +0.381 N 
ATOM      9  C   UNL     1       8.400   3.490  -3.685  0.00  0.00    -0.074 C 
ATOM     10  C   UNL     1       7.185   2.980  -2.907  0.00  0.00    +0.018 C 
ATOM     11  C   UNL     1       9.750   3.071  -5.652  0.00  0.00    -0.096 C 
ATOM     12  H   UNL     1       7.952   2.119  -5.198  0.00  0.00    -0.082 HD
BRANCH   6  13
ATOM     13  N   UNL     1       6.646  -1.016   0.157  0.00  0.00    -0.317 N 
ATOM     14  C   UNL     1       5.657  -0.621   1.012  0.00  0.00    +0.092 A 
ATOM     15  C   UNL     1       5.388  -1.646   1.847  0.00  0.00    +0.019 A 
ATOM     16  C   UNL     1       6.246  -2.710   1.501  0.00  0.00    +0.019 A 
ATOM     17  C   UNL     1       7.004  -2.297   0.464  0.00  0.00    +0.092 A 
ENDBRANCH   6  13
ENDBRANCH   1   2
BRANCH   1  18
ATOM     18  N   UNL     1       4.521   0.767  -0.575  0.00  0.00    -0.292 N 
ATOM     19  C   UNL     1       3.264   1.242  -0.472  0.00  0.00    +0.304 C 
ATOM     20  O   UNL     1       3.067   2.442  -0.460  0.00  0.00    -0.252 OA
ATOM     21  N   UNL     1       2.225   0.388  -0.382  0.00  0.00    -0.269 N 
ATOM     22  H   UNL     1       4.699  -0.318  -0.585  0.00  0.00    +0.151 HD
ATOM     23  H   UNL     1       2.409  -0.693  -0.287  0.00  0.00    +0.156 HD
BRANCH  21  24
ATOM     24  C   UNL     1       0.912   0.875  -0.409  0.00  0.00    +0.042 A 
ATOM     25  C   UNL     1      -0.083   0.228   0.310  0.00  0.00    +0.073 A 
ATOM     26  C   UNL     1      -1.383   0.707   0.281  0.00  0.00    +0.167 A 
ATOM     27  C   UNL     1      -1.688   1.842  -0.461  0.00  0.00    +0.204 A 
ATOM     28  C   UNL     1      -0.691   2.490  -1.180  0.00  0.00    +0.167 A 
ATOM     29  C   UNL     1       0.607   2.006  -1.153  0.00  0.00    +0.073 A 
BRANCH  28  30
ATOM     30  O   UNL     1      -0.990   3.598  -1.911  0.00  0.00    -0.491 OA
ATOM     31  C   UNL     1       0.084   4.212  -2.626  0.00  0.00    +0.277 C 
ENDBRANCH  28  30
BRANCH  27  32
ATOM     32  O   UNL     1      -2.965   2.316  -0.487  0.00  0.00    -0.488 OA
ATOM     33  C   UNL     1      -3.825   1.809  -1.509  0.00  0.00    +0.277 C 
ENDBRANCH  27  32
BRANCH  26  34
ATOM     34  O   UNL     1      -2.360   0.069   0.980  0.00  0.00    -0.491 OA
ATOM     35  C   UNL     1      -1.974  -1.089   1.724  0.00  0.00    +0.277 C 
ENDBRANCH  26  34
ENDBRANCH  21  24
ENDBRANCH   1  18
BRANCH   1  36
ATOM     36  C   UNL     1       6.036   2.178   0.727  0.00  0.00    +0.027 C 
BRANCH  36  37
ATOM     37  C   UNL     1       4.887   2.998   1.319  0.00  0.00    +0.005 C 
BRANCH  37  39
ATOM     38  C   UNL     1       4.179   4.401   3.261  0.00  0.00    +0.007 C 
ATOM     39  C   UNL     1       5.274   3.480   2.719  0.00  0.00    -0.017 C 
ATOM     40  C   UNL     1       5.432   2.275   3.648  0.00  0.00    +0.007 C 
ENDBRANCH  37  39
ENDBRANCH  36  37
ENDBRANCH   1  36
TORSDOF 10
