REMARK  Name = ZINC19293095
REMARK  8 active torsions:
REMARK  status: ('A' for Active; 'I' for Inactive)
REMARK    1  A    between atoms: C_1  and  C_2
REMARK    2  A    between atoms: C_2  and  C_3
REMARK    3  A    between atoms: C_2  and  C_4
REMARK    4  A    between atoms: C_4  and  C_6
REMARK    5  A    between atoms: C_4  and  N_17
REMARK    6  A    between atoms: C_18  and  C_20
REMARK    7  A    between atoms: C_20  and  S_21
REMARK    8  A    between atoms: S_21  and  C_22
REMARK                            x       y       z     vdW  Elec       q    Type
REMARK                         _______ _______ _______ _____ _____    ______ ____
ROOT
ATOM      1  N   UNL     1      -2.144  -0.415   1.270  0.00  0.00    -0.308 N 
ATOM      2  C   UNL     1      -2.022  -1.094   2.428  0.00  0.00    +0.224 C 
ATOM      3  O   UNL     1      -1.929  -0.492   3.476  0.00  0.00    -0.275 OA
ATOM      4  H   UNL     1      -2.229  -0.961   0.318  0.00  0.00    +0.149 HD
ENDROOT
BRANCH   1   5
ATOM      5  C   UNL     1      -2.164   1.050   1.278  0.00  0.00    +0.106 C 
BRANCH   5   6
ATOM      6  C   UNL     1      -2.893   1.549   0.057  0.00  0.00    -0.023 A 
ATOM      7  C   UNL     1      -2.702   0.925  -1.162  0.00  0.00    +0.009 A 
ATOM      8  C   UNL     1      -3.373   1.374  -2.286  0.00  0.00    +0.050 A 
ATOM      9  C   UNL     1      -4.227   2.459  -2.188  0.00  0.00    +0.162 A 
ATOM     10  C   UNL     1      -4.415   3.088  -0.965  0.00  0.00    +0.162 A 
ATOM     11  C   UNL     1      -3.747   2.633   0.159  0.00  0.00    +0.055 A 
ATOM     12  O   UNL     1      -5.260   4.156  -0.879  0.00  0.00    -0.488 OA
ATOM     13  C   UNL     1      -4.834   5.346  -1.544  0.00  0.00    +0.232 C 
ATOM     14  C   UNL     1      -5.213   5.307  -3.016  0.00  0.00    +0.082 C 
ATOM     15  C   UNL     1      -4.492   4.201  -3.771  0.00  0.00    +0.232 C 
ATOM     16  O   UNL     1      -4.891   2.916  -3.290  0.00  0.00    -0.488 OA
ENDBRANCH   5   6
BRANCH   5  18
ATOM     17  C   UNL     1      -0.013   1.086   0.008  0.00  0.00    +0.009 C 
ATOM     18  C   UNL     1      -0.729   1.579   1.267  0.00  0.00    +0.008 C 
ATOM     19  C   UNL     1       0.011   1.072   2.506  0.00  0.00    +0.009 C 
ENDBRANCH   5  18
ENDBRANCH   1   5
BRANCH   2  20
ATOM     20  C   UNL     1      -2.002  -2.601   2.419  0.00  0.00    +0.173 C 
BRANCH  20  21
ATOM     21  S   UNL     1      -1.829  -3.212   4.118  0.00  0.00    -0.076 S 
BRANCH  21  22
ATOM     22  C   UNL     1      -1.821  -4.965   3.941  0.00  0.00    +0.196 A 
ATOM     23  N   UNL     1      -1.920  -5.635   2.815  0.00  0.00    -0.122 NA
ATOM     24  N   UNL     1      -1.881  -6.901   3.043  0.00  0.00    -0.127 NA
ATOM     25  C   UNL     1      -1.752  -7.115   4.340  0.00  0.00    +0.180 A 
ATOM     26  N   UNL     1      -1.705  -5.878   4.947  0.00  0.00    -0.275 N 
ATOM     27  C   UNL     1      -1.581  -5.779   6.306  0.00  0.00    +0.115 A 
ATOM     28  C   UNL     1      -1.491  -6.889   7.068  0.00  0.00    +0.059 A 
ATOM     29  C   UNL     1      -1.530  -8.165   6.475  0.00  0.00    +0.045 A 
ATOM     30  C   UNL     1      -1.659  -8.282   5.126  0.00  0.00    +0.087 A 
ATOM     31 CL   UNL     1      -1.709  -9.849   4.381  0.00  0.00    -0.080 Cl
ATOM     32 CL   UNL     1      -1.327  -6.742   8.790  0.00  0.00    -0.082 Cl
ENDBRANCH  21  22
ENDBRANCH  20  21
ENDBRANCH   2  20
TORSDOF 6
