REMARK  Name = ZINC05035229
REMARK  7 active torsions:
REMARK  status: ('A' for Active; 'I' for Inactive)
REMARK    1  A    between atoms: C_1  and  C_2
REMARK    2  A    between atoms: C_2  and  O_3
REMARK    3  A    between atoms: O_3  and  C_4
REMARK    4  A    between atoms: C_4  and  C_5
REMARK    5  A    between atoms: C_5  and  C_6
REMARK    6  A    between atoms: C_6  and  N_7
REMARK    7  A    between atoms: C_18  and  C_21
REMARK                            x       y       z     vdW  Elec       q    Type
REMARK                         _______ _______ _______ _____ _____    ______ ____
ROOT
ATOM      1  N   UNL     1       5.345   3.886  -2.721  0.00  0.00    -0.328 N 
ATOM      2  C   UNL     1       5.098   2.764  -1.956  0.00  0.00    +0.130 A 
ATOM      3  C   UNL     1       6.157   1.772  -1.725  0.00  0.00    +0.040 A 
ATOM      4  C   UNL     1       7.435   1.923  -2.264  0.00  0.00    +0.013 A 
ATOM      5  C   UNL     1       8.393   0.964  -2.018  0.00  0.00    +0.001 A 
ATOM      6  C   UNL     1       8.095  -0.146  -1.241  0.00  0.00    +0.002 A 
ATOM      7  C   UNL     1       6.835  -0.309  -0.702  0.00  0.00    +0.028 A 
ATOM      8  C   UNL     1       5.856   0.646  -0.937  0.00  0.00    +0.080 A 
ATOM      9  N   UNL     1       4.580   0.525  -0.418  0.00  0.00    -0.193 N 
ATOM     10  C   UNL     1       3.637   1.486  -0.678  0.00  0.00    +0.186 A 
ATOM     11  N   UNL     1       3.911   2.568  -1.422  0.00  0.00    -0.210 NA
ATOM     12  C   UNL     1       2.480   1.072  -0.016  0.00  0.00    +0.139 A 
ATOM     13  N   UNL     1       2.741  -0.087   0.595  0.00  0.00    -0.127 NA
ATOM     14  N   UNL     1       3.960  -0.440   0.383  0.00  0.00    -0.058 NA
ATOM     15  H   UNL     1       6.222   4.024  -3.111  0.00  0.00    +0.147 HD
ENDROOT
BRANCH  12  16
ATOM     16  C   UNL     1       1.185   1.791   0.000  0.00  0.00    +0.006 A 
ATOM     17  C   UNL     1      -0.013   1.076   0.008  0.00  0.00    +0.011 A 
ATOM     18  C   UNL     1      -1.216   1.751   0.017  0.00  0.00    +0.020 A 
ATOM     19  C   UNL     1      -1.236   3.135   0.030  0.00  0.00    +0.041 A 
ATOM     20  C   UNL     1      -0.050   3.850   0.023  0.00  0.00    +0.020 A 
ATOM     21  C   UNL     1       1.159   3.186   0.008  0.00  0.00    +0.011 A 
ATOM     22 CL   UNL     1      -2.754   3.978   0.048  0.00  0.00    -0.084 Cl
ENDBRANCH  12  16
BRANCH   1  23
ATOM     23  C   UNL     1       4.281   4.868  -2.945  0.00  0.00    +0.105 C 
BRANCH  23  24
ATOM     24  C   UNL     1       4.813   6.006  -3.819  0.00  0.00    +0.047 C 
BRANCH  24  25
ATOM     25  C   UNL     1       3.703   7.032  -4.053  0.00  0.00    +0.161 C 
BRANCH  25  26
ATOM     26  O   UNL     1       4.199   8.094  -4.869  0.00  0.00    -0.380 OA
BRANCH  26  28
ATOM     27  C   UNL     1       3.874  10.191  -6.025  0.00  0.00    +0.034 C 
ATOM     28  C   UNL     1       3.236   9.111  -5.149  0.00  0.00    +0.156 C 
ENDBRANCH  26  28
ENDBRANCH  25  26
ENDBRANCH  24  25
ENDBRANCH  23  24
ENDBRANCH   1  23
TORSDOF 6
