REMARK  Name = ZINC32577001
REMARK  8 active torsions:
REMARK  status: ('A' for Active; 'I' for Inactive)
REMARK    1  A    between atoms: C_1  and  C_2
REMARK    2  A    between atoms: C_2  and  C_10
REMARK    3  A    between atoms: C_3  and  C_4
REMARK    4  A    between atoms: N_11  and  N_12
REMARK    5  A    between atoms: C_13  and  C_15
REMARK    6  A    between atoms: C_15  and  N_16
REMARK    7  A    between atoms: N_19  and  S_22
REMARK    8  A    between atoms: S_22  and  C_25
REMARK                            x       y       z     vdW  Elec       q    Type
REMARK                         _______ _______ _______ _____ _____    ______ ____
ROOT
ATOM      1  N   UNL     1      -2.563   3.147  -0.047  0.00  0.00    +0.387 N 
ATOM      2  C   UNL     1      -3.357   3.662   1.077  0.00  0.00    -0.061 C 
ATOM      3  C   UNL     1      -2.844   3.047   2.384  0.00  0.00    +0.091 C 
ATOM      4  N   UNL     1      -1.397   3.289   2.482  0.00  0.00    -0.180 NA
ATOM      5  C   UNL     1      -0.552   2.929   1.333  0.00  0.00    +0.091 C 
ATOM      6  C   UNL     1      -1.154   3.549   0.068  0.00  0.00    -0.061 C 
ATOM      7  H   UNL     1      -2.602   2.049  -0.009  0.00  0.00    -0.081 HD
ENDROOT
BRANCH   4   8
ATOM      8  S   UNL     1      -0.738   3.954   3.848  0.00  0.00    +0.061 S 
ATOM      9  O   UNL     1       0.486   4.561   3.455  0.00  0.00    -0.153 OA
ATOM     10  O   UNL     1      -1.777   4.681   4.488  0.00  0.00    -0.153 OA
BRANCH   8  11
ATOM     11  C   UNL     1      -0.317   2.624   4.925  0.00  0.00    +0.106 A 
ATOM     12  C   UNL     1      -1.238   2.164   5.847  0.00  0.00    +0.029 A 
ATOM     13  C   UNL     1      -0.910   1.118   6.689  0.00  0.00    +0.017 A 
ATOM     14  C   UNL     1       0.344   0.538   6.614  0.00  0.00    +0.018 A 
ATOM     15  C   UNL     1       1.267   1.002   5.694  0.00  0.00    +0.017 A 
ATOM     16  C   UNL     1       0.936   2.045   4.850  0.00  0.00    +0.029 A 
ATOM     17 BR   UNL     1       0.795  -0.889   7.770  0.00  0.00    -0.050 Br
ENDBRANCH   8  11
ENDBRANCH   4   8
BRANCH   1  18
ATOM     18  C   UNL     1      -3.130   3.577  -1.332  0.00  0.00    +0.020 C 
BRANCH  18  20
ATOM     19  N   UNL     1      -3.592   5.707  -2.503  0.00  0.00    -0.209 N 
ATOM     20  C   UNL     1      -3.066   5.080  -1.432  0.00  0.00    +0.216 C 
ATOM     21  O   UNL     1      -2.542   5.724  -0.548  0.00  0.00    -0.276 OA
ATOM     22  H   UNL     1      -4.067   5.122  -3.304  0.00  0.00    +0.177 HD
BRANCH  19  24
ATOM     23  C   UNL     1      -3.929   7.702  -3.682  0.00  0.00    +0.133 C 
ATOM     24  N   UNL     1      -3.533   7.104  -2.595  0.00  0.00    -0.188 NA
BRANCH  23  26
ATOM     25  C   UNL     1      -3.409   5.593  -4.988  0.00  0.00    +0.045 C 
ATOM     26  C   UNL     1      -3.968   6.990  -4.909  0.00  0.00    -0.030 C 
ATOM     27  C   UNL     1      -4.507   7.564  -6.004  0.00  0.00    +0.012 C 
BRANCH  27  28
ATOM     28  C   UNL     1      -4.692   6.774  -7.232  0.00  0.00    -0.025 A 
ATOM     29  C   UNL     1      -4.560   7.382  -8.485  0.00  0.00    +0.008 A 
ATOM     30  C   UNL     1      -4.729   6.635  -9.631  0.00  0.00    +0.001 A 
ATOM     31  C   UNL     1      -5.040   5.289  -9.545  0.00  0.00    +0.000 A 
ATOM     32  C   UNL     1      -5.178   4.681  -8.309  0.00  0.00    +0.001 A 
ATOM     33  C   UNL     1      -5.006   5.414  -7.153  0.00  0.00    +0.008 A 
ENDBRANCH  27  28
ENDBRANCH  23  26
ENDBRANCH  19  24
ENDBRANCH  18  20
ENDBRANCH   1  18
TORSDOF 7
