REMARK  Name = ZINC25155302
REMARK  10 active torsions:
REMARK  status: ('A' for Active; 'I' for Inactive)
REMARK    1  A    between atoms: C_1  and  C_2
REMARK    2  A    between atoms: C_3  and  C_16
REMARK    3  A    between atoms: C_4  and  C_15
REMARK    4  A    between atoms: C_9  and  C_11
REMARK    5  A    between atoms: C_16  and  C_17
REMARK    6  A    between atoms: C_17  and  C_18
REMARK    7  A    between atoms: N_20  and  C_21
REMARK    8  A    between atoms: C_21  and  C_22
REMARK    9  A    between atoms: C_22  and  C_24
REMARK   10  A    between atoms: C_22  and  N_29
REMARK                            x       y       z     vdW  Elec       q    Type
REMARK                         _______ _______ _______ _____ _____    ______ ____
ROOT
ATOM      1  C   UNL     1      -2.480   0.808  -0.093  0.00  0.00    +0.100 C 
ENDROOT
BRANCH   1   2
ATOM      2  C   UNL     1      -1.196   1.589   0.020  0.00  0.00    +0.213 C 
ATOM      3  O   UNL     1      -1.229   2.795   0.151  0.00  0.00    -0.276 OA
ATOM      4  N   UNL     1      -0.011   0.949  -0.027  0.00  0.00    -0.316 N 
ATOM      5  H   UNL     1       0.019  -0.145  -0.142  0.00  0.00    +0.149 HD
BRANCH   4   6
ATOM      6  C   UNL     1       1.237   1.709   0.076  0.00  0.00    +0.096 C 
BRANCH   6   7
ATOM      7  C   UNL     1       2.422   0.741   0.109  0.00  0.00    +0.016 C 
BRANCH   7   8
ATOM      8  N   UNL     1       3.662   1.494   0.341  0.00  0.00    +0.387 N 
ATOM      9  C   UNL     1       3.603   2.233   1.628  0.00  0.00    -0.078 C 
ATOM     10  C   UNL     1       5.095   2.502   1.951  0.00  0.00    -0.020 C 
ATOM     11  C   UNL     1       5.791   1.207   1.474  0.00  0.00    -0.020 C 
ATOM     12  C   UNL     1       4.822   0.582   0.452  0.00  0.00    -0.078 C 
ATOM     13  H   UNL     1       3.765   2.174  -0.517  0.00  0.00    -0.081 HD
ENDBRANCH   7   8
BRANCH   7  14
ATOM     14  C   UNL     1       2.514   0.016  -1.209  0.00  0.00    +0.093 A 
ATOM     15  C   UNL     1       2.077  -1.233  -1.452  0.00  0.00    +0.043 A 
ATOM     16  C   UNL     1       2.361  -1.510  -2.809  0.00  0.00    +0.041 A 
ATOM     17  C   UNL     1       2.962  -0.417  -3.312  0.00  0.00    +0.195 A 
ATOM     18  O   UNL     1       3.052   0.504  -2.339  0.00  0.00    -0.469 OA
ENDBRANCH   7  14
ENDBRANCH   6   7
ENDBRANCH   4   6
ENDBRANCH   1   2
BRANCH   1  19
ATOM     19  C   UNL     1      -3.669   1.768  -0.011  0.00  0.00    +0.048 C 
BRANCH  19  22
ATOM     20  C   UNL     1      -4.970   0.732   2.380  0.00  0.00    +0.066 C 
ATOM     21  C   UNL     1      -5.581   0.487   1.024  0.00  0.00    +0.047 A 
ATOM     22  C   UNL     1      -4.953   0.986  -0.124  0.00  0.00    -0.005 A 
ATOM     23  C   UNL     1      -5.517   0.763  -1.338  0.00  0.00    +0.048 A 
ATOM     24  N   UNL     1      -6.673   0.051  -1.408  0.00  0.00    -0.200 N 
ATOM     25  C   UNL     1      -7.260  -0.422  -0.268  0.00  0.00    +0.254 A 
ATOM     26  N   UNL     1      -6.700  -0.193   0.925  0.00  0.00    -0.216 NA
ATOM     27  N   UNL     1      -8.363  -1.067  -0.633  0.00  0.00    -0.186 NA
ATOM     28  C   UNL     1      -8.495  -1.019  -1.952  0.00  0.00    +0.257 A 
ATOM     29  N   UNL     1      -7.493  -0.350  -2.471  0.00  0.00    -0.139 NA
ATOM     30  C   UNL     1      -4.869   1.293  -2.591  0.00  0.00    +0.066 C 
BRANCH  28  31
ATOM     31  C   UNL     1      -9.623  -1.639  -2.735  0.00  0.00    +0.454 C 
ATOM     32  F   UNL     1     -10.669  -1.967  -1.865  0.00  0.00    -0.163 F 
ATOM     33  F   UNL     1     -10.081  -0.729  -3.693  0.00  0.00    -0.163 F 
ATOM     34  F   UNL     1      -9.167  -2.798  -3.372  0.00  0.00    -0.163 F 
ENDBRANCH  28  31
ENDBRANCH  19  22
ENDBRANCH   1  19
TORSDOF 8
