REMARK  Name = ZINC39520341
REMARK  4 active torsions:
REMARK  status: ('A' for Active; 'I' for Inactive)
REMARK    1  A    between atoms: C_1  and  C_2
REMARK    2  A    between atoms: C_2  and  C_3
REMARK    3  A    between atoms: C_2  and  S_4
REMARK    4  A    between atoms: S_4  and  C_7
REMARK                            x       y       z     vdW  Elec       q    Type
REMARK                         _______ _______ _______ _____ _____    ______ ____
ROOT
ATOM      1  C   UNL     1      -1.464  -2.425   0.157  0.00  0.00    +0.133 C 
ATOM      2  C   UNL     1      -0.590  -2.937  -1.006  0.00  0.00    +0.028 C 
ATOM      3  C   UNL     1      -1.201  -4.316  -1.365  0.00  0.00    +0.027 C 
ATOM      4  C   UNL     1      -2.715  -4.073  -1.183  0.00  0.00    +0.055 C 
ATOM      5  C   UNL     1      -2.820  -3.146   0.040  0.00  0.00    +0.051 C 
ATOM      6  C   UNL     1      -3.425  -5.394  -0.908  0.00  0.00    +0.102 C 
ATOM      7  C   UNL     1      -3.293  -6.304  -2.134  0.00  0.00    +0.022 C 
ATOM      8  C   UNL     1      -3.861  -5.581  -3.358  0.00  0.00    +0.018 C 
ATOM      9  C   UNL     1      -3.110  -4.263  -3.563  0.00  0.00    +0.103 C 
ATOM     10  N   UNL     1      -3.265  -3.420  -2.369  0.00  0.00    -0.212 NA
ATOM     11 CL   UNL     1      -4.904  -2.993  -2.130  0.00  0.00    -0.021 Cl
ATOM     12 CL   UNL     1      -2.672  -6.196   0.520  0.00  0.00    -0.120 Cl
ENDROOT
BRANCH   1  13
ATOM     13  S   UNL     1      -1.700  -0.632   0.015  0.00  0.00    -0.026 S 
ATOM     14  O   UNL     1      -2.341  -0.168   1.195  0.00  0.00    -0.174 OA
ATOM     15  O   UNL     1      -2.291  -0.355  -1.247  0.00  0.00    -0.174 OA
BRANCH  13  17
ATOM     16  C   UNL     1      -0.019   1.526   0.010  0.00  0.00    +0.031 C 
ATOM     17  C   UNL     1       0.002  -0.004   0.002  0.00  0.00    +0.125 C 
ATOM     18  C   UNL     1       0.742  -0.511   1.242  0.00  0.00    +0.031 C 
ENDBRANCH  13  17
ENDBRANCH   1  13
TORSDOF 2
