REMARK  Name = ZINC10166992
REMARK  7 active torsions:
REMARK  status: ('A' for Active; 'I' for Inactive)
REMARK    1  A    between atoms: C_1  and  C_2
REMARK    2  A    between atoms: C_2  and  C_3
REMARK    3  A    between atoms: C_8  and  O_29
REMARK    4  A    between atoms: C_9  and  C_11
REMARK    5  A    between atoms: C_11  and  C_13
REMARK    6  A    between atoms: C_11  and  N_20
REMARK    7  A    between atoms: C_23  and  C_26
REMARK                            x       y       z     vdW  Elec       q    Type
REMARK                         _______ _______ _______ _____ _____    ______ ____
ROOT
ATOM      1  C   UNL     1       4.172  -2.393  -5.702  0.00  0.00    +0.005 C 
ENDROOT
BRANCH   1   8
ATOM      2  C   UNL     1       0.707  -0.490  -1.238  0.00  0.00    +0.152 A 
ATOM      3  N   UNL     1       0.124  -0.743  -2.408  0.00  0.00    -0.205 NA
ATOM      4  C   UNL     1       1.025  -1.146  -3.261  0.00  0.00    +0.199 A 
ATOM      5  N   UNL     1       2.247  -1.167  -2.660  0.00  0.00    -0.173 N 
ATOM      6  N   UNL     1       1.988  -0.724  -1.336  0.00  0.00    -0.147 NA
ATOM      7  C   UNL     1       3.316  -1.572  -3.422  0.00  0.00    +0.225 A 
ATOM      8  C   UNL     1       3.147  -1.926  -4.701  0.00  0.00    +0.045 A 
ATOM      9  S   UNL     1       1.388  -1.698  -4.910  0.00  0.00    -0.050 S 
BRANCH   2  11
ATOM     10  C   UNL     1      -0.019   1.526   0.010  0.00  0.00    +0.012 C 
ATOM     11  C   UNL     1       0.002  -0.004   0.002  0.00  0.00    +0.075 C 
ENDBRANCH   2  11
BRANCH   7  12
ATOM     12  O   UNL     1       4.559  -1.612  -2.870  0.00  0.00    -0.492 OA
ATOM     13  H   UNL     1       4.587  -1.339  -1.943  0.00  0.00    +0.294 HD
ENDBRANCH   7  12
ENDBRANCH   1   8
BRANCH   1  14
ATOM     14  C   UNL     1       4.283  -1.383  -6.815  0.00  0.00    -0.056 A 
ATOM     15  C   UNL     1       3.343  -1.365  -7.829  0.00  0.00    +0.003 A 
ATOM     16  C   UNL     1       3.444  -0.439  -8.850  0.00  0.00    +0.015 A 
ATOM     17  C   UNL     1       4.486   0.471  -8.857  0.00  0.00    +0.018 A 
ATOM     18  C   UNL     1       5.426   0.453  -7.843  0.00  0.00    +0.015 A 
ATOM     19  C   UNL     1       5.322  -0.470  -6.819  0.00  0.00    +0.003 A 
ATOM     20 BR   UNL     1       4.625   1.738 -10.254  0.00  0.00    -0.050 Br
ENDBRANCH   1  14
BRANCH   1  21
ATOM     21  N   UNL     1       3.760  -3.689  -6.257  0.00  0.00    +0.387 N 
ATOM     22  C   UNL     1       3.643  -4.669  -5.171  0.00  0.00    -0.077 C 
ATOM     23  C   UNL     1       3.136  -6.000  -5.731  0.00  0.00    -0.006 C 
ATOM     24  C   UNL     1       4.124  -6.514  -6.782  0.00  0.00    +0.071 C 
ATOM     25  C   UNL     1       4.295  -5.452  -7.872  0.00  0.00    -0.006 C 
ATOM     26  C   UNL     1       4.759  -4.142  -7.232  0.00  0.00    -0.077 C 
ATOM     27  H   UNL     1       2.866  -3.589  -6.714  0.00  0.00    -0.080 HD
BRANCH  24  28
ATOM     28  C   UNL     1       3.592  -7.785  -7.394  0.00  0.00    +0.213 C 
ATOM     29  O   UNL     1       2.528  -8.235  -7.028  0.00  0.00    -0.276 OA
ATOM     30  N   UNL     1       4.300  -8.420  -8.350  0.00  0.00    -0.329 N 
ATOM     31  H   UNL     1       5.151  -8.059  -8.643  0.00  0.00    +0.145 HD
ATOM     32  H   UNL     1       3.957  -9.237  -8.744  0.00  0.00    +0.145 HD
ENDBRANCH  24  28
ENDBRANCH   1  21
TORSDOF 6
