REMARK  Name = ZINC40037932
REMARK  6 active torsions:
REMARK  status: ('A' for Active; 'I' for Inactive)
REMARK    1  A    between atoms: C_1  and  C_2
REMARK    2  A    between atoms: C_2  and  N_3
REMARK    3  A    between atoms: C_4  and  C_6
REMARK    4  A    between atoms: C_10  and  N_11
REMARK    5  A    between atoms: C_12  and  C_14
REMARK    6  A    between atoms: C_15  and  C_24
REMARK                            x       y       z     vdW  Elec       q    Type
REMARK                         _______ _______ _______ _____ _____    ______ ____
ROOT
ATOM      1  C   UNL     1      -2.976  -2.347   0.018  0.00  0.00    +0.069 A 
ATOM      2  C   UNL     1      -3.696  -2.607  -1.216  0.00  0.00    -0.023 A 
ATOM      3  C   UNL     1      -4.952  -3.071  -1.036  0.00  0.00    -0.004 A 
ATOM      4  S   UNL     1      -5.152  -3.153   0.719  0.00  0.00    -0.077 S 
ATOM      5  C   UNL     1      -3.642  -2.604   1.206  0.00  0.00    +0.085 A 
ATOM      6  C   UNL     1      -5.940  -3.429  -2.103  0.00  0.00    +0.043 C 
ATOM      7  C   UNL     1      -5.450  -2.836  -3.433  0.00  0.00    +0.005 C 
ATOM      8  C   UNL     1      -3.969  -3.181  -3.614  0.00  0.00    +0.005 C 
ATOM      9  C   UNL     1      -3.124  -2.392  -2.610  0.00  0.00    +0.037 C 
ENDROOT
BRANCH   1  11
ATOM     10  N   UNL     1      -1.372  -0.511   0.012  0.00  0.00    -0.312 N 
ATOM     11  C   UNL     1      -1.601  -1.839   0.007  0.00  0.00    +0.247 C 
ATOM     12  O   UNL     1      -0.665  -2.618  -0.006  0.00  0.00    -0.270 OA
ATOM     13  H   UNL     1      -2.118   0.109   0.023  0.00  0.00    +0.149 HD
BRANCH  10  15
ATOM     14  C   UNL     1      -0.019   1.526   0.010  0.00  0.00    +0.024 C 
ATOM     15  C   UNL     1       0.002  -0.004   0.002  0.00  0.00    +0.101 C 
ENDBRANCH  10  15
ENDBRANCH   1  11
BRANCH   5  16
ATOM     16  N   UNL     1      -3.171  -2.443   2.499  0.00  0.00    -0.273 N 
ATOM     17  C   UNL     1      -3.962  -2.744   3.547  0.00  0.00    +0.284 C 
ATOM     18  O   UNL     1      -5.091  -3.158   3.358  0.00  0.00    -0.266 OA
ATOM     19  H   UNL     1      -2.271  -2.113   2.649  0.00  0.00    +0.156 HD
BRANCH  17  20
ATOM     20  C   UNL     1      -3.463  -2.574   4.918  0.00  0.00    +0.194 A 
ATOM     21  C   UNL     1      -4.167  -2.849   6.047  0.00  0.00    +0.008 A 
ATOM     22  C   UNL     1      -3.280  -2.531   7.165  0.00  0.00    +0.025 A 
ATOM     23  C   UNL     1      -3.405  -2.593   8.555  0.00  0.00    +0.027 A 
ATOM     24  C   UNL     1      -2.358  -2.211   9.347  0.00  0.00    +0.019 A 
ATOM     25  C   UNL     1      -1.173  -1.761   8.778  0.00  0.00    +0.019 A 
ATOM     26  C   UNL     1      -1.030  -1.693   7.409  0.00  0.00    +0.048 A 
ATOM     27  C   UNL     1      -2.081  -2.077   6.584  0.00  0.00    +0.136 A 
ATOM     28  O   UNL     1      -2.233  -2.124   5.246  0.00  0.00    -0.450 OA
ATOM     29 BR   UNL     1      -2.524  -2.294  11.229  0.00  0.00    -0.050 Br
ATOM     30  C   UNL     1      -5.576  -3.377   6.130  0.00  0.00    +0.048 C 
ENDBRANCH  17  20
ENDBRANCH   5  16
TORSDOF 4
