REMARK  Name = ZINC04256399
REMARK  6 active torsions:
REMARK  status: ('A' for Active; 'I' for Inactive)
REMARK    1  A    between atoms: C_1  and  O_2
REMARK    2  A    between atoms: O_2  and  C_3
REMARK    3  A    between atoms: C_6  and  C_9
REMARK    4  A    between atoms: C_19  and  C_21
REMARK    5  A    between atoms: C_24  and  O_27
REMARK    6  A    between atoms: O_27  and  C_28
REMARK                            x       y       z     vdW  Elec       q    Type
REMARK                         _______ _______ _______ _____ _____    ______ ____
ROOT
ATOM      1  C   UNL     1      -5.469   3.646  -2.577  0.00  0.00    +0.013 C 
ATOM      2  C   UNL     1      -4.751   2.507  -2.661  0.00  0.00    -0.024 C 
ATOM      3  C   UNL     1      -4.465   1.911  -4.006  0.00  0.00    +0.037 C 
ATOM      4  C   UNL     1      -3.791   0.554  -3.956  0.00  0.00    +0.005 C 
ATOM      5  C   UNL     1      -2.851   0.386  -2.764  0.00  0.00    +0.012 C 
ATOM      6  C   UNL     1      -3.682   0.486  -1.484  0.00  0.00    +0.066 C 
ATOM      7  C   UNL     1      -4.297   1.880  -1.463  0.00  0.00    +0.067 C 
ATOM      8  N   UNL     1      -4.179   2.363  -0.274  0.00  0.00    -0.191 NA
ATOM      9  N   UNL     1      -3.461   1.534   0.596  0.00  0.00    -0.261 N 
ATOM     10  C   UNL     1      -2.800   0.492  -0.224  0.00  0.00    +0.128 C 
ATOM     11  H   UNL     1      -3.406   1.625   1.560  0.00  0.00    +0.169 HD
ENDROOT
BRANCH   1  15
ATOM     12  C   UNL     1      -6.489   5.779  -6.100  0.00  0.00    +0.120 A 
ATOM     13  C   UNL     1      -7.440   5.592  -5.104  0.00  0.00    +0.046 A 
ATOM     14  C   UNL     1      -7.113   4.900  -3.958  0.00  0.00    +0.011 A 
ATOM     15  C   UNL     1      -5.823   4.385  -3.799  0.00  0.00    -0.024 A 
ATOM     16  C   UNL     1      -4.869   4.580  -4.803  0.00  0.00    +0.011 A 
ATOM     17  C   UNL     1      -5.207   5.268  -5.947  0.00  0.00    +0.046 A 
BRANCH  12  19
ATOM     18  C   UNL     1      -5.792   6.617  -8.212  0.00  0.00    +0.277 C 
ATOM     19  O   UNL     1      -6.816   6.462  -7.228  0.00  0.00    -0.495 OA
ENDBRANCH  12  19
ENDBRANCH   1  15
BRANCH  10  20
ATOM     20  C   UNL     1      -1.384   0.885  -0.558  0.00  0.00    -0.025 A 
ATOM     21  C   UNL     1      -0.412  -0.088  -0.695  0.00  0.00    +0.009 A 
ATOM     22  C   UNL     1       0.886   0.269  -1.006  0.00  0.00    +0.046 A 
ATOM     23  C   UNL     1       1.214   1.606  -1.176  0.00  0.00    +0.120 A 
ATOM     24  C   UNL     1       0.238   2.581  -1.033  0.00  0.00    +0.046 A 
ATOM     25  C   UNL     1      -1.058   2.219  -0.722  0.00  0.00    +0.009 A 
BRANCH  23  26
ATOM     26  O   UNL     1       2.490   1.959  -1.482  0.00  0.00    -0.495 OA
ATOM     27  C   UNL     1       2.756   3.354  -1.643  0.00  0.00    +0.277 C 
ENDBRANCH  23  26
ENDBRANCH  10  20
TORSDOF 4
