REMARK  Name = ZINC13033988
REMARK  19 active torsions:
REMARK  status: ('A' for Active; 'I' for Inactive)
REMARK    1  A    between atoms: C_1  and  C_2
REMARK    2  A    between atoms: C_2  and  C_3
REMARK    3  A    between atoms: C_10  and  C_15
REMARK    4  A    between atoms: C_15  and  N_79
REMARK    5  A    between atoms: C_16  and  C_17
REMARK    6  A    between atoms: C_16  and  N_79
REMARK    7  A    between atoms: C_17  and  C_18
REMARK    8  A    between atoms: C_21  and  O_26
REMARK    9  A    between atoms: C_22  and  O_24
REMARK   10  A    between atoms: O_24  and  C_25
REMARK   11  A    between atoms: O_26  and  C_27
REMARK   12  A    between atoms: C_28  and  C_30
REMARK   13  A    between atoms: C_28  and  C_32
REMARK   14  A    between atoms: C_28  and  N_79
REMARK   15  A    between atoms: C_30  and  C_31
REMARK   16  A    between atoms: N_36  and  C_37
REMARK   17  A    between atoms: C_37  and  C_38
REMARK   18  A    between atoms: C_37  and  C_39
REMARK   19  A    between atoms: C_37  and  C_40
REMARK                            x       y       z     vdW  Elec       q    Type
REMARK                         _______ _______ _______ _____ _____    ______ ____
ROOT
ATOM      1  N   UNL     1      -0.149  -0.158  -0.058  0.00  0.00    +0.389 N 
ATOM      2  H   UNL     1       0.255  -0.246  -0.997  0.00  0.00    -0.080 HD
ENDROOT
BRANCH   1   3
ATOM      3  C   UNL     1      -1.571  -0.558  -0.108  0.00  0.00    -0.037 C 
BRANCH   3  11
ATOM      4  C   UNL     1      -2.056  -6.624  -1.232  0.00  0.00    -0.047 A 
ATOM      5  C   UNL     1      -2.080  -6.524  -2.617  0.00  0.00    +0.005 A 
ATOM      6  C   UNL     1      -2.003  -5.295  -3.235  0.00  0.00    +0.026 A 
ATOM      7  C   UNL     1      -1.898  -4.140  -2.465  0.00  0.00    +0.049 A 
ATOM      8  C   UNL     1      -1.873  -4.246  -1.062  0.00  0.00    -0.001 A 
ATOM      9  C   UNL     1      -1.954  -5.504  -0.456  0.00  0.00    +0.013 A 
ATOM     10  C   UNL     1      -1.757  -3.026  -0.261  0.00  0.00    +0.017 A 
ATOM     11  C   UNL     1      -1.687  -1.833  -0.903  0.00  0.00    +0.001 A 
ATOM     12  C   UNL     1      -1.716  -1.783  -2.313  0.00  0.00    +0.251 A 
ATOM     13  O   UNL     1      -1.647  -0.701  -2.870  0.00  0.00    -0.268 OA
ATOM     14  N   UNL     1      -1.818  -2.898  -3.057  0.00  0.00    -0.322 N 
ATOM     15  H   UNL     1      -1.835  -2.827  -4.024  0.00  0.00    +0.169 HD
BRANCH   4  17
ATOM     16  C   UNL     1      -3.610  -8.330  -0.326  0.00  0.00    +0.009 C 
ATOM     17  C   UNL     1      -2.142  -7.979  -0.580  0.00  0.00    +0.032 C 
ENDBRANCH   4  17
ENDBRANCH   3  11
ENDBRANCH   1   3
BRANCH   1  18
ATOM     18  C   UNL     1      -0.036   1.248   0.384  0.00  0.00    -0.073 C 
BRANCH  18  19
ATOM     19  C   UNL     1       1.378   1.747   0.078  0.00  0.00    +0.017 C 
BRANCH  19  20
ATOM     20  C   UNL     1       1.463   3.223   0.368  0.00  0.00    -0.045 A 
ATOM     21  C   UNL     1       1.180   4.139  -0.628  0.00  0.00    +0.007 A 
ATOM     22  C   UNL     1       1.251   5.495  -0.366  0.00  0.00    +0.049 A 
ATOM     23  C   UNL     1       1.619   5.938   0.894  0.00  0.00    +0.161 A 
ATOM     24  C   UNL     1       1.910   5.016   1.895  0.00  0.00    +0.162 A 
ATOM     25  C   UNL     1       1.831   3.659   1.627  0.00  0.00    +0.053 A 
BRANCH  24  26
ATOM     26  O   UNL     1       2.271   5.446   3.134  0.00  0.00    -0.491 OA
ATOM     27  C   UNL     1       2.555   4.444   4.111  0.00  0.00    +0.277 C 
ENDBRANCH  24  26
BRANCH  23  28
ATOM     28  O   UNL     1       1.695   7.271   1.152  0.00  0.00    -0.491 OA
ATOM     29  C   UNL     1       1.382   8.159   0.077  0.00  0.00    +0.277 C 
ENDBRANCH  23  28
ENDBRANCH  19  20
ENDBRANCH  18  19
ENDBRANCH   1  18
BRANCH   1  30
ATOM     30  C   UNL     1       0.592  -1.039   0.869  0.00  0.00    +0.003 C 
BRANCH  30  31
ATOM     31  C   UNL     1       1.998  -1.204   0.352  0.00  0.00    +0.139 A 
ATOM     32  N   UNL     1       2.717  -0.296  -0.261  0.00  0.00    -0.115 NA
ATOM     33  N   UNL     1       3.861  -0.818  -0.544  0.00  0.00    -0.023 NA
ATOM     34  N   UNL     1       3.889  -2.036  -0.127  0.00  0.00    -0.043 NA
ATOM     35  N   UNL     1       2.761  -2.309   0.436  0.00  0.00    -0.226 N 
BRANCH  35  36
ATOM     36  C   UNL     1       2.380  -3.585   1.048  0.00  0.00    +0.059 C 
ATOM     37  C   UNL     1       1.262  -4.230   0.228  0.00  0.00    +0.036 C 
ATOM     38  C   UNL     1       3.593  -4.517   1.079  0.00  0.00    +0.036 C 
ATOM     39  C   UNL     1       1.889  -3.338   2.476  0.00  0.00    +0.036 C 
ENDBRANCH  35  36
ENDBRANCH  30  31
BRANCH  30  40
ATOM     40  C   UNL     1       0.632  -0.426   2.270  0.00  0.00    -0.011 C 
ATOM     41  C   UNL     1      -0.782  -0.398   2.855  0.00  0.00    +0.002 C 
ENDBRANCH  30  40
ENDBRANCH   1  30
TORSDOF 12
