REMARK  Name = ZINC12765383
REMARK  10 active torsions:
REMARK  status: ('A' for Active; 'I' for Inactive)
REMARK    1  A    between atoms: C_1  and  N_2
REMARK    2  A    between atoms: N_2  and  S_3
REMARK    3  A    between atoms: S_3  and  C_6
REMARK    4  A    between atoms: C_8  and  C_13
REMARK    5  A    between atoms: N_15  and  C_16
REMARK    6  A    between atoms: C_16  and  C_17
REMARK    7  A    between atoms: C_17  and  C_19
REMARK    8  A    between atoms: C_17  and  N_48
REMARK    9  A    between atoms: C_26  and  N_48
REMARK   10  A    between atoms: C_27  and  N_48
REMARK                            x       y       z     vdW  Elec       q    Type
REMARK                         _______ _______ _______ _____ _____    ______ ____
ROOT
ATOM      1  C   UNL     1      -0.007  -2.546   1.872  0.00  0.00    +0.244 C 
ATOM      2  O   UNL     1      -0.610  -3.260   2.650  0.00  0.00    -0.270 OA
ATOM      3  N   UNL     1       0.014  -1.212   2.060  0.00  0.00    -0.313 N 
ATOM      4  H   UNL     1       0.495  -0.642   1.439  0.00  0.00    +0.149 HD
ENDROOT
BRANCH   1   7
ATOM      5  C   UNL     1       1.347  -5.074  -0.552  0.00  0.00    +0.124 A 
ATOM      6  C   UNL     1       0.683  -4.524   0.524  0.00  0.00    +0.043 A 
ATOM      7  C   UNL     1       0.703  -3.142   0.721  0.00  0.00    +0.039 A 
ATOM      8  C   UNL     1       1.392  -2.324  -0.177  0.00  0.00    +0.014 A 
ATOM      9  C   UNL     1       2.056  -2.886  -1.247  0.00  0.00    +0.023 A 
ATOM     10  C   UNL     1       2.033  -4.258  -1.437  0.00  0.00    +0.067 A 
ATOM     11 CL   UNL     1       2.867  -4.958  -2.789  0.00  0.00    -0.082 Cl
BRANCH   5  12
ATOM     12  S   UNL     1       1.324  -6.818  -0.802  0.00  0.00    +0.060 S 
ATOM     13  O   UNL     1       0.589  -7.373   0.280  0.00  0.00    -0.153 OA
ATOM     14  O   UNL     1       0.958  -7.029  -2.159  0.00  0.00    -0.153 OA
BRANCH  12  16
ATOM     15  C   UNL     1       3.575  -7.221   0.640  0.00  0.00    +0.127 C 
ATOM     16  N   UNL     1       2.882  -7.356  -0.643  0.00  0.00    -0.193 NA
ATOM     17  H   UNL     1       3.335  -7.761  -1.399  0.00  0.00    +0.148 HD
ENDBRANCH  12  16
ENDBRANCH   5  12
ENDBRANCH   1   7
BRANCH   3  18
ATOM     18  C   UNL     1      -0.690  -0.621   3.201  0.00  0.00    +0.094 C 
BRANCH  18  19
ATOM     19  C   UNL     1      -0.654   0.904   3.088  0.00  0.00    -0.020 C 
BRANCH  19  20
ATOM     20  C   UNL     1      -1.297   1.513   4.308  0.00  0.00    -0.041 A 
ATOM     21  C   UNL     1      -2.632   1.871   4.279  0.00  0.00    +0.003 A 
ATOM     22  C   UNL     1      -3.222   2.430   5.397  0.00  0.00    +0.000 A 
ATOM     23  C   UNL     1      -2.477   2.630   6.545  0.00  0.00    +0.001 A 
ATOM     24  C   UNL     1      -1.143   2.272   6.575  0.00  0.00    +0.020 A 
ATOM     25  C   UNL     1      -0.553   1.708   5.457  0.00  0.00    +0.043 A 
ATOM     26 CL   UNL     1       1.121   1.251   5.496  0.00  0.00    -0.083 Cl
ENDBRANCH  19  20
BRANCH  19  29
ATOM     27  C   UNL     1      -2.529   0.434   1.629  0.00  0.00    -0.096 C 
ATOM     28  C   UNL     1      -0.497   1.388   0.721  0.00  0.00    -0.096 C 
ATOM     29  N   UNL     1      -1.399   1.350   1.891  0.00  0.00    +0.382 N 
ATOM     30  H   UNL     1      -1.767   2.293   2.060  0.00  0.00    -0.082 HD
ENDBRANCH  19  29
ENDBRANCH  18  19
ENDBRANCH   3  18
TORSDOF 7
