REMARK  Name = ZINC29315453
REMARK  10 active torsions:
REMARK  status: ('A' for Active; 'I' for Inactive)
REMARK    1  A    between atoms: C_1  and  C_2
REMARK    2  A    between atoms: C_2  and  N_3
REMARK    3  A    between atoms: C_4  and  C_26
REMARK    4  A    between atoms: C_7  and  S_8
REMARK    5  A    between atoms: S_8  and  C_9
REMARK    6  A    between atoms: C_9  and  C_11
REMARK    7  A    between atoms: C_9  and  C_12
REMARK    8  A    between atoms: N_17  and  C_18
REMARK    9  A    between atoms: C_21  and  C_25
REMARK   10  A    between atoms: C_23  and  C_24
REMARK                            x       y       z     vdW  Elec       q    Type
REMARK                         _______ _______ _______ _____ _____    ______ ____
ROOT
ATOM      1  C   UNL     1      -0.396   3.345   0.567  0.00  0.00    +0.137 C 
ATOM      2  C   UNL     1      -0.285   3.860  -0.870  0.00  0.00    +0.029 C 
ENDROOT
BRANCH   1   3
ATOM      3  C   UNL     1      -0.173   1.855   0.585  0.00  0.00    +0.234 C 
ATOM      4  O   UNL     1      -1.121   1.100   0.548  0.00  0.00    -0.274 OA
ATOM      5  N   UNL     1       1.080   1.362   0.642  0.00  0.00    -0.239 N 
ATOM      6  C   UNL     1       1.279   0.029   0.659  0.00  0.00    +0.310 C 
ATOM      7  O   UNL     1       0.329  -0.728   0.626  0.00  0.00    -0.252 OA
ATOM      8  N   UNL     1       2.532  -0.465   0.711  0.00  0.00    -0.269 N 
ATOM      9  H   UNL     1       1.940   2.047   0.676  0.00  0.00    +0.159 HD
ATOM     10  H   UNL     1       3.394   0.215   0.642  0.00  0.00    +0.156 HD
BRANCH   8  11
ATOM     11  C   UNL     1       2.737  -1.842   0.852  0.00  0.00    +0.038 A 
ATOM     12  C   UNL     1       1.715  -2.651   1.330  0.00  0.00    +0.024 A 
ATOM     13  C   UNL     1       1.920  -4.010   1.468  0.00  0.00    +0.005 A 
ATOM     14  C   UNL     1       3.141  -4.564   1.131  0.00  0.00    -0.050 A 
ATOM     15  C   UNL     1       4.160  -3.761   0.654  0.00  0.00    +0.008 A 
ATOM     16  C   UNL     1       3.960  -2.402   0.508  0.00  0.00    -0.029 A 
ATOM     17  C   UNL     1       5.069  -1.528  -0.017  0.00  0.00    +0.045 C 
ATOM     18  C   UNL     1       3.361  -6.048   1.282  0.00  0.00    +0.044 C 
ENDBRANCH   8  11
ENDBRANCH   1   3
BRANCH   1  19
ATOM     19  S   UNL     1      -2.045   3.716   1.214  0.00  0.00    -0.074 S 
BRANCH  19  24
ATOM     20  N   UNL     1      -2.975   6.321   1.625  0.00  0.00    -0.302 N 
ATOM     21  C   UNL     1      -2.475   7.592   1.455  0.00  0.00    +0.165 A 
ATOM     22  N   UNL     1      -1.258   7.467   0.980  0.00  0.00    -0.128 NA
ATOM     23  N   UNL     1      -0.964   6.223   0.848  0.00  0.00    -0.122 NA
ATOM     24  C   UNL     1      -1.981   5.477   1.223  0.00  0.00    +0.193 A 
BRANCH  21  25
ATOM     25  C   UNL     1      -3.176   8.859   1.751  0.00  0.00    +0.022 A 
ATOM     26  C   UNL     1      -2.712  10.076   1.237  0.00  0.00    +0.031 A 
ATOM     27  C   UNL     1      -3.401  11.233   1.534  0.00  0.00    +0.111 A 
ATOM     28  N   UNL     1      -4.476  11.205   2.300  0.00  0.00    -0.263 NA
ATOM     29  C   UNL     1      -4.943  10.081   2.809  0.00  0.00    +0.111 A 
ATOM     30  C   UNL     1      -4.320   8.876   2.559  0.00  0.00    +0.031 A 
ENDBRANCH  21  25
BRANCH  20  32
ATOM     31  C   UNL     1      -4.229   5.753   3.646  0.00  0.00    +0.027 C 
ATOM     32  C   UNL     1      -4.299   5.952   2.131  0.00  0.00    +0.122 C 
ENDBRANCH  20  32
ENDBRANCH  19  24
ENDBRANCH   1  19
TORSDOF 6
