REMARK  Name = ZINC20323949
REMARK  10 active torsions:
REMARK  status: ('A' for Active; 'I' for Inactive)
REMARK    1  A    between atoms: C_1  and  C_2
REMARK    2  A    between atoms: C_2  and  C_3
REMARK    3  A    between atoms: C_3  and  N_20
REMARK    4  A    between atoms: N_10  and  C_13
REMARK    5  A    between atoms: N_20  and  C_21
REMARK    6  A    between atoms: C_21  and  C_23
REMARK    7  A    between atoms: C_21  and  C_34
REMARK    8  A    between atoms: C_23  and  C_24
REMARK    9  A    between atoms: C_34  and  O_36
REMARK   10  A    between atoms: O_36  and  C_37
REMARK                            x       y       z     vdW  Elec       q    Type
REMARK                         _______ _______ _______ _____ _____    ______ ____
ROOT
ATOM      1  C   UNL     1       0.753  -0.132   1.071  0.00  0.00    +0.022 C 
ATOM      2  C   UNL     1       0.077  -0.492   2.221  0.00  0.00    +0.116 C 
ATOM      3  C   UNL     1       0.790  -1.013   3.401  0.00  0.00    +0.258 C 
ATOM      4  O   UNL     1       2.000  -1.140   3.395  0.00  0.00    -0.270 OA
ATOM      5  N   UNL     1       0.064  -1.345   4.489  0.00  0.00    -0.235 N 
ATOM      6  C   UNL     1      -1.269  -1.210   4.510  0.00  0.00    +0.320 C 
ATOM      7  O   UNL     1      -1.864  -1.527   5.521  0.00  0.00    -0.251 OA
ATOM      8  N   UNL     1      -1.981  -0.743   3.475  0.00  0.00    -0.190 N 
ATOM      9  C   UNL     1      -1.388  -0.367   2.324  0.00  0.00    +0.265 C 
ATOM     10  O   UNL     1      -2.045   0.060   1.393  0.00  0.00    -0.269 OA
ATOM     11  H   UNL     1       0.518  -1.689   5.274  0.00  0.00    +0.159 HD
ENDROOT
BRANCH   8  12
ATOM     12  C   UNL     1      -3.374  -0.639   3.594  0.00  0.00    +0.046 A 
ATOM     13  C   UNL     1      -4.201  -1.383   2.763  0.00  0.00    +0.025 A 
ATOM     14  C   UNL     1      -5.573  -1.278   2.882  0.00  0.00    +0.022 A 
ATOM     15  C   UNL     1      -6.124  -0.432   3.828  0.00  0.00    +0.041 A 
ATOM     16  C   UNL     1      -5.302   0.311   4.657  0.00  0.00    +0.022 A 
ATOM     17  C   UNL     1      -3.929   0.205   4.546  0.00  0.00    +0.025 A 
ATOM     18 CL   UNL     1      -7.849  -0.302   3.975  0.00  0.00    -0.084 Cl
ENDBRANCH   8  12
BRANCH   1  20
ATOM     19  C   UNL     1      -0.556  -0.521  -0.999  0.00  0.00    +0.010 C 
ATOM     20  C   UNL     1       0.015   0.542  -0.058  0.00  0.00    +0.048 C 
ENDBRANCH   1  20
BRANCH   1  21
ATOM     21  N   UNL     1       2.073  -0.382   0.958  0.00  0.00    -0.334 N 
ATOM     22  H   UNL     1       2.530  -0.894   1.644  0.00  0.00    +0.147 HD
BRANCH  21  23
ATOM     23  C   UNL     1       2.817   0.117  -0.201  0.00  0.00    +0.184 C 
BRANCH  23  24
ATOM     24  C   UNL     1       3.256   1.536   0.058  0.00  0.00    +0.328 C 
ATOM     25  O   UNL     1       2.975   2.074   1.102  0.00  0.00    -0.249 OA
BRANCH  24  26
ATOM     26  O   UNL     1       3.958   2.201  -0.873  0.00  0.00    -0.467 OA
ATOM     27  C   UNL     1       4.340   3.542  -0.561  0.00  0.00    +0.280 C 
ENDBRANCH  24  26
ENDBRANCH  23  24
BRANCH  23  28
ATOM     28  C   UNL     1       4.047  -0.762  -0.435  0.00  0.00    +0.071 C 
BRANCH  28  29
ATOM     29  C   UNL     1       3.606  -2.153  -0.814  0.00  0.00    -0.020 A 
ATOM     30  C   UNL     1       3.452  -3.196   0.017  0.00  0.00    +0.087 A 
ATOM     31  N   UNL     1       3.039  -4.295  -0.685  0.00  0.00    -0.360 N 
ATOM     32  H   UNL     1       2.861  -5.168  -0.301  0.00  0.00    +0.165 HD
ATOM     33  C   UNL     1       2.913  -3.978  -2.019  0.00  0.00    +0.047 A 
ATOM     34  C   UNL     1       3.257  -2.620  -2.157  0.00  0.00    +0.003 A 
ATOM     35  C   UNL     1       3.214  -2.015  -3.415  0.00  0.00    +0.010 A 
ATOM     36  C   UNL     1       2.836  -2.745  -4.506  0.00  0.00    +0.001 A 
ATOM     37  C   UNL     1       2.492  -4.083  -4.375  0.00  0.00    +0.002 A 
ATOM     38  C   UNL     1       2.536  -4.703  -3.145  0.00  0.00    +0.026 A 
ENDBRANCH  28  29
ENDBRANCH  23  28
ENDBRANCH  21  23
ENDBRANCH   1  21
TORSDOF 8
