REMARK  Name = ZINC09140821
REMARK  6 active torsions:
REMARK  status: ('A' for Active; 'I' for Inactive)
REMARK    1  A    between atoms: C_1  and  C_2
REMARK    2  A    between atoms: C_4  and  N_16
REMARK    3  A    between atoms: C_7  and  N_8
REMARK    4  A    between atoms: N_8  and  C_9
REMARK    5  A    between atoms: C_9  and  N_11
REMARK    6  A    between atoms: C_12  and  C_14
REMARK                            x       y       z     vdW  Elec       q    Type
REMARK                         _______ _______ _______ _____ _____    ______ ____
ROOT
ATOM      1  C   UNL     1       3.655  -2.053   0.145  0.00  0.00    +0.046 C 
ATOM      2  C   UNL     1       2.333  -2.776   0.151  0.00  0.00    -0.027 A 
ATOM      3  C   UNL     1       2.300  -4.155   0.240  0.00  0.00    +0.039 A 
ATOM      4  C   UNL     1       1.088  -4.820   0.240  0.00  0.00    +0.145 A 
ATOM      5  C   UNL     1      -0.096  -4.107   0.157  0.00  0.00    +0.073 A 
ATOM      6  C   UNL     1      -0.069  -2.728   0.073  0.00  0.00    +0.045 A 
ATOM      7  C   UNL     1       1.147  -2.058   0.073  0.00  0.00    +0.037 A 
ATOM      8 CL   UNL     1      -1.616  -4.947   0.158  0.00  0.00    -0.081 Cl
ENDROOT
BRANCH   4   9
ATOM      9  N   UNL     1       1.056  -6.297   0.330  0.00  0.00    +0.058 N 
ATOM     10  O   UNL     1       2.097  -6.925   0.403  0.00  0.00    -0.126 OA
ATOM     11  O   UNL     1      -0.011  -6.884   0.330  0.00  0.00    -0.126 OA
ENDBRANCH   4   9
BRANCH   7  12
ATOM     12  N   UNL     1       1.178  -0.662  -0.013  0.00  0.00    -0.296 N 
ATOM     13  H   UNL     1       1.769  -0.154   0.565  0.00  0.00    +0.154 HD
BRANCH  12  14
ATOM     14  C   UNL     1       0.387  -0.023  -0.898  0.00  0.00    +0.141 C 
ATOM     15  S   UNL     1      -0.551  -0.923  -2.012  0.00  0.00    -0.018 S 
BRANCH  14  16
ATOM     16  N   UNL     1       0.335   1.323  -0.905  0.00  0.00    -0.268 N 
ATOM     17  C   UNL     1      -0.452   1.962  -1.794  0.00  0.00    +0.215 C 
ATOM     18  O   UNL     1      -1.112   1.326  -2.586  0.00  0.00    -0.276 OA
ATOM     19  C   UNL     1      -0.511   3.468  -1.802  0.00  0.00    +0.109 C 
ATOM     20  H   UNL     1       0.866   1.833  -0.273  0.00  0.00    +0.156 HD
ENDBRANCH  14  16
ENDBRANCH  12  14
ENDBRANCH   7  12
TORSDOF 4
