REMARK  Name = ZINC08800227
REMARK  7 active torsions:
REMARK  status: ('A' for Active; 'I' for Inactive)
REMARK    1  A    between atoms: C_1  and  N_2
REMARK    2  A    between atoms: C_10  and  C_12
REMARK    3  A    between atoms: C_12  and  C_14
REMARK    4  A    between atoms: C_12  and  N_57
REMARK    5  A    between atoms: C_14  and  N_15
REMARK    6  A    between atoms: N_15  and  S_16
REMARK    7  A    between atoms: S_16  and  C_19
REMARK                            x       y       z     vdW  Elec       q    Type
REMARK                         _______ _______ _______ _____ _____    ______ ____
ROOT
ATOM      1  C   UNL     1       2.788   4.713   3.644  0.00  0.00    -0.022 C 
ENDROOT
BRANCH   1  11
ATOM      2  C   UNL     1       6.663   2.142   7.924  0.00  0.00    +0.129 C 
ATOM      3  N   UNL     1       6.813   3.530   7.467  0.00  0.00    -0.333 N 
ATOM      4  C   UNL     1       8.186   3.794   7.032  0.00  0.00    +0.105 C 
ATOM      5  C   UNL     1       8.275   5.245   6.543  0.00  0.00    +0.024 C 
ATOM      6  C   UNL     1       7.459   5.358   5.253  0.00  0.00    +0.038 C 
ATOM      7  C   UNL     1       6.114   4.703   5.444  0.00  0.00    -0.026 A 
ATOM      8  C   UNL     1       5.861   3.842   6.497  0.00  0.00    +0.033 A 
ATOM      9  C   UNL     1       4.599   3.257   6.616  0.00  0.00    +0.023 A 
ATOM     10  C   UNL     1       3.611   3.537   5.697  0.00  0.00    +0.004 A 
ATOM     11  C   UNL     1       3.868   4.402   4.649  0.00  0.00    -0.059 A 
ATOM     12  C   UNL     1       5.117   4.977   4.522  0.00  0.00    +0.007 A 
ENDBRANCH   1  11
BRANCH   1  18
ATOM     13  C   UNL     1       1.885   5.823   5.597  0.00  0.00    -0.078 C 
ATOM     14  C   UNL     1       0.597   6.355   6.229  0.00  0.00    -0.019 C 
ATOM     15  C   UNL     1      -0.348   5.184   6.512  0.00  0.00    -0.004 C 
ATOM     16  C   UNL     1      -0.627   4.437   5.205  0.00  0.00    -0.019 C 
ATOM     17  C   UNL     1       0.696   3.961   4.603  0.00  0.00    -0.078 C 
ATOM     18  N   UNL     1       1.551   5.136   4.331  0.00  0.00    +0.385 N 
ATOM     19  H   UNL     1       1.039   5.787   3.724  0.00  0.00    -0.081 HD
ENDBRANCH   1  18
BRANCH   1  20
ATOM     20  C   UNL     1       2.503   3.468   2.802  0.00  0.00    +0.095 C 
BRANCH  20  21
ATOM     21  N   UNL     1       1.404   3.748   1.874  0.00  0.00    -0.191 NA
ATOM     22  H   UNL     1       0.847   4.531   2.004  0.00  0.00    +0.148 HD
BRANCH  21  23
ATOM     23  S   UNL     1       1.113   2.726   0.603  0.00  0.00    +0.065 S 
ATOM     24  O   UNL     1       2.362   2.509  -0.038  0.00  0.00    -0.153 OA
ATOM     25  O   UNL     1      -0.016   3.246  -0.085  0.00  0.00    -0.153 OA
BRANCH  23  26
ATOM     26  C   UNL     1       0.620   1.177   1.282  0.00  0.00    +0.144 A 
ATOM     27  C   UNL     1      -0.625   0.738   1.591  0.00  0.00    +0.038 A 
ATOM     28  C   UNL     1      -0.776  -0.530   2.121  0.00  0.00    +0.030 A 
ATOM     29  C   UNL     1       0.325  -1.297   2.315  0.00  0.00    +0.080 A 
ATOM     30  S   UNL     1       1.630  -0.222   1.742  0.00  0.00    -0.057 S 
ATOM     31 CL   UNL     1       0.438  -2.907   2.954  0.00  0.00    -0.076 Cl
ENDBRANCH  23  26
ENDBRANCH  21  23
ENDBRANCH  20  21
ENDBRANCH   1  20
TORSDOF 6
