REMARK  Name = ZINC35559787
REMARK  5 active torsions:
REMARK  status: ('A' for Active; 'I' for Inactive)
REMARK    1  A    between atoms: C_1  and  C_2
REMARK    2  A    between atoms: C_2  and  N_3
REMARK    3  A    between atoms: N_3  and  C_4
REMARK    4  A    between atoms: C_4  and  C_6
REMARK    5  A    between atoms: C_4  and  C_13
REMARK                            x       y       z     vdW  Elec       q    Type
REMARK                         _______ _______ _______ _____ _____    ______ ____
ROOT
ATOM      1  C   UNL     1      -1.356  -1.981   0.004  0.00  0.00    -0.008 C 
ENDROOT
BRANCH   1   2
ATOM      2  C   UNL     1      -2.766  -2.502  -0.109  0.00  0.00    -0.057 A 
ATOM      3  C   UNL     1      -3.789  -1.882   0.583  0.00  0.00    +0.003 A 
ATOM      4  C   UNL     1      -5.082  -2.359   0.479  0.00  0.00    +0.015 A 
ATOM      5  C   UNL     1      -5.352  -3.457  -0.317  0.00  0.00    +0.018 A 
ATOM      6  C   UNL     1      -4.328  -4.078  -1.009  0.00  0.00    +0.015 A 
ATOM      7  C   UNL     1      -3.036  -3.597  -0.909  0.00  0.00    +0.003 A 
ATOM      8 BR   UNL     1      -7.121  -4.111  -0.459  0.00  0.00    -0.050 Br
ENDBRANCH   1   2
BRANCH   1   9
ATOM      9  C   UNL     1      -0.737  -2.482   1.284  0.00  0.00    -0.030 A 
ATOM     10  C   UNL     1      -0.765  -1.707   2.429  0.00  0.00    +0.031 A 
ATOM     11  C   UNL     1      -0.199  -2.188   3.563  0.00  0.00    +0.080 A 
ATOM     12  S   UNL     1       0.401  -3.783   3.028  0.00  0.00    -0.065 S 
ATOM     13  C   UNL     1      -0.147  -3.703   1.331  0.00  0.00    +0.081 A 
ATOM     14 CL   UNL     1       0.029  -4.881   0.069  0.00  0.00    -0.076 Cl
ATOM     15 CL   UNL     1      -0.086  -1.447   5.128  0.00  0.00    -0.076 Cl
ENDBRANCH   1   9
BRANCH   1  16
ATOM     16  N   UNL     1      -1.376  -0.512   0.012  0.00  0.00    +0.386 N 
ATOM     17  H   UNL     1      -1.848  -0.187   0.843  0.00  0.00    -0.085 HD
ATOM     18  H   UNL     1      -1.864  -0.178  -0.805  0.00  0.00    -0.085 HD
BRANCH  16  20
ATOM     19  C   UNL     1      -0.019   1.526   0.010  0.00  0.00    -0.017 C 
ATOM     20  C   UNL     1       0.002  -0.004   0.002  0.00  0.00    -0.085 C 
ENDBRANCH  16  20
ENDBRANCH   1  16
TORSDOF 4
