REMARK  Name = ZINC12489075
REMARK  15 active torsions:
REMARK  status: ('A' for Active; 'I' for Inactive)
REMARK    1  A    between atoms: C_1  and  C_2
REMARK    2  A    between atoms: C_2  and  C_3
REMARK    3  A    between atoms: C_3  and  C_4
REMARK    4  A    between atoms: C_3  and  C_5
REMARK    5  A    between atoms: C_3  and  N_6
REMARK    6  A    between atoms: C_7  and  C_9
REMARK    7  A    between atoms: C_9  and  C_11
REMARK    8  A    between atoms: C_9  and  N_18
REMARK    9  A    between atoms: C_14  and  C_17
REMARK   10  A    between atoms: N_18  and  C_19
REMARK   11  A    between atoms: C_22  and  C_26
REMARK   12  A    between atoms: C_24  and  C_25
REMARK   13  A    between atoms: C_27  and  C_29
REMARK   14  A    between atoms: C_29  and  N_30
REMARK   15  A    between atoms: C_31  and  C_33
REMARK                            x       y       z     vdW  Elec       q    Type
REMARK                         _______ _______ _______ _____ _____    ______ ____
ROOT
ATOM      1  N   UNL     1       3.220  -0.178  -0.145  0.00  0.00    -0.254 N 
ATOM      2  C   UNL     1       2.543  -0.752   0.869  0.00  0.00    +0.238 C 
ATOM      3  O   UNL     1       3.095  -0.950   1.931  0.00  0.00    -0.274 OA
ENDROOT
BRANCH   1   4
ATOM      4  C   UNL     1       2.584   0.050  -1.371  0.00  0.00    +0.040 A 
ATOM      5  C   UNL     1       1.960   1.266  -1.615  0.00  0.00    +0.024 A 
ATOM      6  C   UNL     1       1.337   1.489  -2.827  0.00  0.00    +0.005 A 
ATOM      7  C   UNL     1       1.327   0.499  -3.794  0.00  0.00    -0.050 A 
ATOM      8  C   UNL     1       1.943  -0.714  -3.551  0.00  0.00    +0.008 A 
ATOM      9  C   UNL     1       2.572  -0.942  -2.343  0.00  0.00    -0.029 A 
ATOM     10  C   UNL     1       3.244  -2.265  -2.079  0.00  0.00    +0.045 C 
ATOM     11  C   UNL     1       0.641   0.744  -5.113  0.00  0.00    +0.044 C 
ENDBRANCH   1   4
BRANCH   1  12
ATOM     12  C   UNL     1       4.622   0.207   0.035  0.00  0.00    +0.197 C 
BRANCH  12  13
ATOM     13  C   UNL     1       4.724   1.231   1.137  0.00  0.00    -0.018 A 
ATOM     14  C   UNL     1       3.955   2.378   1.087  0.00  0.00    +0.006 A 
ATOM     15  C   UNL     1       4.044   3.315   2.100  0.00  0.00    +0.004 A 
ATOM     16  C   UNL     1       4.910   3.108   3.158  0.00  0.00    -0.050 A 
ATOM     17  C   UNL     1       5.684   1.964   3.204  0.00  0.00    +0.004 A 
ATOM     18  C   UNL     1       5.590   1.025   2.194  0.00  0.00    +0.006 A 
ATOM     19  C   UNL     1       5.012   4.132   4.259  0.00  0.00    +0.044 C 
ENDBRANCH  12  13
BRANCH  12  21
ATOM     20  N   UNL     1       6.379   0.459  -1.688  0.00  0.00    -0.308 N 
ATOM     21  C   UNL     1       5.150   0.796  -1.247  0.00  0.00    +0.239 C 
ATOM     22  O   UNL     1       4.470   1.573  -1.883  0.00  0.00    -0.273 OA
ATOM     23  H   UNL     1       6.923  -0.163  -1.180  0.00  0.00    +0.149 HD
BRANCH  20  24
ATOM     24  C   UNL     1       6.892   1.031  -2.935  0.00  0.00    +0.029 C 
ATOM     25  C   UNL     1       5.966   0.648  -4.091  0.00  0.00    +0.031 C 
ATOM     26  C   UNL     1       6.950   2.555  -2.811  0.00  0.00    +0.031 C 
BRANCH  24  28
ATOM     27  C   UNL     1       8.833   1.085  -4.507  0.00  0.00    +0.006 C 
ATOM     28  C   UNL     1       8.297   0.488  -3.205  0.00  0.00    +0.022 C 
ENDBRANCH  24  28
ENDBRANCH  20  24
ENDBRANCH  12  21
ENDBRANCH   1  12
BRANCH   2  29
ATOM     29  C   UNL     1       1.101  -1.149   0.683  0.00  0.00    +0.201 C 
BRANCH  29  30
ATOM     30  N   UNL     1       0.596  -1.747   1.922  0.00  0.00    -0.302 N 
ATOM     31  C   UNL     1      -0.677  -2.184   1.988  0.00  0.00    +0.251 C 
ATOM     32  O   UNL     1      -1.408  -2.078   1.021  0.00  0.00    -0.270 OA
ATOM     33  H   UNL     1       1.179  -1.831   2.692  0.00  0.00    +0.150 HD
BRANCH  31  34
ATOM     34  C   UNL     1      -1.181  -2.788   3.225  0.00  0.00    +0.074 A 
ATOM     35  C   UNL     1      -2.443  -3.290   3.501  0.00  0.00    +0.021 A 
ATOM     36  C   UNL     1      -2.649  -3.808   4.755  0.00  0.00    +0.008 A 
ATOM     37  C   UNL     1      -1.629  -3.796   5.654  0.00  0.00    +0.046 A 
ATOM     38  S   UNL     1      -0.332  -3.061   4.770  0.00  0.00    -0.092 S 
ENDBRANCH  31  34
ENDBRANCH  29  30
ENDBRANCH   2  29
TORSDOF 9
