REMARK  Name = ZINC14162549
REMARK  10 active torsions:
REMARK  status: ('A' for Active; 'I' for Inactive)
REMARK    1  A    between atoms: C_1  and  C_2
REMARK    2  A    between atoms: C_5  and  C_8
REMARK    3  A    between atoms: C_17  and  N_20
REMARK    4  A    between atoms: N_23  and  C_24
REMARK    5  A    between atoms: C_26  and  C_34
REMARK    6  A    between atoms: C_28  and  C_30
REMARK    7  A    between atoms: C_30  and  O_32
REMARK    8  A    between atoms: O_32  and  C_33
REMARK    9  A    between atoms: C_34  and  O_36
REMARK   10  A    between atoms: O_36  and  C_37
REMARK                            x       y       z     vdW  Elec       q    Type
REMARK                         _______ _______ _______ _____ _____    ______ ____
ROOT
ATOM      1  N   UNL     1       4.723   1.119  -0.239  0.00  0.00    -0.294 N 
ATOM      2  C   UNL     1       3.556   1.783  -0.124  0.00  0.00    +0.304 C 
ATOM      3  O   UNL     1       3.546   2.998  -0.117  0.00  0.00    -0.252 OA
ATOM      4  N   UNL     1       2.400   1.099  -0.015  0.00  0.00    -0.269 N 
ATOM      5  H   UNL     1       4.732   0.019  -0.245  0.00  0.00    +0.151 HD
ATOM      6  H   UNL     1       2.415   0.002   0.068  0.00  0.00    +0.156 HD
ENDROOT
BRANCH   1  14
ATOM      7  C   UNL     1       8.458   1.655  -0.599  0.00  0.00    -0.002 C 
ATOM      8  C   UNL     1       8.652   2.530   0.641  0.00  0.00    +0.015 C 
ATOM      9  C   UNL     1       7.487   3.514   0.758  0.00  0.00    -0.008 C 
ATOM     10  C   UNL     1       7.440   4.399  -0.489  0.00  0.00    +0.007 C 
ATOM     11  C   UNL     1       7.246   3.524  -1.729  0.00  0.00    -0.008 C 
ATOM     12  C   UNL     1       8.411   2.540  -1.846  0.00  0.00    +0.015 C 
ATOM     13  C   UNL     1       5.933   2.748  -1.605  0.00  0.00    +0.029 C 
ATOM     14  C   UNL     1       5.980   1.862  -0.358  0.00  0.00    +0.037 C 
ATOM     15  C   UNL     1       6.174   2.737   0.882  0.00  0.00    +0.029 C 
ATOM     16  C   UNL     1       7.146   0.878  -0.475  0.00  0.00    +0.037 C 
BRANCH   7  21
ATOM     17  C   UNL     1      12.861  -2.063  -1.039  0.00  0.00    +0.044 C 
ATOM     18  C   UNL     1      11.713  -1.093  -0.925  0.00  0.00    -0.050 A 
ATOM     19  C   UNL     1      11.953   0.268  -0.943  0.00  0.00    +0.003 A 
ATOM     20  C   UNL     1      10.900   1.157  -0.837  0.00  0.00    +0.004 A 
ATOM     21  C   UNL     1       9.606   0.685  -0.714  0.00  0.00    -0.041 A 
ATOM     22  C   UNL     1       9.367  -0.676  -0.691  0.00  0.00    +0.004 A 
ATOM     23  C   UNL     1      10.419  -1.565  -0.801  0.00  0.00    +0.003 A 
ENDBRANCH   7  21
ENDBRANCH   1  14
BRANCH   4  24
ATOM     24  C   UNL     1       1.179   1.784  -0.006  0.00  0.00    +0.036 A 
ATOM     25  C   UNL     1       1.032   2.944  -0.752  0.00  0.00    +0.038 A 
ATOM     26  C   UNL     1      -0.182   3.634  -0.742  0.00  0.00    +0.062 A 
ATOM     27  C   UNL     1      -1.250   3.149   0.010  0.00  0.00    +0.030 A 
ATOM     28  C   UNL     1      -1.099   1.983   0.758  0.00  0.00    +0.062 A 
ATOM     29  C   UNL     1       0.120   1.301   0.747  0.00  0.00    +0.038 A 
BRANCH  28  30
ATOM     30  C   UNL     1      -2.227   1.468   1.562  0.00  0.00    +0.339 C 
ATOM     31  O   UNL     1      -2.095   0.452   2.214  0.00  0.00    -0.245 OA
BRANCH  30  32
ATOM     32  O   UNL     1      -3.403   2.126   1.572  0.00  0.00    -0.464 OA
ATOM     33  C   UNL     1      -4.466   1.563   2.384  0.00  0.00    +0.280 C 
ENDBRANCH  30  32
ENDBRANCH  28  30
BRANCH  26  34
ATOM     34  C   UNL     1      -0.336   4.873  -1.532  0.00  0.00    +0.339 C 
ATOM     35  O   UNL     1       0.594   5.292  -2.191  0.00  0.00    -0.245 OA
BRANCH  34  36
ATOM     36  O   UNL     1      -1.508   5.537  -1.522  0.00  0.00    -0.464 OA
ATOM     37  C   UNL     1      -1.587   6.747  -2.322  0.00  0.00    +0.280 C 
ENDBRANCH  34  36
ENDBRANCH  26  34
ENDBRANCH   4  24
TORSDOF 7
