REMARK  Name = ZINC56786700
REMARK  6 active torsions:
REMARK  status: ('A' for Active; 'I' for Inactive)
REMARK    1  A    between atoms: C_3  and  C_6
REMARK    2  A    between atoms: C_6  and  C_8
REMARK    3  A    between atoms: C_6  and  N_24
REMARK    4  A    between atoms: C_8  and  N_9
REMARK    5  A    between atoms: N_12  and  C_13
REMARK    6  A    between atoms: C_16  and  C_19
REMARK                            x       y       z     vdW  Elec       q    Type
REMARK                         _______ _______ _______ _____ _____    ______ ____
ROOT
ATOM      1  N   UNL     1       5.798   2.324  -1.218  0.00  0.00    -0.300 N 
ATOM      2  C   UNL     1       6.556   2.474  -2.323  0.00  0.00    +0.304 C 
ATOM      3  O   UNL     1       6.106   2.177  -3.413  0.00  0.00    -0.253 OA
ATOM      4  N   UNL     1       7.811   2.954  -2.220  0.00  0.00    -0.269 N 
ATOM      5  H   UNL     1       6.157   2.561  -0.349  0.00  0.00    +0.150 HD
ATOM      6  H   UNL     1       8.145   3.257  -1.361  0.00  0.00    +0.156 HD
ENDROOT
BRANCH   4   7
ATOM      7  C   UNL     1       8.632   3.015  -3.351  0.00  0.00    +0.035 A 
ATOM      8  C   UNL     1       8.083   3.315  -4.591  0.00  0.00    +0.024 A 
ATOM      9  C   UNL     1       8.890   3.376  -5.708  0.00  0.00    +0.012 A 
ATOM     10  C   UNL     1      10.258   3.136  -5.591  0.00  0.00    +0.003 A 
ATOM     11  C   UNL     1      10.807   2.836  -4.346  0.00  0.00    +0.012 A 
ATOM     12  C   UNL     1       9.996   2.782  -3.231  0.00  0.00    +0.024 A 
BRANCH  10  13
ATOM     13  C   UNL     1      11.129   3.200  -6.791  0.00  0.00    +0.102 A 
ATOM     14  C   UNL     1      12.477   2.969  -6.739  0.00  0.00    +0.097 A 
ATOM     15  S   UNL     1      12.928   3.172  -8.344  0.00  0.00    +0.029 S 
ATOM     16  N   UNL     1      11.485   3.521  -8.987  0.00  0.00    -0.110 NA
ATOM     17  N   UNL     1      10.663   3.479  -7.998  0.00  0.00    -0.141 NA
ENDBRANCH  10  13
ENDBRANCH   4   7
BRANCH   1  18
ATOM     18  C   UNL     1       4.434   1.802  -1.331  0.00  0.00    +0.095 C 
BRANCH  18  19
ATOM     19  C   UNL     1       3.755   1.850   0.039  0.00  0.00    -0.013 C 
BRANCH  19  20
ATOM     20  N   UNL     1       2.428   1.225  -0.050  0.00  0.00    +0.386 N 
ATOM     21  C   UNL     1       2.564  -0.232  -0.304  0.00  0.00    -0.078 C 
ATOM     22  C   UNL     1       1.210  -0.805   0.183  0.00  0.00    -0.020 C 
ATOM     23  C   UNL     1       0.898   0.056   1.429  0.00  0.00    -0.020 C 
ATOM     24  C   UNL     1       1.721   1.344   1.244  0.00  0.00    -0.078 C 
ATOM     25  H   UNL     1       1.888   1.659  -0.783  0.00  0.00    -0.081 HD
ENDBRANCH  19  20
BRANCH  19  28
ATOM     26  C   UNL     1       4.043   5.316   1.593  0.00  0.00    +0.008 A 
ATOM     27  C   UNL     1       4.370   3.997   1.340  0.00  0.00    +0.009 A 
ATOM     28  C   UNL     1       3.607   3.284   0.476  0.00  0.00    -0.022 A 
ATOM     29  S   UNL     1       2.380   4.487  -0.010  0.00  0.00    -0.103 S 
ATOM     30  C   UNL     1       2.967   5.857   0.971  0.00  0.00    +0.045 A 
ENDBRANCH  19  28
ENDBRANCH  18  19
ENDBRANCH   1  18
TORSDOF 6
