REMARK  Name = ZINC01625977
REMARK  10 active torsions:
REMARK  status: ('A' for Active; 'I' for Inactive)
REMARK    1  A    between atoms: C_1  and  C_2
REMARK    2  A    between atoms: C_2  and  N_49
REMARK    3  A    between atoms: C_3  and  C_4
REMARK    4  A    between atoms: C_3  and  N_49
REMARK    5  A    between atoms: C_5  and  C_6
REMARK    6  A    between atoms: C_5  and  N_49
REMARK    7  A    between atoms: C_6  and  C_7
REMARK    8  A    between atoms: C_12  and  C_13
REMARK    9  A    between atoms: C_16  and  O_19
REMARK   10  A    between atoms: O_19  and  C_20
REMARK                            x       y       z     vdW  Elec       q    Type
REMARK                         _______ _______ _______ _____ _____    ______ ____
ROOT
ATOM      1  C   UNL     1      -0.644   5.757   0.441  0.00  0.00    +0.058 C 
ATOM      2  C   UNL     1      -2.058   5.636   1.048  0.00  0.00    +0.016 C 
ATOM      3  C   UNL     1      -2.565   4.297   0.470  0.00  0.00    +0.039 C 
ATOM      4  C   UNL     1      -1.320   3.484   0.199  0.00  0.00    -0.004 C 
ATOM      5  C   UNL     1      -1.288   2.143   0.003  0.00  0.00    +0.015 C 
ATOM      6  C   UNL     1      -0.199   4.335   0.187  0.00  0.00    +0.162 C 
ATOM      7  O   UNL     1       0.948   3.981  -0.001  0.00  0.00    -0.292 OA
ENDROOT
BRANCH   5   8
ATOM      8  C   UNL     1      -0.049   1.496  -0.445  0.00  0.00    -0.024 A 
ATOM      9  C   UNL     1       0.700   2.057  -1.488  0.00  0.00    +0.011 A 
ATOM     10  C   UNL     1       1.857   1.443  -1.908  0.00  0.00    +0.046 A 
ATOM     11  C   UNL     1       2.285   0.268  -1.299  0.00  0.00    +0.120 A 
ATOM     12  C   UNL     1       1.546  -0.293  -0.264  0.00  0.00    +0.046 A 
ATOM     13  C   UNL     1       0.386   0.312   0.164  0.00  0.00    +0.011 A 
BRANCH  11  14
ATOM     14  O   UNL     1       3.428  -0.333  -1.717  0.00  0.00    -0.495 OA
ATOM     15  C   UNL     1       4.138   0.297  -2.785  0.00  0.00    +0.277 C 
ENDBRANCH  11  14
ENDBRANCH   5   8
BRANCH   1  16
ATOM     16  C   UNL     1       0.302   6.438   1.431  0.00  0.00    -0.007 C 
BRANCH  16  17
ATOM     17  C   UNL     1       1.663   6.661   0.767  0.00  0.00    -0.078 C 
BRANCH  17  18
ATOM     18  N   UNL     1       2.571   7.300   1.742  0.00  0.00    +0.379 N 
ATOM     19  H   UNL     1       2.565   6.753   2.611  0.00  0.00    -0.082 HD
BRANCH  18  21
ATOM     20  C   UNL     1       4.511   5.910   1.210  0.00  0.00    -0.017 C 
ATOM     21  C   UNL     1       3.947   7.332   1.205  0.00  0.00    -0.082 C 
ENDBRANCH  18  21
BRANCH  18  22
ATOM     22  C   UNL     1       2.111   8.674   2.036  0.00  0.00    -0.082 C 
ATOM     23  C   UNL     1       2.809   9.164   3.306  0.00  0.00    -0.017 C 
ENDBRANCH  18  22
ENDBRANCH  17  18
ENDBRANCH  16  17
ENDBRANCH   1  16
TORSDOF 7
