REMARK  Name = ZINC08636189
REMARK  11 active torsions:
REMARK  status: ('A' for Active; 'I' for Inactive)
REMARK    1  A    between atoms: C_1  and  N_2
REMARK    2  A    between atoms: C_3  and  C_12
REMARK    3  A    between atoms: C_5  and  C_7
REMARK    4  A    between atoms: C_20  and  C_22
REMARK    5  A    between atoms: C_22  and  N_23
REMARK    6  A    between atoms: N_23  and  C_24
REMARK    7  A    between atoms: C_24  and  N_26
REMARK    8  A    between atoms: N_26  and  C_27
REMARK    9  A    between atoms: C_31  and  C_33
REMARK   10  A    between atoms: C_33  and  O_35
REMARK   11  A    between atoms: O_35  and  C_36
REMARK                            x       y       z     vdW  Elec       q    Type
REMARK                         _______ _______ _______ _____ _____    ______ ____
ROOT
ATOM      1  C   UNL     1      -5.657  -9.312  -1.933  0.00  0.00    +0.024 C 
ATOM      2  C   UNL     1      -4.370  -8.486  -2.018  0.00  0.00    -0.068 C 
ATOM      3  C   UNL     1      -3.234  -9.996  -0.504  0.00  0.00    -0.078 C 
ATOM      4  C   UNL     1      -4.488 -10.866  -0.375  0.00  0.00    -0.015 C 
ATOM      5  C   UNL     1      -5.726  -9.979  -0.553  0.00  0.00    -0.007 C 
ATOM      6  C   UNL     1      -5.703  -8.884   0.521  0.00  0.00    -0.010 C 
ATOM      7  C   UNL     1      -4.416  -8.069   0.367  0.00  0.00    -0.051 C 
ATOM      8  N   UNL     1      -3.607  -8.588  -0.757  0.00  0.00    +0.383 N 
ATOM      9  H   UNL     1      -2.751  -8.026  -0.839  0.00  0.00    -0.081 HD
ENDROOT
BRANCH   1  12
ATOM     10  C   UNL     1      -8.449  -9.638  -0.626  0.00  0.00    +0.172 C 
ATOM     11  N   UNL     1      -8.060  -8.564  -1.543  0.00  0.00    -0.271 N 
ATOM     12  C   UNL     1      -6.849  -8.411  -2.119  0.00  0.00    +0.041 A 
ATOM     13  C   UNL     1      -6.896  -7.299  -2.889  0.00  0.00    +0.048 A 
ATOM     14  C   UNL     1      -8.182  -6.758  -2.787  0.00  0.00    +0.066 A 
ATOM     15  N   UNL     1      -8.880  -7.514  -1.978  0.00  0.00    -0.176 NA
BRANCH  14  16
ATOM     16  C   UNL     1      -8.678  -5.517  -3.483  0.00  0.00    +0.040 C 
ATOM     17  C   UNL     1      -7.997  -5.377  -4.860  0.00  0.00    +0.010 C 
ATOM     18  C   UNL     1      -7.772  -3.852  -5.018  0.00  0.00    +0.001 C 
ATOM     19  C   UNL     1      -7.389  -3.412  -3.584  0.00  0.00    +0.001 C 
ATOM     20  C   UNL     1      -8.292  -4.268  -2.672  0.00  0.00    +0.010 C 
ENDBRANCH  14  16
ENDBRANCH   1  12
BRANCH   7  21
ATOM     21  C   UNL     1      -4.768  -6.606   0.092  0.00  0.00    +0.088 C 
BRANCH  21  22
ATOM     22  N   UNL     1      -3.541  -5.849  -0.172  0.00  0.00    -0.328 N 
ATOM     23  H   UNL     1      -2.681  -6.298  -0.154  0.00  0.00    +0.148 HD
BRANCH  22  24
ATOM     24  C   UNL     1      -3.607  -4.531  -0.442  0.00  0.00    +0.134 C 
ATOM     25  S   UNL     1      -5.125  -3.739  -0.476  0.00  0.00    -0.019 S 
BRANCH  24  26
ATOM     26  N   UNL     1      -2.479  -3.835  -0.686  0.00  0.00    -0.297 N 
ATOM     27  H   UNL     1      -1.628  -4.297  -0.748  0.00  0.00    +0.154 HD
BRANCH  26  28
ATOM     28  C   UNL     1      -2.534  -2.447  -0.849  0.00  0.00    +0.033 A 
ATOM     29  C   UNL     1      -1.771  -1.831  -1.834  0.00  0.00    +0.023 A 
ATOM     30  C   UNL     1      -1.822  -0.460  -1.999  0.00  0.00    +0.003 A 
ATOM     31  C   UNL     1      -2.635   0.307  -1.190  0.00  0.00    +0.015 A 
ATOM     32  C   UNL     1      -3.401  -0.300  -0.193  0.00  0.00    +0.061 A 
ATOM     33  C   UNL     1      -3.350  -1.685  -0.027  0.00  0.00    +0.038 A 
BRANCH  32  34
ATOM     34  C   UNL     1      -4.268   0.520   0.678  0.00  0.00    +0.339 C 
ATOM     35  O   UNL     1      -4.938  -0.012   1.541  0.00  0.00    -0.245 OA
BRANCH  34  36
ATOM     36  O   UNL     1      -4.316   1.856   0.516  0.00  0.00    -0.464 OA
ATOM     37  C   UNL     1      -5.189   2.598   1.408  0.00  0.00    +0.280 C 
ENDBRANCH  34  36
ENDBRANCH  32  34
ENDBRANCH  26  28
ENDBRANCH  24  26
ENDBRANCH  22  24
ENDBRANCH  21  22
ENDBRANCH   7  21
TORSDOF 9
