REMARK  Name = ZINC58134330
REMARK  8 active torsions:
REMARK  status: ('A' for Active; 'I' for Inactive)
REMARK    1  A    between atoms: C_1  and  C_2
REMARK    2  A    between atoms: C_2  and  C_3
REMARK    3  A    between atoms: C_7  and  C_9
REMARK    4  A    between atoms: C_9  and  C_11
REMARK    5  A    between atoms: C_9  and  N_12
REMARK    6  A    between atoms: C_16  and  N_18
REMARK    7  A    between atoms: N_18  and  S_19
REMARK    8  A    between atoms: S_19  and  C_22
REMARK                            x       y       z     vdW  Elec       q    Type
REMARK                         _______ _______ _______ _____ _____    ______ ____
ROOT
ATOM      1  C   UNL     1       0.731  -0.503   1.223  0.00  0.00    -0.047 A 
ATOM      2  C   UNL     1       2.096  -0.710   1.176  0.00  0.00    +0.012 A 
ATOM      3  C   UNL     1       2.772  -1.169   2.294  0.00  0.00    +0.013 A 
ATOM      4  C   UNL     1       2.076  -1.426   3.463  0.00  0.00    +0.127 A 
ATOM      5  C   UNL     1       0.702  -1.214   3.507  0.00  0.00    -0.020 A 
ATOM      6  C   UNL     1       0.035  -0.750   2.391  0.00  0.00    +0.009 A 
ATOM      7  O   UNL     1       2.697  -1.888   4.579  0.00  0.00    -0.491 OA
ATOM      8  C   UNL     1       4.117  -1.755   4.657  0.00  0.00    +0.231 C 
ATOM      9  C   UNL     1       4.725  -2.282   3.351  0.00  0.00    +0.066 C 
ATOM     10  C   UNL     1       4.263  -1.378   2.206  0.00  0.00    +0.113 C 
ENDROOT
BRANCH   1  12
ATOM     11  C   UNL     1      -0.019   1.526   0.010  0.00  0.00    +0.009 C 
ATOM     12  C   UNL     1       0.002  -0.004   0.002  0.00  0.00    +0.032 C 
ENDBRANCH   1  12
BRANCH   5  13
ATOM     13  C   UNL     1      -0.060  -1.487   4.778  0.00  0.00    -0.044 C 
ATOM     14  C   UNL     1       0.011  -0.260   5.689  0.00  0.00    -0.009 C 
BRANCH  13  15
ATOM     15  N   UNL     1      -1.463  -1.777   4.455  0.00  0.00    +0.383 N 
ATOM     16  H   UNL     1      -1.510  -2.587   3.855  0.00  0.00    -0.089 HD
ATOM     17  H   UNL     1      -1.973  -1.960   5.307  0.00  0.00    -0.089 HD
ATOM     18  H   UNL     1      -1.871  -0.984   3.983  0.00  0.00    -0.089 HD
ENDBRANCH  13  15
ENDBRANCH   5  13
BRANCH  10  19
ATOM     19  N   UNL     1       4.592  -2.007   0.924  0.00  0.00    -0.187 NA
ATOM     20  H   UNL     1       3.985  -2.654   0.531  0.00  0.00    +0.148 HD
BRANCH  19  21
ATOM     21  S   UNL     1       6.000  -1.613   0.147  0.00  0.00    +0.027 S 
ATOM     22  O   UNL     1       5.979  -2.379  -1.050  0.00  0.00    -0.158 OA
ATOM     23  O   UNL     1       6.003  -0.193   0.099  0.00  0.00    -0.158 OA
ATOM     24  C   UNL     1       7.319  -2.205   1.243  0.00  0.00    +0.214 C 
ENDBRANCH  19  21
ENDBRANCH  10  19
TORSDOF 5
