REMARK  Name = ZINC44122794
REMARK  8 active torsions:
REMARK  status: ('A' for Active; 'I' for Inactive)
REMARK    1  A    between atoms: C_1  and  C_2
REMARK    2  A    between atoms: C_2  and  C_3
REMARK    3  A    between atoms: C_7  and  C_25
REMARK    4  A    between atoms: C_8  and  N_9
REMARK    5  A    between atoms: C_13  and  S_15
REMARK    6  A    between atoms: S_15  and  C_16
REMARK    7  A    between atoms: C_16  and  C_17
REMARK    8  A    between atoms: N_21  and  C_22
REMARK                            x       y       z     vdW  Elec       q    Type
REMARK                         _______ _______ _______ _____ _____    ______ ____
ROOT
ATOM      1  N   UNL     1      -1.700  -0.184  -2.403  0.00  0.00    -0.292 N 
ATOM      2  C   UNL     1      -2.320  -0.610  -3.573  0.00  0.00    +0.187 A 
ATOM      3  N   UNL     1      -3.413  -1.332  -3.724  0.00  0.00    -0.125 NA
ATOM      4  N   UNL     1      -3.858  -1.644  -4.988  0.00  0.00    -0.133 NA
ATOM      5  C   UNL     1      -3.189  -1.219  -6.043  0.00  0.00    +0.160 A 
ATOM      6  S   UNL     1      -1.852  -0.319  -5.272  0.00  0.00    -0.024 S 
ATOM      7  H   UNL     1      -0.850   0.281  -2.446  0.00  0.00    +0.154 HD
ENDROOT
BRANCH   1  13
ATOM      8  C   UNL     1      -3.035   0.575  -0.541  0.00  0.00    -0.026 A 
ATOM      9  C   UNL     1      -3.633   0.331   0.680  0.00  0.00    +0.005 A 
ATOM     10  C   UNL     1      -3.499  -0.907   1.282  0.00  0.00    +0.001 A 
ATOM     11  C   UNL     1      -2.766  -1.904   0.665  0.00  0.00    +0.005 A 
ATOM     12  C   UNL     1      -2.165  -1.667  -0.555  0.00  0.00    -0.029 A 
ATOM     13  C   UNL     1      -2.302  -0.426  -1.166  0.00  0.00    +0.039 A 
ATOM     14  C   UNL     1      -1.365  -2.754  -1.227  0.00  0.00    +0.045 C 
BRANCH   8  16
ATOM     15  C   UNL     1      -4.350   1.888  -2.182  0.00  0.00    +0.009 C 
ATOM     16  C   UNL     1      -3.181   1.924  -1.196  0.00  0.00    +0.033 C 
ENDBRANCH   8  16
ENDBRANCH   1  13
BRANCH   5  17
ATOM     17  S   UNL     1      -3.526  -1.468  -7.755  0.00  0.00    -0.089 S 
BRANCH  17  18
ATOM     18  C   UNL     1      -5.042  -2.465  -7.762  0.00  0.00    +0.154 C 
BRANCH  18  19
ATOM     19  C   UNL     1      -5.446  -2.753  -9.185  0.00  0.00    +0.162 A 
ATOM     20  N   UNL     1      -6.229  -2.022  -9.940  0.00  0.00    -0.113 NA
ATOM     21  N   UNL     1      -6.332  -2.601 -11.086  0.00  0.00    -0.023 NA
ATOM     22  N   UNL     1      -5.633  -3.683 -11.083  0.00  0.00    -0.044 NA
ATOM     23  N   UNL     1      -5.068  -3.809  -9.930  0.00  0.00    -0.225 N 
BRANCH  23  24
ATOM     24  C   UNL     1      -4.183  -4.898  -9.509  0.00  0.00    +0.111 C 
ATOM     25  C   UNL     1      -3.725  -5.890 -10.581  0.00  0.00    +0.029 C 
ATOM     26  C   UNL     1      -4.752  -6.319  -9.531  0.00  0.00    +0.029 C 
ENDBRANCH  23  24
ENDBRANCH  18  19
ENDBRANCH  17  18
ENDBRANCH   5  17
TORSDOF 6
