REMARK  Name = ZINC12382339
REMARK  9 active torsions:
REMARK  status: ('A' for Active; 'I' for Inactive)
REMARK    1  A    between atoms: C_1  and  C_2
REMARK    2  A    between atoms: C_2  and  C_3
REMARK    3  A    between atoms: C_2  and  C_4
REMARK    4  A    between atoms: C_4  and  O_5
REMARK    5  A    between atoms: O_5  and  C_6
REMARK    6  A    between atoms: C_6  and  C_7
REMARK    7  A    between atoms: C_12  and  C_16
REMARK    8  A    between atoms: C_12  and  C_17
REMARK    9  A    between atoms: N_22  and  C_23
REMARK                            x       y       z     vdW  Elec       q    Type
REMARK                         _______ _______ _______ _____ _____    ______ ____
ROOT
ATOM      1  C   UNL     1       2.497 -10.202  -1.759  0.00  0.00    +0.204 C 
ATOM      2  C   UNL     1       3.260  -9.239  -0.819  0.00  0.00    +0.076 C 
ATOM      3  C   UNL     1       3.143  -7.905  -1.571  0.00  0.00    +0.171 C 
ATOM      4  C   UNL     1       2.783  -6.765  -0.608  0.00  0.00    +0.084 C 
ATOM      5  C   UNL     1       4.129  -6.008  -0.494  0.00  0.00    +0.154 C 
ATOM      6  O   UNL     1       4.821  -6.303  -1.745  0.00  0.00    -0.451 OA
ATOM      7  C   UNL     1       4.454  -7.514  -2.197  0.00  0.00    +0.325 C 
ATOM      8  O   UNL     1       5.079  -8.185  -2.983  0.00  0.00    -0.250 OA
ATOM      9  C   UNL     1       4.934  -6.527   0.699  0.00  0.00    +0.063 C 
ATOM     10  C   UNL     1       2.068  -8.110  -2.603  0.00  0.00    +0.325 C 
ATOM     11  O   UNL     1       1.719  -7.290  -3.419  0.00  0.00    -0.250 OA
ATOM     12  O   UNL     1       1.556  -9.346  -2.475  0.00  0.00    -0.458 OA
ENDROOT
BRANCH   5  13
ATOM     13  C   UNL     1       3.890  -4.526  -0.362  0.00  0.00    +0.094 A 
ATOM     14  C   UNL     1       4.927  -3.655  -0.349  0.00  0.00    +0.075 A 
ATOM     15  S   UNL     1       4.057  -2.104  -0.184  0.00  0.00    -0.060 S 
ATOM     16  C   UNL     1       2.446  -2.751  -0.140  0.00  0.00    +0.163 A 
ATOM     17  N   UNL     1       2.665  -4.047  -0.256  0.00  0.00    -0.226 NA
ATOM     18  N   UNL     1       1.240  -2.079  -0.021  0.00  0.00    -0.293 N 
ATOM     19  H   UNL     1       0.414  -2.577   0.086  0.00  0.00    +0.154 HD
BRANCH  18  20
ATOM     20  C   UNL     1       1.212  -0.681  -0.054  0.00  0.00    +0.051 A 
ATOM     21  C   UNL     1       2.221   0.020  -0.701  0.00  0.00    +0.025 A 
ATOM     22  C   UNL     1       2.192   1.400  -0.732  0.00  0.00    +0.002 A 
ATOM     23  C   UNL     1       1.158   2.085  -0.119  0.00  0.00    +0.002 A 
ATOM     24  C   UNL     1       0.151   1.392   0.527  0.00  0.00    +0.022 A 
ATOM     25  C   UNL     1       0.175   0.010   0.561  0.00  0.00    +0.062 A 
ATOM     26 CL   UNL     1      -1.089  -0.861   1.373  0.00  0.00    -0.082 Cl
ENDBRANCH  18  20
ENDBRANCH   5  13
BRANCH   1  27
ATOM     27  C   UNL     1       1.745 -11.260  -0.949  0.00  0.00    +0.204 C 
BRANCH  27  28
ATOM     28  O   UNL     1       1.080 -12.158  -1.839  0.00  0.00    -0.376 OA
BRANCH  28  29
ATOM     29  C   UNL     1       0.344 -13.191  -1.180  0.00  0.00    +0.163 C 
BRANCH  29  31
ATOM     30  C   UNL     1       0.752 -14.812  -3.036  0.00  0.00    +0.009 C 
ATOM     31  C   UNL     1      -0.323 -14.088  -2.225  0.00  0.00    +0.009 C 
ATOM     32  C   UNL     1      -1.211 -15.117  -1.521  0.00  0.00    +0.009 C 
ENDBRANCH  29  31
ENDBRANCH  28  29
ENDBRANCH  27  28
ENDBRANCH   1  27
TORSDOF 6
