REMARK  Name = ZINC66679629
REMARK  6 active torsions:
REMARK  status: ('A' for Active; 'I' for Inactive)
REMARK    1  A    between atoms: C_1  and  C_2
REMARK    2  A    between atoms: C_2  and  C_3
REMARK    3  A    between atoms: C_3  and  C_5
REMARK    4  A    between atoms: C_3  and  N_11
REMARK    5  A    between atoms: N_14  and  C_15
REMARK    6  A    between atoms: C_19  and  C_21
REMARK                            x       y       z     vdW  Elec       q    Type
REMARK                         _______ _______ _______ _____ _____    ______ ____
ROOT
ATOM      1  N   UNL     1      -0.120  -0.067   2.348  0.00  0.00    -0.296 N 
ATOM      2  C   UNL     1       0.038   1.149   2.910  0.00  0.00    +0.304 C 
ATOM      3  O   UNL     1       0.690   2.002   2.339  0.00  0.00    -0.253 OA
ATOM      4  N   UNL     1      -0.526   1.418   4.104  0.00  0.00    -0.269 N 
ATOM      5  H   UNL     1      -0.639  -0.747   2.804  0.00  0.00    +0.151 HD
ATOM      6  H   UNL     1      -1.109   0.765   4.523  0.00  0.00    +0.156 HD
ENDROOT
BRANCH   4   7
ATOM      7  C   UNL     1      -0.271   2.639   4.739  0.00  0.00    +0.035 A 
ATOM      8  C   UNL     1      -1.256   3.236   5.517  0.00  0.00    +0.023 A 
ATOM      9  C   UNL     1      -1.008   4.441   6.145  0.00  0.00    +0.002 A 
ATOM     10  C   UNL     1       0.218   5.060   6.003  0.00  0.00    +0.010 A 
ATOM     11  C   UNL     1       1.212   4.468   5.225  0.00  0.00    +0.004 A 
ATOM     12  C   UNL     1       0.965   3.250   4.596  0.00  0.00    +0.033 A 
BRANCH  11  13
ATOM     13  C   UNL     1       2.530   5.131   5.071  0.00  0.00    +0.091 A 
ATOM     14  C   UNL     1       2.779   6.362   5.720  0.00  0.00    +0.035 A 
ATOM     15  C   UNL     1       4.002   6.942   5.556  0.00  0.00    +0.073 A 
ATOM     16  C   UNL     1       4.947   6.275   4.745  0.00  0.00    +0.265 A 
ATOM     17  O   UNL     1       6.055   6.756   4.570  0.00  0.00    -0.266 OA
ATOM     18  N   UNL     1       4.617   5.105   4.168  0.00  0.00    -0.243 N 
ATOM     19  H   UNL     1       5.270   4.651   3.612  0.00  0.00    +0.192 HD
ATOM     20  N   UNL     1       3.462   4.570   4.337  0.00  0.00    -0.171 NA
ENDBRANCH  11  13
ENDBRANCH   4   7
BRANCH   1  21
ATOM     21  C   UNL     1       0.494  -0.359   1.050  0.00  0.00    +0.077 C 
BRANCH  21  22
ATOM     22  C   UNL     1       0.718  -1.867   0.921  0.00  0.00    +0.009 C 
ATOM     23  C   UNL     1      -0.624  -2.593   1.026  0.00  0.00    +0.005 C 
ATOM     24  C   UNL     1      -0.400  -4.101   0.896  0.00  0.00    +0.000 C 
ATOM     25  C   UNL     1       0.526  -4.577   2.017  0.00  0.00    +0.000 C 
ATOM     26  C   UNL     1       1.869  -3.851   1.912  0.00  0.00    +0.000 C 
ATOM     27  C   UNL     1       1.644  -2.343   2.042  0.00  0.00    +0.005 C 
ENDBRANCH  21  22
BRANCH  21  29
ATOM     28  C   UNL     1      -0.557   1.641  -0.016  0.00  0.00    +0.006 C 
ATOM     29  C   UNL     1      -0.432   0.117  -0.070  0.00  0.00    +0.019 C 
ENDBRANCH  21  29
ENDBRANCH   1  21
TORSDOF 5
