REMARK  Name = ZINC36156787
REMARK  16 active torsions:
REMARK  status: ('A' for Active; 'I' for Inactive)
REMARK    1  A    between atoms: C_1  and  C_2
REMARK    2  A    between atoms: C_2  and  C_3
REMARK    3  A    between atoms: C_3  and  C_4
REMARK    4  A    between atoms: C_4  and  O_6
REMARK    5  A    between atoms: O_6  and  C_7
REMARK    6  A    between atoms: C_7  and  C_8
REMARK    7  A    between atoms: C_8  and  C_10
REMARK    8  A    between atoms: C_8  and  O_33
REMARK    9  A    between atoms: C_10  and  N_11
REMARK   10  A    between atoms: N_11  and  C_12
REMARK   11  A    between atoms: N_11  and  C_17
REMARK   12  A    between atoms: C_12  and  C_13
REMARK   13  A    between atoms: C_13  and  C_14
REMARK   14  A    between atoms: C_14  and  O_15
REMARK   15  A    between atoms: O_15  and  C_16
REMARK   16  A    between atoms: C_17  and  C_18
REMARK                            x       y       z     vdW  Elec       q    Type
REMARK                         _______ _______ _______ _____ _____    ______ ____
ROOT
ATOM      1  N   UNL     1      -5.288  -6.955   0.084  0.00  0.00    +0.386 N 
ATOM      2  H   UNL     1      -5.464  -6.208   0.739  0.00  0.00    -0.081 HD
ENDROOT
BRANCH   1   3
ATOM      3  C   UNL     1      -3.962  -6.773  -0.521  0.00  0.00    -0.043 C 
BRANCH   3   4
ATOM      4  C   UNL     1      -3.868  -5.374  -1.133  0.00  0.00    +0.136 C 
BRANCH   4   5
ATOM      5  O   UNL     1      -4.750  -5.285  -2.254  0.00  0.00    -0.390 OA
ATOM      6  H   UNL     1      -4.556  -5.918  -2.959  0.00  0.00    +0.210 HD
ENDBRANCH   4   5
BRANCH   4   7
ATOM      7  C   UNL     1      -2.432  -5.113  -1.592  0.00  0.00    +0.261 C 
BRANCH   7   8
ATOM      8  O   UNL     1      -2.318  -3.766  -2.057  0.00  0.00    -0.462 OA
BRANCH   8   9
ATOM      9  C   UNL     1      -1.113  -3.374  -2.498  0.00  0.00    +0.307 C 
ATOM     10  O   UNL     1      -0.185  -4.148  -2.490  0.00  0.00    -0.251 OA
BRANCH   9  11
ATOM     11  C   UNL     1      -0.916  -1.968  -3.003  0.00  0.00    +0.120 C 
BRANCH  11  13
ATOM     12  C   UNL     1       0.738  -0.355  -3.955  0.00  0.00    +0.004 C 
ATOM     13  C   UNL     1       0.538  -1.782  -3.442  0.00  0.00    +0.008 C 
ENDBRANCH  11  13
ENDBRANCH   9  11
ENDBRANCH   8   9
ENDBRANCH   7   8
ENDBRANCH   4   7
ENDBRANCH   3   4
ENDBRANCH   1   3
BRANCH   1  14
ATOM     14  C   UNL     1      -6.313  -6.936  -0.968  0.00  0.00    -0.076 C 
BRANCH  14  15
ATOM     15  C   UNL     1      -5.959  -7.963  -2.045  0.00  0.00    +0.009 C 
BRANCH  15  16
ATOM     16  C   UNL     1      -6.968  -7.870  -3.191  0.00  0.00    +0.157 C 
BRANCH  16  17
ATOM     17  O   UNL     1      -6.637  -8.829  -4.196  0.00  0.00    -0.383 OA
ATOM     18  C   UNL     1      -7.522  -8.825  -5.318  0.00  0.00    +0.193 C 
ENDBRANCH  16  17
ENDBRANCH  15  16
ENDBRANCH  14  15
ENDBRANCH   1  14
BRANCH   1  19
ATOM     19  C   UNL     1      -5.332  -8.244   0.787  0.00  0.00    -0.003 C 
BRANCH  19  20
ATOM     20  C   UNL     1      -6.631  -8.360   1.543  0.00  0.00    +0.094 A 
ATOM     21  N   UNL     1      -6.907  -9.501   2.224  0.00  0.00    -0.312 N 
ATOM     22  H   UNL     1      -6.264 -10.227   2.215  0.00  0.00    +0.170 HD
ATOM     23  C   UNL     1      -8.055  -9.646   2.913  0.00  0.00    +0.260 A 
ATOM     24  O   UNL     1      -8.287 -10.677   3.520  0.00  0.00    -0.267 OA
ATOM     25  C   UNL     1      -8.999  -8.567   2.920  0.00  0.00    +0.075 A 
ATOM     26  C   UNL     1     -10.297  -8.501   3.590  0.00  0.00    -0.023 A 
ATOM     27  C   UNL     1     -11.005  -7.361   3.442  0.00  0.00    -0.004 A 
ATOM     28  S   UNL     1      -9.996  -6.325   2.416  0.00  0.00    -0.073 S 
ATOM     29  C   UNL     1      -8.626  -7.429   2.188  0.00  0.00    +0.116 A 
ATOM     30  N   UNL     1      -7.469  -7.357   1.535  0.00  0.00    -0.229 NA
ATOM     31  C   UNL     1     -12.350  -7.046   4.020  0.00  0.00    +0.043 C 
ATOM     32  C   UNL     1     -12.985  -8.356   4.509  0.00  0.00    +0.005 C 
ATOM     33  C   UNL     1     -11.951  -9.124   5.336  0.00  0.00    +0.005 C 
ATOM     34  C   UNL     1     -10.846  -9.656   4.423  0.00  0.00    +0.037 C 
ENDBRANCH  19  20
ENDBRANCH   1  19
TORSDOF 14
