REMARK  Name = ZINC64671014
REMARK  9 active torsions:
REMARK  status: ('A' for Active; 'I' for Inactive)
REMARK    1  A    between atoms: C_1  and  O_2
REMARK    2  A    between atoms: O_2  and  C_3
REMARK    3  A    between atoms: C_5  and  C_12
REMARK    4  A    between atoms: C_12  and  C_13
REMARK    5  A    between atoms: C_16  and  C_19
REMARK    6  A    between atoms: C_19  and  N_20
REMARK    7  A    between atoms: N_20  and  C_21
REMARK    8  A    between atoms: C_21  and  C_22
REMARK    9  A    between atoms: C_22  and  C_23
REMARK                            x       y       z     vdW  Elec       q    Type
REMARK                         _______ _______ _______ _____ _____    ______ ____
ROOT
ATOM      1  C   UNL     1      -5.313   0.540  -1.400  0.00  0.00    +0.214 C 
ATOM      2  C   UNL     1      -6.644   1.329  -1.431  0.00  0.00    +0.103 C 
ATOM      3  C   UNL     1      -6.436   2.276  -2.597  0.00  0.00    +0.075 C 
ATOM      4  N   UNL     1      -5.192   2.297  -2.885  0.00  0.00    -0.092 NA
ATOM      5  O   UNL     1      -4.414   1.462  -2.050  0.00  0.00    -0.390 OA
ENDROOT
BRANCH   1   6
ATOM      6  C   UNL     1      -4.871   0.264   0.039  0.00  0.00    +0.083 C 
BRANCH   6   9
ATOM      7  C   UNL     1      -1.201  -0.638   0.010  0.00  0.00    +0.166 A 
ATOM      8  C   UNL     1      -2.375   0.101   0.019  0.00  0.00    +0.053 A 
ATOM      9  C   UNL     1      -3.598  -0.542   0.028  0.00  0.00    -0.037 A 
ATOM     10  C   UNL     1      -3.657  -1.923   0.026  0.00  0.00    +0.053 A 
ATOM     11  C   UNL     1      -2.489  -2.670   0.017  0.00  0.00    +0.170 A 
ATOM     12  C   UNL     1      -1.256  -2.026   0.003  0.00  0.00    +0.208 A 
ATOM     13  O   UNL     1      -0.270  -2.971  -0.011  0.00  0.00    -0.449 OA
ATOM     14  C   UNL     1      -0.905  -4.196   0.401  0.00  0.00    +0.467 C 
ATOM     15  O   UNL     1      -2.278  -4.019   0.013  0.00  0.00    -0.452 OA
BRANCH   7  17
ATOM     16  C   UNL     1      -0.017   1.425   0.010  0.00  0.00    +0.277 C 
ATOM     17  O   UNL     1       0.002  -0.004   0.002  0.00  0.00    -0.491 OA
ENDBRANCH   7  17
ENDBRANCH   6   9
ENDBRANCH   1   6
BRANCH   3  18
ATOM     18  C   UNL     1      -7.515   3.061  -3.298  0.00  0.00    +0.135 C 
BRANCH  18  19
ATOM     19  N   UNL     1      -6.918   3.862  -4.374  0.00  0.00    -0.310 NA
ATOM     20  H   UNL     1      -6.190   4.463  -4.016  0.00  0.00    +0.122 HD
BRANCH  19  21
ATOM     21  C   UNL     1      -7.942   4.642  -5.081  0.00  0.00    +0.085 C 
BRANCH  21  22
ATOM     22  C   UNL     1      -7.283   5.462  -6.192  0.00  0.00    +0.048 C 
BRANCH  22  23
ATOM     23  C   UNL     1      -8.335   6.262  -6.917  0.00  0.00    -0.040 C 
ATOM     24  C   UNL     1      -8.687   7.546  -6.681  0.00  0.00    +0.002 A 
ATOM     25  C   UNL     1      -8.215   8.544  -5.713  0.00  0.00    +0.048 A 
ATOM     26  C   UNL     1      -8.773   9.777  -5.717  0.00  0.00    +0.124 A 
ATOM     27  C   UNL     1      -9.791  10.123  -6.620  0.00  0.00    +0.040 A 
ATOM     28  C   UNL     1     -10.276   9.259  -7.537  0.00  0.00    +0.029 A 
ATOM     29  C   UNL     1      -9.761   7.936  -7.622  0.00  0.00    +0.043 A 
ATOM     30  N   UNL     1     -10.060   6.933  -8.410  0.00  0.00    -0.380 N 
ATOM     31  C   UNL     1      -9.205   5.793  -8.062  0.00  0.00    +0.144 C 
ATOM     32  F   UNL     1      -8.341  10.698  -4.828  0.00  0.00    -0.205 F 
ATOM     33  H   UNL     1     -10.732   6.943  -9.110  0.00  0.00    +0.160 HD
ENDBRANCH  22  23
ENDBRANCH  21  22
ENDBRANCH  19  21
ENDBRANCH  18  19
ENDBRANCH   3  18
TORSDOF 8
