REMARK  Name = ZINC03536290
REMARK  7 active torsions:
REMARK  status: ('A' for Active; 'I' for Inactive)
REMARK    1  A    between atoms: C_11  and  C_16
REMARK    2  A    between atoms: C_16  and  S_17
REMARK    3  A    between atoms: S_17  and  C_18
REMARK    4  A    between atoms: C_21  and  C_24
REMARK    5  A    between atoms: N_22  and  N_23
REMARK    6  A    between atoms: C_27  and  O_30
REMARK    7  A    between atoms: O_30  and  C_31
REMARK                            x       y       z     vdW  Elec       q    Type
REMARK                         _______ _______ _______ _____ _____    ______ ____
ROOT
ATOM      1  C   UNL     1       1.588   6.023  -0.932  0.00  0.00    +0.209 A 
ATOM      2  N   UNL     1       1.591   5.968  -2.245  0.00  0.00    -0.121 NA
ATOM      3  N   UNL     1       2.516   6.724  -2.717  0.00  0.00    -0.127 NA
ATOM      4  C   UNL     1       3.160   7.310  -1.734  0.00  0.00    +0.182 A 
ATOM      5  N   UNL     1       2.582   6.883  -0.561  0.00  0.00    -0.224 N 
ENDROOT
BRANCH   4   6
ATOM      6  C   UNL     1       4.290   8.255  -1.865  0.00  0.00    +0.021 A 
ATOM      7  C   UNL     1       5.075   8.564  -0.753  0.00  0.00    +0.015 A 
ATOM      8  C   UNL     1       6.130   9.442  -0.880  0.00  0.00    +0.046 A 
ATOM      9  C   UNL     1       6.406  10.027  -2.109  0.00  0.00    +0.127 A 
ATOM     10  C   UNL     1       5.623   9.726  -3.216  0.00  0.00    +0.046 A 
ATOM     11  C   UNL     1       4.570   8.845  -3.099  0.00  0.00    +0.015 A 
BRANCH   9  12
ATOM     12  O   UNL     1       7.443  10.896  -2.228  0.00  0.00    -0.434 OA
BRANCH  12  13
ATOM     13  C   UNL     1       8.207  11.161  -1.050  0.00  0.00    +0.541 C 
ATOM     14  F   UNL     1       7.373  11.704  -0.066  0.00  0.00    -0.166 F 
ATOM     15  F   UNL     1       8.768   9.969  -0.580  0.00  0.00    -0.166 F 
ENDBRANCH  12  13
ENDBRANCH   9  12
ENDBRANCH   4   6
BRANCH   5  16
ATOM     16  N   UNL     1       2.932   7.242   0.710  0.00  0.00    -0.295 N 
ATOM     17  H   UNL     1       3.758   7.950   0.874  0.00  0.00    +0.163 HD
ATOM     18  H   UNL     1       2.387   6.824   1.569  0.00  0.00    +0.163 HD
ENDBRANCH   5  16
BRANCH   1  19
ATOM     19  S   UNL     1       0.499   5.156   0.149  0.00  0.00    -0.080 S 
BRANCH  19  20
ATOM     20  C   UNL     1      -0.501   4.261  -1.065  0.00  0.00    +0.113 C 
BRANCH  20  31
ATOM     21  C   UNL     1       2.369   0.008  -0.329  0.00  0.00    +0.001 A 
ATOM     22  C   UNL     1       2.375   1.388  -0.164  0.00  0.00    +0.001 A 
ATOM     23  C   UNL     1       1.210   2.082   0.002  0.00  0.00    +0.009 A 
ATOM     24  C   UNL     1      -0.017   1.417   0.010  0.00  0.00    -0.007 A 
ATOM     25  C   UNL     1       0.002  -0.004   0.002  0.00  0.00    -0.017 A 
ATOM     26  C   UNL     1       1.199  -0.687  -0.264  0.00  0.00    +0.008 A 
ATOM     27  C   UNL     1      -1.171  -0.718   0.314  0.00  0.00    +0.012 A 
ATOM     28  C   UNL     1      -2.336  -0.066   0.545  0.00  0.00    +0.047 A 
ATOM     29  C   UNL     1      -2.438   1.320   0.401  0.00  0.00    +0.140 A 
ATOM     30  C   UNL     1      -1.315   2.087   0.040  0.00  0.00    +0.029 A 
ATOM     31  C   UNL     1      -1.532   3.426  -0.349  0.00  0.00    -0.019 A 
ATOM     32  C   UNL     1      -2.743   4.003  -0.091  0.00  0.00    +0.097 A 
ATOM     33  C   UNL     1      -3.776   3.242   0.485  0.00  0.00    +0.338 A 
ATOM     34  O   UNL     1      -4.812   3.780   0.827  0.00  0.00    -0.245 OA
ATOM     35  O   UNL     1      -3.621   1.920   0.657  0.00  0.00    -0.422 OA
ENDBRANCH  20  31
ENDBRANCH  19  20
ENDBRANCH   1  19
TORSDOF 7
