REMARK  Name = ZINC05257281
REMARK  3 active torsions:
REMARK  status: ('A' for Active; 'I' for Inactive)
REMARK    1  A    between atoms: C_1  and  C_2
REMARK    2  A    between atoms: C_5  and  C_8
REMARK    3  A    between atoms: C_9  and  C_15
REMARK                            x       y       z     vdW  Elec       q    Type
REMARK                         _______ _______ _______ _____ _____    ______ ____
ROOT
ATOM      1  C   UNL     1      -1.268  -0.765   0.011  0.00  0.00    +0.106 C 
ATOM      2  C   UNL     1      -2.493  -2.814   0.012  0.00  0.00    +0.219 C 
ATOM      3  N   UNL     1      -3.743  -2.037   0.028  0.00  0.00    -0.303 N 
ATOM      4  C   UNL     1      -3.654  -0.690   0.035  0.00  0.00    +0.137 C 
ATOM      5  S   UNL     1      -5.085   0.250   0.054  0.00  0.00    -0.018 S 
ATOM      6  N   UNL     1      -2.460  -0.077   0.026  0.00  0.00    -0.283 N 
ATOM      7  H   UNL     1      -4.606  -2.480   0.034  0.00  0.00    +0.150 HD
ATOM      8  H   UNL     1      -2.436   0.892   0.031  0.00  0.00    +0.155 HD
ATOM      9  N   UNL     1      -1.171  -2.094  -0.003  0.00  0.00    -0.351 N 
ATOM     10  H   UNL     1      -0.270  -2.585  -0.023  0.00  0.00    +0.163 HD
ENDROOT
BRANCH   1  15
ATOM     11  C   UNL     1       3.671   2.193  -0.022  0.00  0.00    +0.044 C 
ATOM     12  C   UNL     1       2.378   1.419  -0.013  0.00  0.00    -0.050 A 
ATOM     13  C   UNL     1       1.170   2.094   0.002  0.00  0.00    +0.004 A 
ATOM     14  C   UNL     1      -0.017   1.391   0.010  0.00  0.00    +0.011 A 
ATOM     15  C   UNL     1       0.002  -0.004   0.002  0.00  0.00    +0.013 A 
ATOM     16  C   UNL     1       1.222  -0.679  -0.013  0.00  0.00    +0.011 A 
ATOM     17  C   UNL     1       2.403   0.035  -0.021  0.00  0.00    +0.004 A 
ENDBRANCH   1  15
BRANCH   2  18
ATOM     18  C   UNL     1      -2.491  -3.724   1.242  0.00  0.00    +0.227 C 
ATOM     19 CL   UNL     1      -3.915  -4.828   1.175  0.00  0.00    -0.079 Cl
ATOM     20 CL   UNL     1      -0.975  -4.699   1.265  0.00  0.00    -0.079 Cl
ATOM     21 CL   UNL     1      -2.581  -2.717   2.735  0.00  0.00    -0.079 Cl
ENDBRANCH   2  18
TORSDOF 2
