REMARK  Name = ZINC27607800
REMARK  8 active torsions:
REMARK  status: ('A' for Active; 'I' for Inactive)
REMARK    1  A    between atoms: C_3  and  C_6
REMARK    2  A    between atoms: C_6  and  C_8
REMARK    3  A    between atoms: C_6  and  N_26
REMARK    4  A    between atoms: C_8  and  N_9
REMARK    5  A    between atoms: C_10  and  C_12
REMARK    6  A    between atoms: C_12  and  C_13
REMARK    7  A    between atoms: C_13  and  C_14
REMARK    8  A    between atoms: C_17  and  C_19
REMARK                            x       y       z     vdW  Elec       q    Type
REMARK                         _______ _______ _______ _____ _____    ______ ____
ROOT
ATOM      1  N   UNL     1       0.593  -0.367   0.590  0.00  0.00    -0.317 N 
ATOM      2  C   UNL     1      -0.231  -1.357   0.987  0.00  0.00    +0.213 C 
ATOM      3  O   UNL     1      -1.414  -1.137   1.139  0.00  0.00    -0.276 OA
ATOM      4  H   UNL     1       1.666  -0.566   0.452  0.00  0.00    +0.149 HD
ENDROOT
BRANCH   1   5
ATOM      5  C   UNL     1       0.060   0.975   0.343  0.00  0.00    +0.094 C 
BRANCH   5   6
ATOM      6  C   UNL     1       1.157   1.857  -0.256  0.00  0.00    -0.013 C 
BRANCH   6   7
ATOM      7  N   UNL     1       1.585   1.299  -1.546  0.00  0.00    +0.386 N 
ATOM      8  C   UNL     1       2.487   2.239  -2.260  0.00  0.00    -0.078 C 
ATOM      9  C   UNL     1       3.228   1.323  -3.267  0.00  0.00    -0.020 C 
ATOM     10  C   UNL     1       3.434   0.019  -2.461  0.00  0.00    -0.020 C 
ATOM     11  C   UNL     1       2.366   0.058  -1.353  0.00  0.00    -0.078 C 
ATOM     12  H   UNL     1       0.661   1.110  -2.112  0.00  0.00    -0.081 HD
ENDBRANCH   6   7
BRANCH   6  15
ATOM     13  C   UNL     1       0.274   5.561  -0.138  0.00  0.00    +0.008 A 
ATOM     14  C   UNL     1       0.882   4.379   0.241  0.00  0.00    +0.009 A 
ATOM     15  C   UNL     1       0.623   3.251  -0.465  0.00  0.00    -0.022 A 
ATOM     16  S   UNL     1      -0.521   3.843  -1.701  0.00  0.00    -0.103 S 
ATOM     17  C   UNL     1      -0.571   5.556  -1.198  0.00  0.00    +0.045 A 
ENDBRANCH   6  15
ENDBRANCH   5   6
ENDBRANCH   1   5
BRANCH   2  18
ATOM     18  C   UNL     1       0.318  -2.737   1.242  0.00  0.00    +0.105 C 
BRANCH  18  19
ATOM     19  C   UNL     1      -0.818  -3.665   1.677  0.00  0.00    +0.105 C 
BRANCH  19  20
ATOM     20  C   UNL     1      -0.270  -5.045   1.932  0.00  0.00    +0.197 A 
ATOM     21  N   UNL     1       0.189  -5.478   3.073  0.00  0.00    -0.221 NA
ATOM     22  C   UNL     1       0.588  -6.750   2.925  0.00  0.00    +0.161 A 
ATOM     23  C   UNL     1       0.368  -7.101   1.632  0.00  0.00    +0.155 A 
ATOM     24  O   UNL     1      -0.170  -6.023   1.021  0.00  0.00    -0.440 OA
BRANCH  23  25
ATOM     25  C   UNL     1       0.661  -8.411   1.012  0.00  0.00    +0.019 A 
ATOM     26  C   UNL     1       0.373  -8.627  -0.336  0.00  0.00    +0.013 A 
ATOM     27  C   UNL     1       0.652  -9.850  -0.910  0.00  0.00    +0.021 A 
ATOM     28  C   UNL     1       1.208 -10.864  -0.149  0.00  0.00    +0.041 A 
ATOM     29  C   UNL     1       1.491 -10.657   1.190  0.00  0.00    +0.021 A 
ATOM     30  C   UNL     1       1.221  -9.437   1.774  0.00  0.00    +0.013 A 
ATOM     31 CL   UNL     1       1.551 -12.403  -0.877  0.00  0.00    -0.084 Cl
ENDBRANCH  23  25
ENDBRANCH  19  20
ENDBRANCH  18  19
ENDBRANCH   2  18
TORSDOF 8
