REMARK  Name = ZINC65266390
REMARK  6 active torsions:
REMARK  status: ('A' for Active; 'I' for Inactive)
REMARK    1  A    between atoms: C_1  and  C_2
REMARK    2  A    between atoms: C_5  and  C_7
REMARK    3  A    between atoms: N_23  and  C_24
REMARK    4  A    between atoms: C_24  and  C_25
REMARK    5  A    between atoms: C_24  and  C_26
REMARK    6  A    between atoms: C_24  and  C_27
REMARK                            x       y       z     vdW  Elec       q    Type
REMARK                         _______ _______ _______ _____ _____    ______ ____
ROOT
ATOM      1  C   UNL     1       1.694  -3.702   1.036  0.00  0.00    +0.253 C 
ATOM      2  O   UNL     1       0.819  -4.511   0.789  0.00  0.00    -0.269 OA
ATOM      3  N   UNL     1       2.989  -4.068   0.965  0.00  0.00    -0.295 N 
ATOM      4  C   UNL     1       4.142  -3.197   1.243  0.00  0.00    +0.111 C 
ATOM      5  C   UNL     1       5.417  -4.050   1.059  0.00  0.00    +0.054 C 
ATOM      6  C   UNL     1       4.892  -5.489   1.211  0.00  0.00    +0.103 C 
ATOM      7  C   UNL     1       3.485  -5.410   0.602  0.00  0.00    +0.141 C 
ATOM      8  C   UNL     1       5.758  -6.459   0.451  0.00  0.00    +0.099 C 
ATOM      9  N   UNL     1       6.982  -6.770   1.020  0.00  0.00    -0.286 N 
ATOM     10  C   UNL     1       7.045  -6.878   2.415  0.00  0.00    +0.145 A 
ATOM     11  C   UNL     1       5.986  -6.426   3.205  0.00  0.00    +0.069 A 
ATOM     12  C   UNL     1       6.075  -6.530   4.586  0.00  0.00    +0.028 A 
ATOM     13  C   UNL     1       7.222  -7.092   5.131  0.00  0.00    +0.022 A 
ATOM     14  C   UNL     1       8.227  -7.525   4.291  0.00  0.00    +0.113 A 
ATOM     15  N   UNL     1       8.118  -7.410   2.980  0.00  0.00    -0.238 NA
ATOM     16  N   UNL     1       4.835  -5.884   2.615  0.00  0.00    -0.328 N 
ATOM     17  N   UNL     1       5.379  -6.973  -0.673  0.00  0.00    -0.370 N 
ATOM     18  H   UNL     1       4.019  -5.773   3.128  0.00  0.00    +0.147 HD
ATOM     19  H   UNL     1       4.482  -6.808  -1.004  0.00  0.00    +0.161 HD
ATOM     20  H   UNL     1       7.769  -6.910   0.471  0.00  0.00    +0.155 HD
ENDROOT
BRANCH   1  25
ATOM     21  C   UNL     1       1.458   1.643   2.526  0.00  0.00    +0.051 C 
ATOM     22  C   UNL     1       1.244   0.207   2.119  0.00  0.00    -0.013 A 
ATOM     23  C   UNL     1       0.068  -0.433   1.912  0.00  0.00    +0.011 A 
ATOM     24  C   UNL     1       0.084  -1.757   1.542  0.00  0.00    +0.021 A 
ATOM     25  C   UNL     1       1.339  -2.330   1.412  0.00  0.00    +0.074 A 
ATOM     26  S   UNL     1       2.410  -0.963   1.813  0.00  0.00    -0.089 S 
ENDBRANCH   1  25
BRANCH  17  27
ATOM     27  C   UNL     1       6.304  -7.806  -1.446  0.00  0.00    +0.031 C 
ATOM     28  C   UNL     1       6.826  -8.942  -0.565  0.00  0.00    +0.033 C 
ATOM     29  C   UNL     1       5.573  -8.392  -2.655  0.00  0.00    +0.033 C 
ATOM     30  C   UNL     1       7.479  -6.952  -1.926  0.00  0.00    +0.033 C 
ENDBRANCH  17  27
TORSDOF 2
