REMARK  Name = ZINC39467097
REMARK  6 active torsions:
REMARK  status: ('A' for Active; 'I' for Inactive)
REMARK    1  A    between atoms: C_4  and  O_39
REMARK    2  A    between atoms: C_5  and  C_7
REMARK    3  A    between atoms: P_16  and  C_32
REMARK    4  A    between atoms: C_24  and  C_25
REMARK    5  A    between atoms: C_30  and  O_31
REMARK    6  A    between atoms: C_37  and  O_38
REMARK                            x       y       z     vdW  Elec       q    Type
REMARK                         _______ _______ _______ _____ _____    ______ ____
ROOT
ATOM      1  C   UNL     1       1.245  -2.165  -0.022  0.00  0.00    -0.011 C 
ATOM      2  C   UNL     1       1.551  -2.832  -1.146  0.00  0.00    -0.014 C 
ATOM      3  C   UNL     1       1.561  -4.337  -1.134  0.00  0.00    +0.016 C 
ATOM      4  C   UNL     1       1.368  -4.884  -2.543  0.00  0.00    -0.003 C 
ATOM      5  C   UNL     1      -0.020  -4.519  -3.082  0.00  0.00    -0.020 C 
ATOM      6  C   UNL     1      -0.134  -5.133  -4.484  0.00  0.00    +0.157 C 
ATOM      7  O   UNL     1      -1.404  -4.779  -5.062  0.00  0.00    -0.316 OA
ATOM      8  P   UNL     1      -2.739  -5.038  -4.168  0.00  0.00    +0.291 P 
ATOM      9  O   UNL     1      -3.138  -6.462  -4.242  0.00  0.00    -0.269 OA
ATOM     10  N   UNL     1      -2.309  -4.644  -2.625  0.00  0.00    -0.288 NA
ATOM     11  N   UNL     1      -1.060  -5.033  -2.188  0.00  0.00    +0.398 N 
ATOM     12  C   UNL     1      -0.907  -4.461  -0.841  0.00  0.00    -0.046 C 
ATOM     13  C   UNL     1       0.426  -4.852  -0.245  0.00  0.00    +0.005 C 
ATOM     14  C   UNL     1       0.538  -4.207   1.116  0.00  0.00    -0.016 C 
ATOM     15  C   UNL     1       0.939  -2.929   1.214  0.00  0.00    -0.011 C 
ATOM     16  H   UNL     1      -2.915  -4.156  -2.045  0.00  0.00    +0.111 HD
ATOM     17  H   UNL     1      -1.008  -6.040  -2.151  0.00  0.00    -0.055 HD
ENDROOT
BRANCH   1  22
ATOM     18  C   UNL     1      -0.017   1.376   0.010  0.00  0.00    +0.001 A 
ATOM     19  C   UNL     1       1.169   2.089   0.002  0.00  0.00    +0.004 A 
ATOM     20  C   UNL     1       2.382   1.426  -0.013  0.00  0.00    +0.046 A 
ATOM     21  C   UNL     1       2.416   0.041  -0.021  0.00  0.00    +0.125 A 
ATOM     22  C   UNL     1       1.219  -0.683  -0.013  0.00  0.00    +0.024 A 
ATOM     23  C   UNL     1       0.002  -0.004   0.002  0.00  0.00    +0.012 A 
BRANCH  21  24
ATOM     24  O   UNL     1       3.607  -0.612  -0.036  0.00  0.00    -0.506 OA
ATOM     25  H   UNL     1       3.961  -0.805   0.843  0.00  0.00    +0.292 HD
ENDBRANCH  21  24
ENDBRANCH   1  22
BRANCH  15  26
ATOM     26  C   UNL     1       1.069  -2.284   2.542  0.00  0.00    +0.024 A 
ATOM     27  C   UNL     1       2.331  -2.057   3.089  0.00  0.00    +0.012 A 
ATOM     28  C   UNL     1       2.447  -1.456   4.326  0.00  0.00    +0.001 A 
ATOM     29  C   UNL     1       1.315  -1.078   5.026  0.00  0.00    +0.004 A 
ATOM     30  C   UNL     1       0.059  -1.299   4.494  0.00  0.00    +0.046 A 
ATOM     31  C   UNL     1      -0.072  -1.895   3.249  0.00  0.00    +0.125 A 
BRANCH  31  32
ATOM     32  O   UNL     1      -1.306  -2.107   2.722  0.00  0.00    -0.506 OA
ATOM     33  H   UNL     1      -1.693  -2.961   2.957  0.00  0.00    +0.292 HD
ENDBRANCH  31  32
ENDBRANCH  15  26
BRANCH   8  34
ATOM     34  C   UNL     1      -4.094  -3.976  -4.739  0.00  0.00    +0.091 A 
ATOM     35  C   UNL     1      -4.260  -2.716  -4.196  0.00  0.00    +0.018 A 
ATOM     36  C   UNL     1      -5.293  -1.906  -4.630  0.00  0.00    +0.001 A 
ATOM     37  C   UNL     1      -6.161  -2.354  -5.609  0.00  0.00    +0.004 A 
ATOM     38  C   UNL     1      -5.999  -3.612  -6.156  0.00  0.00    +0.046 A 
ATOM     39  C   UNL     1      -4.960  -4.425  -5.725  0.00  0.00    +0.131 A 
BRANCH  39  40
ATOM     40  O   UNL     1      -4.794  -5.661  -6.265  0.00  0.00    -0.506 OA
ATOM     41  H   UNL     1      -5.275  -6.360  -5.801  0.00  0.00    +0.292 HD
ENDBRANCH  39  40
ENDBRANCH   8  34
TORSDOF 6
