REMARK  Name = ZINC28782744
REMARK  4 active torsions:
REMARK  status: ('A' for Active; 'I' for Inactive)
REMARK    1  A    between atoms: C_4  and  S_10
REMARK    2  A    between atoms: C_5  and  N_7
REMARK    3  A    between atoms: S_10  and  N_13
REMARK    4  A    between atoms: N_13  and  C_14
REMARK                            x       y       z     vdW  Elec       q    Type
REMARK                         _______ _______ _______ _____ _____    ______ ____
ROOT
ATOM      1  N   UNL     1       4.101  -1.680   1.242  0.00  0.00    -0.097 NA
ENDROOT
BRANCH   1   2
ATOM      2  C   UNL     1       5.220  -2.486   1.440  0.00  0.00    +0.082 A 
ATOM      3  C   UNL     1       6.141  -2.678   0.427  0.00  0.00    +0.027 A 
ATOM      4  C   UNL     1       7.270  -3.478   0.594  0.00  0.00    +0.006 A 
ATOM      5  C   UNL     1       7.504  -4.104   1.782  0.00  0.00    -0.039 A 
ATOM      6  C   UNL     1       6.588  -3.921   2.813  0.00  0.00    -0.010 A 
ATOM      7  C   UNL     1       5.442  -3.118   2.682  0.00  0.00    +0.007 A 
ATOM      8  C   UNL     1       4.591  -3.001   3.791  0.00  0.00    +0.010 A 
ATOM      9  C   UNL     1       4.913  -3.662   4.941  0.00  0.00    +0.001 A 
ATOM     10  C   UNL     1       6.060  -4.451   5.051  0.00  0.00    +0.004 A 
ATOM     11  C   UNL     1       6.902  -4.594   3.991  0.00  0.00    -0.039 A 
ATOM     12  C   UNL     1       8.193  -5.338   3.756  0.00  0.00    +0.040 C 
ATOM     13  C   UNL     1       8.591  -5.015   2.299  0.00  0.00    +0.040 C 
ENDBRANCH   1   2
BRANCH   1  14
ATOM     14  S   UNL     1       3.858  -0.946  -0.222  0.00  0.00    +0.094 S 
ATOM     15  O   UNL     1       3.618  -1.984  -1.162  0.00  0.00    -0.148 OA
ATOM     16  O   UNL     1       4.907  -0.001  -0.382  0.00  0.00    -0.148 OA
BRANCH  14  20
ATOM     17  C   UNL     1       0.016   1.428   0.089  0.00  0.00    +0.002 A 
ATOM     18  C   UNL     1       1.224   2.084  -0.062  0.00  0.00    +0.002 A 
ATOM     19  C   UNL     1       2.397   1.359  -0.157  0.00  0.00    +0.031 A 
ATOM     20  C   UNL     1       2.363  -0.022  -0.100  0.00  0.00    +0.140 A 
ATOM     21  C   UNL     1       1.156  -0.678   0.052  0.00  0.00    +0.153 A 
ATOM     22  C   UNL     1      -0.018   0.047   0.145  0.00  0.00    +0.035 A 
BRANCH  21  23
ATOM     23  N   UNL     1       1.119  -2.156   0.112  0.00  0.00    +0.058 N 
ATOM     24  O   UNL     1       0.221  -2.761  -0.426  0.00  0.00    -0.126 OA
ATOM     25  O   UNL     1       1.987  -2.759   0.698  0.00  0.00    -0.126 OA
ENDBRANCH  21  23
ENDBRANCH  14  20
ENDBRANCH   1  14
TORSDOF 4
