REMARK  Name = ZINC45961415
REMARK  8 active torsions:
REMARK  status: ('A' for Active; 'I' for Inactive)
REMARK    1  A    between atoms: C_1  and  C_2
REMARK    2  A    between atoms: C_5  and  O_8
REMARK    3  A    between atoms: O_8  and  C_9
REMARK    4  A    between atoms: C_9  and  C_11
REMARK    5  A    between atoms: C_9  and  C_12
REMARK    6  A    between atoms: N_14  and  C_15
REMARK    7  A    between atoms: C_15  and  C_16
REMARK    8  A    between atoms: C_24  and  C_26
REMARK                            x       y       z     vdW  Elec       q    Type
REMARK                         _______ _______ _______ _____ _____    ______ ____
ROOT
ATOM      1  C   UNL     1       2.184  -8.730   3.323  0.00  0.00    +0.066 A 
ATOM      2  C   UNL     1       1.629  -9.975   3.527  0.00  0.00    +0.097 A 
ATOM      3  C   UNL     1       1.762 -10.597   4.769  0.00  0.00    +0.275 A 
ATOM      4  O   UNL     1       1.273 -11.701   4.955  0.00  0.00    -0.266 OA
ATOM      5  N   UNL     1       2.442  -9.971   5.774  0.00  0.00    -0.171 N 
ATOM      6  C   UNL     1       2.961  -8.738   5.486  0.00  0.00    +0.199 A 
ATOM      7  N   UNL     1       2.844  -8.150   4.323  0.00  0.00    -0.225 NA
ATOM      8  S   UNL     1       3.744  -8.280   7.017  0.00  0.00    -0.028 S 
ATOM      9  C   UNL     1       3.334  -9.751   7.942  0.00  0.00    +0.132 A 
ATOM     10  N   UNL     1       2.664 -10.449   7.062  0.00  0.00    -0.154 NA
ENDROOT
BRANCH   9  11
ATOM     11  C   UNL     1       3.667 -10.093   9.342  0.00  0.00    +0.009 A 
ATOM     12  C   UNL     1       3.255 -11.310   9.883  0.00  0.00    +0.010 A 
ATOM     13  C   UNL     1       3.568 -11.623  11.190  0.00  0.00    +0.001 A 
ATOM     14  C   UNL     1       4.291 -10.732  11.963  0.00  0.00    +0.000 A 
ATOM     15  C   UNL     1       4.703  -9.523  11.433  0.00  0.00    +0.001 A 
ATOM     16  C   UNL     1       4.400  -9.201  10.125  0.00  0.00    +0.010 A 
ENDBRANCH   9  11
BRANCH   1  17
ATOM     17  C   UNL     1       2.051  -8.040   1.990  0.00  0.00    +0.160 C 
BRANCH  17  20
ATOM     18  C   UNL     1       1.003  -6.037   1.081  0.00  0.00    +0.254 C 
ATOM     19  O   UNL     1       1.437  -6.340  -0.010  0.00  0.00    -0.272 OA
ATOM     20  N   UNL     1       1.254  -6.821   2.148  0.00  0.00    -0.307 N 
ATOM     21  H   UNL     1       0.907  -6.578   3.021  0.00  0.00    +0.149 HD
BRANCH  18  22
ATOM     22  C   UNL     1       0.182  -4.783   1.244  0.00  0.00    +0.255 C 
ATOM     23  C   UNL     1      -1.207  -5.148   1.770  0.00  0.00    +0.062 C 
BRANCH  22  24
ATOM     24  O   UNL     1       0.057  -4.129  -0.021  0.00  0.00    -0.480 OA
BRANCH  24  29
ATOM     25  C   UNL     1      -0.898   1.421   0.056  0.00  0.00    +0.044 C 
ATOM     26  C   UNL     1      -0.643  -0.064   0.036  0.00  0.00    -0.050 A 
ATOM     27  C   UNL     1      -0.622  -0.777   1.220  0.00  0.00    +0.007 A 
ATOM     28  C   UNL     1      -0.388  -2.138   1.204  0.00  0.00    +0.046 A 
ATOM     29  C   UNL     1      -0.174  -2.790  -0.002  0.00  0.00    +0.122 A 
ATOM     30  C   UNL     1      -0.196  -2.072  -1.189  0.00  0.00    +0.046 A 
ATOM     31  C   UNL     1      -0.435  -0.712  -1.168  0.00  0.00    +0.007 A 
ENDBRANCH  24  29
ENDBRANCH  22  24
ENDBRANCH  18  22
ENDBRANCH  17  20
ENDBRANCH   1  17
TORSDOF 6
