REMARK  Name = ZINC16647675
REMARK  9 active torsions:
REMARK  status: ('A' for Active; 'I' for Inactive)
REMARK    1  A    between atoms: C_1  and  C_2
REMARK    2  A    between atoms: C_2  and  C_3
REMARK    3  A    between atoms: C_3  and  C_5
REMARK    4  A    between atoms: C_3  and  C_6
REMARK    5  A    between atoms: C_6  and  N_7
REMARK    6  A    between atoms: C_8  and  C_10
REMARK    7  A    between atoms: C_10  and  N_11
REMARK    8  A    between atoms: N_13  and  C_32
REMARK    9  A    between atoms: C_22  and  C_24
REMARK                            x       y       z     vdW  Elec       q    Type
REMARK                         _______ _______ _______ _____ _____    ______ ____
ROOT
ATOM      1  N   UNL     1      -2.232   1.032  -0.528  0.00  0.00    -0.275 N 
ATOM      2  C   UNL     1      -1.181   0.101  -0.098  0.00  0.00    +0.217 C 
ATOM      3  N   UNL     1      -0.179   0.917   0.627  0.00  0.00    -0.300 N 
ATOM      4  C   UNL     1      -0.342   2.258   0.028  0.00  0.00    +0.115 C 
ATOM      5  C   UNL     1      -1.765   2.297  -0.474  0.00  0.00    +0.241 C 
ATOM      6  O   UNL     1      -2.383   3.295  -0.780  0.00  0.00    -0.273 OA
ATOM      7  C   UNL     1      -0.122   3.335   1.086  0.00  0.00    +0.054 C 
ATOM      8  C   UNL     1      -0.346   4.716   0.461  0.00  0.00    +0.110 C 
ATOM      9  N   UNL     1       0.506   4.839  -0.730  0.00  0.00    -0.297 N 
ATOM     10  C   UNL     1       0.416   3.809  -1.774  0.00  0.00    +0.110 C 
ATOM     11  C   UNL     1       0.634   2.435  -1.131  0.00  0.00    +0.054 C 
ATOM     12  C   UNL     1       1.355   5.877  -0.862  0.00  0.00    +0.247 C 
ATOM     13  O   UNL     1       1.976   6.027  -1.895  0.00  0.00    -0.270 OA
ENDROOT
BRANCH  12  14
ATOM     14  C   UNL     1       1.531   6.834   0.252  0.00  0.00    +0.040 A 
ATOM     15  C   UNL     1       1.445   6.394   1.573  0.00  0.00    +0.033 A 
ATOM     16  C   UNL     1       1.615   7.292   2.609  0.00  0.00    +0.043 A 
ATOM     17  C   UNL     1       1.860   8.627   2.338  0.00  0.00    +0.040 A 
ATOM     18  C   UNL     1       1.941   9.070   1.029  0.00  0.00    +0.043 A 
ATOM     19  C   UNL     1       1.778   8.181  -0.015  0.00  0.00    +0.033 A 
ATOM     20 CL   UNL     1       2.248  10.747   0.699  0.00  0.00    -0.083 Cl
ATOM     21 CL   UNL     1       1.515   6.746   4.254  0.00  0.00    -0.083 Cl
ENDBRANCH  12  14
BRANCH   3  22
ATOM     22  C   UNL     1       1.113   0.428   0.416  0.00  0.00    +0.032 A 
ATOM     23  C   UNL     1       1.300  -0.775  -0.253  0.00  0.00    +0.023 A 
ATOM     24  C   UNL     1       2.579  -1.253  -0.465  0.00  0.00    +0.002 A 
ATOM     25  C   UNL     1       3.670  -0.541  -0.002  0.00  0.00    +0.000 A 
ATOM     26  C   UNL     1       3.486   0.654   0.668  0.00  0.00    +0.002 A 
ATOM     27  C   UNL     1       2.211   1.141   0.879  0.00  0.00    +0.023 A 
ENDBRANCH   3  22
BRANCH   1  28
ATOM     28  C   UNL     1      -3.580   0.646  -0.953  0.00  0.00    +0.205 C 
BRANCH  28  30
ATOM     29  N   UNL     1      -4.729   0.037  -3.057  0.00  0.00    -0.314 N 
ATOM     30  C   UNL     1      -3.589   0.405  -2.440  0.00  0.00    +0.230 C 
ATOM     31  O   UNL     1      -2.569   0.542  -3.083  0.00  0.00    -0.274 OA
ATOM     32  H   UNL     1      -5.545  -0.073  -2.543  0.00  0.00    +0.149 HD
BRANCH  29  33
ATOM     33  C   UNL     1      -4.738  -0.197  -4.503  0.00  0.00    +0.107 C 
BRANCH  33  34
ATOM     34  C   UNL     1      -6.146  -0.600  -4.946  0.00  0.00    +0.003 C 
ATOM     35  C   UNL     1      -6.513  -1.945  -4.316  0.00  0.00    +0.009 C 
BRANCH  34  37
ATOM     36  C   UNL     1      -7.620  -1.004  -6.923  0.00  0.00    +0.004 C 
ATOM     37  C   UNL     1      -6.185  -0.724  -6.470  0.00  0.00    +0.001 C 
ENDBRANCH  34  37
ENDBRANCH  33  34
ENDBRANCH  29  33
ENDBRANCH  28  30
ENDBRANCH   1  28
TORSDOF 7
