REMARK  Name = ZINC08821012
REMARK  4 active torsions:
REMARK  status: ('A' for Active; 'I' for Inactive)
REMARK    1  A    between atoms: C_4  and  N_11
REMARK    2  A    between atoms: C_5  and  C_7
REMARK    3  A    between atoms: C_17  and  C_18
REMARK    4  A    between atoms: C_21  and  C_23
REMARK                            x       y       z     vdW  Elec       q    Type
REMARK                         _______ _______ _______ _____ _____    ______ ____
ROOT
ATOM      1  N   UNL     1       3.620  -0.642   0.066  0.00  0.00    -0.225 NA
ATOM      2  C   UNL     1       4.742   0.035  -0.050  0.00  0.00    +0.166 C 
ATOM      3  N   UNL     1       6.031  -0.447  -0.112  0.00  0.00    -0.260 N 
ATOM      4  C   UNL     1       7.055   0.381  -0.229  0.00  0.00    +0.257 C 
ATOM      5  O   UNL     1       8.200  -0.028  -0.285  0.00  0.00    -0.269 OA
ATOM      6  C   UNL     1       6.749   1.819  -0.288  0.00  0.00    +0.081 C 
ATOM      7  C   UNL     1       7.599   2.881  -0.406  0.00  0.00    +0.066 C 
ATOM      8  S   UNL     1       4.966   1.802  -0.172  0.00  0.00    -0.049 S 
ATOM      9  H   UNL     1       6.189  -1.403  -0.068  0.00  0.00    +0.157 HD
ENDROOT
BRANCH   1  13
ATOM     10  C   UNL     1       0.037   1.365   0.570  0.00  0.00    +0.001 A 
ATOM     11  C   UNL     1       1.123   1.683   1.367  0.00  0.00    +0.002 A 
ATOM     12  C   UNL     1       2.320   1.018   1.205  0.00  0.00    +0.028 A 
ATOM     13  C   UNL     1       2.436   0.022   0.233  0.00  0.00    +0.078 A 
ATOM     14  C   UNL     1       1.336  -0.294  -0.569  0.00  0.00    +0.080 A 
ATOM     15  C   UNL     1       0.145   0.380  -0.395  0.00  0.00    +0.014 A 
BRANCH  14  16
ATOM     16  C   UNL     1       1.451  -1.367  -1.621  0.00  0.00    +0.419 C 
ATOM     17  F   UNL     1       0.228  -1.499  -2.287  0.00  0.00    -0.166 F 
ATOM     18  F   UNL     1       2.447  -1.015  -2.538  0.00  0.00    -0.166 F 
ATOM     19  F   UNL     1       1.784  -2.582  -1.013  0.00  0.00    -0.166 F 
ENDBRANCH  14  16
ENDBRANCH   1  13
BRANCH   7  20
ATOM     20  C   UNL     1       8.972   2.662  -0.653  0.00  0.00    +0.130 A 
ATOM     21  C   UNL     1       9.929   3.642  -0.851  0.00  0.00    +0.050 A 
ATOM     22  C   UNL     1      11.143   2.982  -1.057  0.00  0.00    +0.050 A 
ATOM     23  C   UNL     1      10.892   1.641  -0.980  0.00  0.00    +0.136 A 
ATOM     24  O   UNL     1       9.582   1.460  -0.731  0.00  0.00    -0.455 OA
BRANCH  23  25
ATOM     25  C   UNL     1      11.893   0.569  -1.138  0.00  0.00    +0.019 A 
ATOM     26  C   UNL     1      13.231   0.889  -1.385  0.00  0.00    +0.013 A 
ATOM     27  C   UNL     1      14.162  -0.118  -1.532  0.00  0.00    +0.022 A 
ATOM     28  C   UNL     1      13.774  -1.444  -1.435  0.00  0.00    +0.059 A 
ATOM     29  C   UNL     1      12.449  -1.768  -1.191  0.00  0.00    +0.060 A 
ATOM     30  C   UNL     1      11.508  -0.770  -1.037  0.00  0.00    +0.033 A 
ATOM     31 CL   UNL     1      11.972  -3.434  -1.072  0.00  0.00    -0.082 Cl
ATOM     32 CL   UNL     1      14.953  -2.705  -1.621  0.00  0.00    -0.082 Cl
ENDBRANCH  23  25
ENDBRANCH   7  20
TORSDOF 4
