REMARK  Name = ZINC63780797
REMARK  7 active torsions:
REMARK  status: ('A' for Active; 'I' for Inactive)
REMARK    1  A    between atoms: C_1  and  C_2
REMARK    2  A    between atoms: C_2  and  C_3
REMARK    3  A    between atoms: C_2  and  C_4
REMARK    4  A    between atoms: C_17  and  C_20
REMARK    5  A    between atoms: N_22  and  C_23
REMARK    6  A    between atoms: C_23  and  C_24
REMARK    7  A    between atoms: C_24  and  C_25
REMARK                            x       y       z     vdW  Elec       q    Type
REMARK                         _______ _______ _______ _____ _____    ______ ____
ROOT
ATOM      1  C   UNL     1      -2.914  -3.933  -2.705  0.00  0.00    +0.202 C 
ATOM      2  N   UNL     1      -3.203  -2.564  -3.162  0.00  0.00    -0.245 N 
ATOM      3  N   UNL     1      -2.675  -1.708  -2.190  0.00  0.00    -0.168 NA
ATOM      4  C   UNL     1      -2.111  -2.375  -1.218  0.00  0.00    +0.160 C 
ATOM      5  N   UNL     1      -2.200  -3.745  -1.434  0.00  0.00    -0.182 N 
ATOM      6  N   UNL     1      -1.661  -4.653  -0.519  0.00  0.00    -0.161 NA
ATOM      7  C   UNL     1      -1.058  -4.247   0.565  0.00  0.00    +0.140 C 
ATOM      8  C   UNL     1      -0.925  -2.823   0.859  0.00  0.00    +0.048 C 
ATOM      9  C   UNL     1      -1.436  -1.903  -0.002  0.00  0.00    +0.050 C 
ATOM     10  N   UNL     1      -0.533  -5.186   1.452  0.00  0.00    -0.314 N 
ATOM     11  C   UNL     1       0.249  -4.756   2.619  0.00  0.00    +0.107 C 
ATOM     12  C   UNL     1       1.594  -5.490   2.608  0.00  0.00    +0.031 C 
ATOM     13  C   UNL     1       1.348  -6.998   2.537  0.00  0.00    +0.078 C 
ATOM     14  C   UNL     1       0.603  -7.335   1.243  0.00  0.00    +0.031 C 
ATOM     15  C   UNL     1      -0.758  -6.623   1.242  0.00  0.00    +0.107 C 
ATOM     16  H   UNL     1      -3.667  -2.307  -3.974  0.00  0.00    +0.170 HD
ENDROOT
BRANCH  13  17
ATOM     17  C   UNL     1       2.668  -7.725   2.560  0.00  0.00    +0.216 C 
ATOM     18  O   UNL     1       3.704  -7.098   2.627  0.00  0.00    -0.276 OA
ATOM     19  N   UNL     1       2.698  -9.071   2.507  0.00  0.00    -0.315 N 
ATOM     20  H   UNL     1       1.869  -9.573   2.454  0.00  0.00    +0.149 HD
BRANCH  19  21
ATOM     21  C   UNL     1       3.981  -9.777   2.529  0.00  0.00    +0.108 C 
BRANCH  21  22
ATOM     22  C   UNL     1       3.735 -11.285   2.458  0.00  0.00    +0.052 C 
BRANCH  22  23
ATOM     23  C   UNL     1       5.055 -12.011   2.481  0.00  0.00    -0.040 C 
ATOM     24  C   UNL     1       5.677 -12.534   3.562  0.00  0.00    -0.001 A 
ATOM     25  C   UNL     1       5.325 -12.580   4.987  0.00  0.00    +0.010 A 
ATOM     26  C   UNL     1       6.169 -13.187   5.852  0.00  0.00    +0.001 A 
ATOM     27  C   UNL     1       7.369 -13.771   5.424  0.00  0.00    +0.002 A 
ATOM     28  C   UNL     1       7.761 -13.769   4.132  0.00  0.00    +0.026 A 
ATOM     29  C   UNL     1       6.950 -13.159   3.136  0.00  0.00    +0.043 A 
ATOM     30  N   UNL     1       7.108 -13.028   1.841  0.00  0.00    -0.380 N 
ATOM     31  C   UNL     1       5.950 -12.309   1.298  0.00  0.00    +0.144 C 
ATOM     32  H   UNL     1       7.863 -13.355   1.327  0.00  0.00    +0.160 HD
ENDBRANCH  22  23
ENDBRANCH  21  22
ENDBRANCH  19  21
ENDBRANCH  13  17
BRANCH   1  34
ATOM     33  C   UNL     1      -4.960  -4.849  -3.808  0.00  0.00    +0.011 C 
ATOM     34  C   UNL     1      -4.214  -4.709  -2.480  0.00  0.00    +0.024 C 
ATOM     35  C   UNL     1      -3.889  -6.098  -1.928  0.00  0.00    +0.011 C 
ENDBRANCH   1  34
TORSDOF 5
