REMARK  Name = ZINC20830655
REMARK  10 active torsions:
REMARK  status: ('A' for Active; 'I' for Inactive)
REMARK    1  A    between atoms: C_4  and  N_7
REMARK    2  A    between atoms: N_7  and  S_8
REMARK    3  A    between atoms: S_8  and  C_11
REMARK    4  A    between atoms: C_14  and  N_17
REMARK    5  A    between atoms: C_18  and  C_20
REMARK    6  A    between atoms: C_20  and  C_21
REMARK    7  A    between atoms: C_21  and  S_22
REMARK    8  A    between atoms: S_22  and  C_23
REMARK    9  A    between atoms: C_26  and  C_29
REMARK   10  A    between atoms: N_27  and  N_28
REMARK                            x       y       z     vdW  Elec       q    Type
REMARK                         _______ _______ _______ _____ _____    ______ ____
ROOT
ATOM      1  N   UNL     1       6.690   5.250   0.408  0.00  0.00    -0.285 N 
ATOM      2  C   UNL     1       6.113   6.363  -0.087  0.00  0.00    +0.218 C 
ATOM      3  O   UNL     1       5.078   6.282  -0.714  0.00  0.00    -0.275 OA
ATOM      4  H   UNL     1       7.582   5.331   1.048  0.00  0.00    +0.155 HD
ENDROOT
BRANCH   1   8
ATOM      5  C   UNL     1       5.100   1.504  -0.485  0.00  0.00    +0.109 A 
ATOM      6  C   UNL     1       5.685   1.729   0.747  0.00  0.00    +0.030 A 
ATOM      7  C   UNL     1       6.218   2.969   1.045  0.00  0.00    +0.025 A 
ATOM      8  C   UNL     1       6.156   3.992   0.108  0.00  0.00    +0.033 A 
ATOM      9  C   UNL     1       5.563   3.764  -1.127  0.00  0.00    +0.025 A 
ATOM     10  C   UNL     1       5.037   2.522  -1.420  0.00  0.00    +0.030 A 
BRANCH   5  11
ATOM     11  S   UNL     1       4.428  -0.080  -0.863  0.00  0.00    +0.072 S 
ATOM     12  O   UNL     1       3.539   0.106  -1.956  0.00  0.00    -0.150 OA
ATOM     13  O   UNL     1       4.010  -0.648   0.370  0.00  0.00    -0.150 OA
BRANCH  11  14
ATOM     14  N   UNL     1       5.672  -1.020  -1.420  0.00  0.00    -0.216 N 
ATOM     15  H   UNL     1       5.960  -1.931  -0.875  0.00  0.00    +0.174 HD
BRANCH  14  19
ATOM     16  C   UNL     1       7.711   0.065  -4.884  0.00  0.00    +0.000 A 
ATOM     17  C   UNL     1       6.329   0.094  -4.860  0.00  0.00    +0.002 A 
ATOM     18  C   UNL     1       5.649  -0.266  -3.713  0.00  0.00    +0.024 A 
ATOM     19  C   UNL     1       6.356  -0.656  -2.582  0.00  0.00    +0.048 A 
ATOM     20  C   UNL     1       7.745  -0.684  -2.610  0.00  0.00    +0.024 A 
ATOM     21  C   UNL     1       8.418  -0.323  -3.761  0.00  0.00    +0.002 A 
ENDBRANCH  14  19
ENDBRANCH  11  14
ENDBRANCH   5  11
ENDBRANCH   1   8
BRANCH   2  22
ATOM     22  C   UNL     1       6.754   7.708   0.139  0.00  0.00    +0.107 C 
BRANCH  22  23
ATOM     23  C   UNL     1       5.903   8.795  -0.521  0.00  0.00    +0.086 C 
BRANCH  23  24
ATOM     24  S   UNL     1       6.673  10.411  -0.250  0.00  0.00    -0.084 S 
BRANCH  24  25
ATOM     25  C   UNL     1       5.519  11.444  -1.090  0.00  0.00    +0.209 A 
ATOM     26  N   UNL     1       4.431  11.051  -1.716  0.00  0.00    -0.121 NA
ATOM     27  N   UNL     1       3.818  12.064  -2.215  0.00  0.00    -0.127 NA
ATOM     28  C   UNL     1       4.481  13.165  -1.945  0.00  0.00    +0.182 A 
ATOM     29  N   UNL     1       5.590  12.801  -1.216  0.00  0.00    -0.224 N 
BRANCH  28  30
ATOM     30  C   UNL     1       4.106  14.537  -2.347  0.00  0.00    +0.024 A 
ATOM     31  C   UNL     1       2.808  14.829  -2.785  0.00  0.00    +0.031 A 
ATOM     32  C   UNL     1       2.500  16.124  -3.146  0.00  0.00    +0.111 A 
ATOM     33  N   UNL     1       3.411  17.077  -3.093  0.00  0.00    -0.263 NA
ATOM     34  C   UNL     1       4.647  16.844  -2.691  0.00  0.00    +0.111 A 
ATOM     35  C   UNL     1       5.040  15.579  -2.307  0.00  0.00    +0.031 A 
ENDBRANCH  28  30
BRANCH  29  36
ATOM     36  N   UNL     1       6.559  13.626  -0.721  0.00  0.00    -0.295 N 
ATOM     37  H   UNL     1       6.500  14.711  -0.894  0.00  0.00    +0.163 HD
ATOM     38  H   UNL     1       7.400  13.206  -0.150  0.00  0.00    +0.163 HD
ENDBRANCH  29  36
ENDBRANCH  24  25
ENDBRANCH  23  24
ENDBRANCH  22  23
ENDBRANCH   2  22
TORSDOF 10
