REMARK  Name = ZINC01380909
REMARK  13 active torsions:
REMARK  status: ('A' for Active; 'I' for Inactive)
REMARK    1  A    between atoms: C_1  and  C_2
REMARK    2  A    between atoms: C_2  and  C_3
REMARK    3  A    between atoms: C_3  and  C_4
REMARK    4  A    between atoms: C_3  and  C_5
REMARK    5  A    between atoms: C_3  and  N_6
REMARK    6  A    between atoms: C_7  and  C_31
REMARK    7  A    between atoms: C_12  and  C_30
REMARK    8  A    between atoms: C_14  and  C_20
REMARK    9  A    between atoms: N_22  and  C_23
REMARK   10  A    between atoms: N_33  and  C_34
REMARK   11  A    between atoms: C_34  and  C_35
REMARK   12  A    between atoms: C_34  and  C_36
REMARK   13  A    between atoms: C_34  and  C_37
REMARK                            x       y       z     vdW  Elec       q    Type
REMARK                         _______ _______ _______ _____ _____    ______ ____
ROOT
ATOM      1  N   UNL     1       0.582  -1.977   0.930  0.00  0.00    -0.281 N 
ATOM      2  C   UNL     1       0.946  -3.097   1.832  0.00  0.00    +0.199 C 
ATOM      3  C   UNL     1       0.048  -4.214   1.403  0.00  0.00    +0.128 C 
ATOM      4  C   UNL     1       0.361  -5.659   1.560  0.00  0.00    +0.009 C 
ATOM      5  C   UNL     1      -0.799  -6.267   1.283  0.00  0.00    +0.007 C 
ATOM      6  C   UNL     1      -1.831  -5.171   0.996  0.00  0.00    +0.098 C 
ATOM      7  O   UNL     1      -1.324  -4.096   1.866  0.00  0.00    -0.355 OA
ATOM      8  C   UNL     1      -1.479  -4.572  -0.405  0.00  0.00    +0.126 C 
ATOM      9  C   UNL     1      -0.104  -3.935  -0.138  0.00  0.00    +0.128 C 
ATOM     10  C   UNL     1      -0.092  -2.432  -0.156  0.00  0.00    +0.224 C 
ATOM     11  O   UNL     1      -0.602  -1.736  -1.008  0.00  0.00    -0.275 OA
ATOM     12  C   UNL     1      -3.293  -5.572   1.207  0.00  0.00    +0.047 C 
ENDROOT
BRANCH   8  13
ATOM     13  C   UNL     1      -1.379  -5.658  -1.445  0.00  0.00    +0.224 C 
ATOM     14  O   UNL     1      -0.332  -5.845  -2.028  0.00  0.00    -0.275 OA
ATOM     15  N   UNL     1      -2.454  -6.420  -1.729  0.00  0.00    -0.283 N 
ATOM     16  H   UNL     1      -3.273  -6.312  -1.221  0.00  0.00    +0.155 HD
BRANCH  15  17
ATOM     17  C   UNL     1      -2.388  -7.368  -2.758  0.00  0.00    +0.069 A 
ATOM     18  C   UNL     1      -1.190  -8.015  -3.032  0.00  0.00    +0.026 A 
ATOM     19  C   UNL     1      -1.128  -8.950  -4.047  0.00  0.00    +0.002 A 
ATOM     20  C   UNL     1      -2.256  -9.243  -4.790  0.00  0.00    +0.003 A 
ATOM     21  C   UNL     1      -3.451  -8.602  -4.521  0.00  0.00    +0.040 A 
ATOM     22  C   UNL     1      -3.523  -7.669  -3.503  0.00  0.00    +0.144 A 
ATOM     23  F   UNL     1      -4.691  -7.046  -3.236  0.00  0.00    -0.204 F 
ENDBRANCH  15  17
ENDBRANCH   8  13
BRANCH   2  24
ATOM     24  C   UNL     1       0.683  -2.725   3.268  0.00  0.00    +0.237 C 
ATOM     25  O   UNL     1      -0.255  -2.009   3.548  0.00  0.00    -0.274 OA
ATOM     26  N   UNL     1       1.490  -3.190   4.243  0.00  0.00    -0.309 N 
ATOM     27  H   UNL     1       2.240  -3.763   4.020  0.00  0.00    +0.149 HD
BRANCH  26  28
ATOM     28  C   UNL     1       1.234  -2.829   5.640  0.00  0.00    +0.026 C 
ATOM     29  C   UNL     1      -0.157  -3.319   6.047  0.00  0.00    +0.031 C 
ATOM     30  C   UNL     1       2.287  -3.482   6.537  0.00  0.00    +0.031 C 
ATOM     31  C   UNL     1       1.304  -1.308   5.795  0.00  0.00    +0.031 C 
ENDBRANCH  26  28
ENDBRANCH   2  24
BRANCH   1  32
ATOM     32  C   UNL     1       0.900  -0.570   1.182  0.00  0.00    +0.032 C 
ATOM     33  C   UNL     1       1.573   0.030  -0.055  0.00  0.00    +0.031 C 
ATOM     34  C   UNL     1       1.848  -0.467   2.378  0.00  0.00    +0.031 C 
BRANCH  32  36
ATOM     35  C   UNL     1      -0.055   1.669   1.747  0.00  0.00    +0.006 C 
ATOM     36  C   UNL     1      -0.388   0.199   1.485  0.00  0.00    +0.022 C 
ENDBRANCH  32  36
ENDBRANCH   1  32
TORSDOF 6
