REMARK  Name = ZINC24503251
REMARK  13 active torsions:
REMARK  status: ('A' for Active; 'I' for Inactive)
REMARK    1  A    between atoms: C_1  and  C_2
REMARK    2  A    between atoms: C_2  and  C_3
REMARK    3  A    between atoms: C_2  and  C_4
REMARK    4  A    between atoms: C_2  and  N_5
REMARK    5  A    between atoms: C_6  and  S_10
REMARK    6  A    between atoms: S_10  and  C_11
REMARK    7  A    between atoms: C_11  and  C_12
REMARK    8  A    between atoms: N_14  and  C_15
REMARK    9  A    between atoms: C_15  and  C_16
REMARK   10  A    between atoms: C_16  and  C_18
REMARK   11  A    between atoms: C_16  and  C_26
REMARK   12  A    between atoms: C_21  and  O_24
REMARK   13  A    between atoms: O_24  and  C_25
REMARK                            x       y       z     vdW  Elec       q    Type
REMARK                         _______ _______ _______ _____ _____    ______ ____
ROOT
ATOM      1  C   UNL     1      -2.513   0.977   0.019  0.00  0.00    +0.068 C 
ENDROOT
BRANCH   1   2
ATOM      2  C   UNL     1      -3.303   1.322   1.255  0.00  0.00    -0.013 A 
ATOM      3  C   UNL     1      -3.743   2.541   1.607  0.00  0.00    +0.088 A 
ATOM      4  N   UNL     1      -4.426   2.466   2.791  0.00  0.00    -0.360 N 
ATOM      5  H   UNL     1      -4.866   3.373   3.230  0.00  0.00    +0.165 HD
ATOM      6  C   UNL     1      -4.434   1.166   3.245  0.00  0.00    +0.047 A 
ATOM      7  C   UNL     1      -3.732   0.393   2.303  0.00  0.00    +0.003 A 
ATOM      8  C   UNL     1      -3.578  -0.980   2.505  0.00  0.00    +0.010 A 
ATOM      9  C   UNL     1      -4.111  -1.566   3.618  0.00  0.00    +0.001 A 
ATOM     10  C   UNL     1      -4.805  -0.808   4.550  0.00  0.00    +0.002 A 
ATOM     11  C   UNL     1      -4.969   0.549   4.371  0.00  0.00    +0.026 A 
ENDBRANCH   1   2
BRANCH   1  12
ATOM     12  C   UNL     1      -1.220   1.750   0.017  0.00  0.00    -0.038 A 
ATOM     13  C   UNL     1      -0.013   1.076   0.008  0.00  0.00    +0.008 A 
ATOM     14  C   UNL     1       1.175   1.782   0.000  0.00  0.00    +0.046 A 
ATOM     15  C   UNL     1       1.155   3.169   0.008  0.00  0.00    +0.120 A 
ATOM     16  C   UNL     1      -0.057   3.844   0.023  0.00  0.00    +0.046 A 
ATOM     17  C   UNL     1      -1.242   3.133   0.031  0.00  0.00    +0.008 A 
BRANCH  15  18
ATOM     18  O   UNL     1       2.322   3.866   0.000  0.00  0.00    -0.495 OA
ATOM     19  C   UNL     1       2.225   5.292   0.009  0.00  0.00    +0.277 C 
ENDBRANCH  15  18
ENDBRANCH   1  12
BRANCH   1  20
ATOM     20  C   UNL     1      -3.327   1.342  -1.225  0.00  0.00    +0.117 C 
BRANCH  20  23
ATOM     21  C   UNL     1      -5.399   0.650  -2.303  0.00  0.00    +0.223 C 
ATOM     22  O   UNL     1      -5.191   1.475  -3.167  0.00  0.00    -0.275 OA
ATOM     23  N   UNL     1      -4.527   0.504  -1.286  0.00  0.00    -0.314 N 
ATOM     24  H   UNL     1      -4.717  -0.243  -0.501  0.00  0.00    +0.149 HD
BRANCH  21  25
ATOM     25  C   UNL     1      -6.634  -0.211  -2.366  0.00  0.00    +0.173 C 
BRANCH  25  26
ATOM     26  S   UNL     1      -7.597   0.220  -3.837  0.00  0.00    -0.075 S 
BRANCH  26  28
ATOM     27  N   UNL     1     -10.000  -1.029  -4.499  0.00  0.00    -0.215 N 
ATOM     28  C   UNL     1      -8.941  -0.905  -3.663  0.00  0.00    +0.210 A 
ATOM     29  N   UNL     1      -9.109  -1.779  -2.695  0.00  0.00    -0.101 NA
ATOM     30  N   UNL     1     -10.195  -2.442  -2.871  0.00  0.00    -0.022 NA
ATOM     31  N   UNL     1     -10.791  -2.050  -3.945  0.00  0.00    -0.043 NA
BRANCH  27  33
ATOM     32  C   UNL     1      -9.117  -0.478  -6.713  0.00  0.00    +0.036 C 
ATOM     33  C   UNL     1     -10.262  -0.264  -5.721  0.00  0.00    +0.060 C 
ATOM     34  C   UNL     1     -11.575  -0.739  -6.347  0.00  0.00    +0.036 C 
ATOM     35  C   UNL     1     -10.370   1.223  -5.378  0.00  0.00    +0.036 C 
ENDBRANCH  27  33
ENDBRANCH  26  28
ENDBRANCH  25  26
ENDBRANCH  21  25
ENDBRANCH  20  23
ENDBRANCH   1  20
TORSDOF 9
