REMARK  Name = ZINC09272327
REMARK  7 active torsions:
REMARK  status: ('A' for Active; 'I' for Inactive)
REMARK    1  A    between atoms: C_1  and  C_2
REMARK    2  A    between atoms: C_2  and  C_33
REMARK    3  A    between atoms: C_6  and  N_25
REMARK    4  A    between atoms: C_9  and  N_24
REMARK    5  A    between atoms: C_10  and  C_12
REMARK    6  A    between atoms: N_14  and  C_15
REMARK    7  A    between atoms: C_20  and  N_21
REMARK                            x       y       z     vdW  Elec       q    Type
REMARK                         _______ _______ _______ _____ _____    ______ ____
ROOT
ATOM      1  C   UNL     1       6.974   2.573  -3.140  0.00  0.00    +0.041 C 
ATOM      2  C   UNL     1       7.060   1.861  -1.788  0.00  0.00    +0.068 C 
ATOM      3  C   UNL     1       5.650   1.560  -1.274  0.00  0.00    +0.070 C 
ATOM      4  C   UNL     1       4.981   2.841  -0.852  0.00  0.00    -0.025 A 
ATOM      5  C   UNL     1       5.683   3.979  -0.622  0.00  0.00    +0.020 A 
ATOM      6  C   UNL     1       5.016   5.143  -0.217  0.00  0.00    +0.105 A 
ATOM      7  C   UNL     1       2.987   4.062  -0.275  0.00  0.00    +0.089 A 
ATOM      8  C   UNL     1       3.570   2.842  -0.687  0.00  0.00    +0.031 A 
ATOM      9  C   UNL     1       2.635   1.747  -0.885  0.00  0.00    +0.054 A 
ATOM     10  C   UNL     1       1.294   1.982  -0.660  0.00  0.00    +0.097 A 
ATOM     11  S   UNL     1       1.252   3.698  -0.180  0.00  0.00    -0.064 S 
ATOM     12  C   UNL     1       7.180   4.029  -0.796  0.00  0.00    +0.199 C 
ATOM     13  O   UNL     1       7.717   2.707  -0.838  0.00  0.00    -0.369 OA
ATOM     14  C   UNL     1       7.842   0.555  -1.942  0.00  0.00    +0.041 C 
ATOM     15  N   UNL     1       3.667   5.208  -0.035  0.00  0.00    -0.337 N 
ATOM     16  H   UNL     1       3.197   6.071   0.265  0.00  0.00    +0.168 HD
ENDROOT
BRANCH   6  17
ATOM     17  N   UNL     1       5.739   6.303   0.019  0.00  0.00    -0.312 N 
ATOM     18  C   UNL     1       5.693   6.672   1.442  0.00  0.00    +0.134 C 
ATOM     19  C   UNL     1       6.550   7.920   1.667  0.00  0.00    +0.178 C 
ATOM     20  O   UNL     1       6.083   8.973   0.820  0.00  0.00    -0.377 OA
ATOM     21  C   UNL     1       6.115   8.648  -0.573  0.00  0.00    +0.178 C 
ATOM     22  C   UNL     1       5.253   7.407  -0.821  0.00  0.00    +0.134 C 
ENDBRANCH   6  17
BRANCH  10  23
ATOM     23  C   UNL     1       0.212   1.079  -0.786  0.00  0.00    +0.257 C 
ATOM     24  O   UNL     1       0.415  -0.071  -1.133  0.00  0.00    -0.269 OA
ATOM     25  N   UNL     1      -1.044   1.492  -0.526  0.00  0.00    -0.279 N 
ATOM     26  H   UNL     1      -1.198   2.381  -0.168  0.00  0.00    +0.155 HD
BRANCH  25  27
ATOM     27  C   UNL     1      -2.125   0.641  -0.774  0.00  0.00    +0.064 A 
ATOM     28  C   UNL     1      -2.037  -0.708  -0.454  0.00  0.00    +0.025 A 
ATOM     29  C   UNL     1      -3.108  -1.545  -0.696  0.00  0.00    +0.002 A 
ATOM     30  C   UNL     1      -4.265  -1.043  -1.264  0.00  0.00    +0.002 A 
ATOM     31  C   UNL     1      -4.355   0.298  -1.588  0.00  0.00    +0.034 A 
ATOM     32  C   UNL     1      -3.288   1.142  -1.345  0.00  0.00    +0.147 A 
BRANCH  32  33
ATOM     33  N   UNL     1      -3.385   2.577  -1.693  0.00  0.00    +0.058 N 
ATOM     34  O   UNL     1      -4.421   3.025  -2.149  0.00  0.00    -0.126 OA
ATOM     35  O   UNL     1      -2.427   3.311  -1.523  0.00  0.00    -0.126 OA
ENDBRANCH  32  33
ENDBRANCH  25  27
ENDBRANCH  10  23
BRANCH   9  36
ATOM     36  N   UNL     1       3.079   0.496  -1.290  0.00  0.00    -0.356 N 
ATOM     37  H   UNL     1       2.487  -0.093  -1.783  0.00  0.00    +0.142 HD
ATOM     38  H   UNL     1       3.982   0.212  -1.081  0.00  0.00    +0.142 HD
ENDBRANCH   9  36
TORSDOF 5
