REMARK  Name = ZINC12653114
REMARK  8 active torsions:
REMARK  status: ('A' for Active; 'I' for Inactive)
REMARK    1  A    between atoms: C_1  and  C_2
REMARK    2  A    between atoms: C_3  and  C_22
REMARK    3  A    between atoms: C_4  and  N_9
REMARK    4  A    between atoms: N_9  and  C_10
REMARK    5  A    between atoms: C_10  and  C_12
REMARK    6  A    between atoms: C_10  and  C_16
REMARK    7  A    between atoms: C_12  and  C_13
REMARK    8  A    between atoms: C_22  and  C_23
REMARK                            x       y       z     vdW  Elec       q    Type
REMARK                         _______ _______ _______ _____ _____    ______ ____
ROOT
ATOM      1  C   UNL     1       2.652   0.266   0.943  0.00  0.00    +0.064 C 
ATOM      2  C   UNL     1       1.781  -0.941   0.705  0.00  0.00    +0.022 A 
ATOM      3  C   UNL     1       1.121  -1.099  -0.498  0.00  0.00    +0.016 A 
ATOM      4  C   UNL     1       0.324  -2.232  -0.677  0.00  0.00    +0.128 A 
ATOM      5  N   UNL     1       0.228  -3.115   0.312  0.00  0.00    -0.201 NA
ATOM      6  C   UNL     1       0.878  -2.926   1.451  0.00  0.00    +0.192 A 
ATOM      7  N   UNL     1       1.644  -1.864   1.646  0.00  0.00    -0.331 N 
ATOM      8  N   UNL     1       0.756  -3.866   2.460  0.00  0.00    -0.329 N 
ATOM      9  H   UNL     1       0.201  -4.650   2.328  0.00  0.00    +0.145 HD
ATOM     10  H   UNL     1       1.227  -3.740   3.299  0.00  0.00    +0.145 HD
ATOM     11  H   UNL     1       2.109  -1.758   2.491  0.00  0.00    +0.168 HD
ENDROOT
BRANCH   4  12
ATOM     12  N   UNL     1      -0.356  -2.431  -1.867  0.00  0.00    -0.321 N 
ATOM     13  H   UNL     1      -0.255  -1.799  -2.595  0.00  0.00    +0.148 HD
BRANCH  12  14
ATOM     14  C   UNL     1      -1.229  -3.598  -2.025  0.00  0.00    +0.113 C 
BRANCH  14  15
ATOM     15  C   UNL     1      -0.958  -4.251  -3.355  0.00  0.00    -0.027 A 
ATOM     16  C   UNL     1      -0.995  -3.499  -4.515  0.00  0.00    +0.005 A 
ATOM     17  C   UNL     1      -0.746  -4.098  -5.735  0.00  0.00    +0.000 A 
ATOM     18  C   UNL     1      -0.460  -5.449  -5.797  0.00  0.00    +0.000 A 
ATOM     19  C   UNL     1      -0.422  -6.201  -4.637  0.00  0.00    +0.000 A 
ATOM     20  C   UNL     1      -0.667  -5.601  -3.416  0.00  0.00    +0.005 A 
ENDBRANCH  14  15
BRANCH  14  21
ATOM     21  C   UNL     1      -2.691  -3.152  -1.963  0.00  0.00    +0.152 C 
BRANCH  21  22
ATOM     22  C   UNL     1      -2.971  -2.529  -0.620  0.00  0.00    +0.358 C 
ATOM     23  O   UNL     1      -2.077  -2.428   0.203  0.00  0.00    -0.246 OA
ATOM     24  O   UNL     1      -4.091  -2.127  -0.356  0.00  0.00    -0.246 OA
ENDBRANCH  21  22
ENDBRANCH  14  21
ENDBRANCH  12  14
ENDBRANCH   4  12
BRANCH   3  25
ATOM     25  C   UNL     1       1.257  -0.072  -1.592  0.00  0.00    +0.076 C 
BRANCH  25  26
ATOM     26  C   UNL     1       2.674  -0.070  -2.106  0.00  0.00    -0.035 A 
ATOM     27  C   UNL     1       3.593   0.784  -1.578  0.00  0.00    +0.004 A 
ATOM     28  C   UNL     1       4.907   0.800  -2.041  0.00  0.00    +0.001 A 
ATOM     29  C   UNL     1       5.310  -0.039  -3.034  0.00  0.00    +0.008 A 
ATOM     30  C   UNL     1       4.391  -0.935  -3.603  0.00  0.00    -0.018 A 
ATOM     31  C   UNL     1       3.055  -0.955  -3.129  0.00  0.00    -0.014 A 
ATOM     32  C   UNL     1       2.136  -1.856  -3.694  0.00  0.00    +0.009 A 
ATOM     33  C   UNL     1       2.542  -2.699  -4.683  0.00  0.00    +0.001 A 
ATOM     34  C   UNL     1       3.856  -2.683  -5.146  0.00  0.00    +0.001 A 
ATOM     35  C   UNL     1       4.770  -1.816  -4.631  0.00  0.00    +0.008 A 
ENDBRANCH  25  26
ENDBRANCH   3  25
TORSDOF 7
