REMARK  Name = ZINC09016430
REMARK  9 active torsions:
REMARK  status: ('A' for Active; 'I' for Inactive)
REMARK    1  A    between atoms: C_1  and  C_2
REMARK    2  A    between atoms: C_5  and  C_11
REMARK    3  A    between atoms: C_7  and  N_8
REMARK    4  A    between atoms: N_13  and  C_14
REMARK    5  A    between atoms: C_14  and  C_15
REMARK    6  A    between atoms: C_15  and  N_16
REMARK    7  A    between atoms: N_23  and  C_26
REMARK    8  A    between atoms: C_26  and  C_27
REMARK    9  A    between atoms: C_31  and  C_33
REMARK                            x       y       z     vdW  Elec       q    Type
REMARK                         _______ _______ _______ _____ _____    ______ ____
ROOT
ATOM      1  N   UNL     1      -0.459   7.346  -5.392  0.00  0.00    -0.245 N 
ATOM      2  C   UNL     1      -0.199   6.679  -4.237  0.00  0.00    +0.165 A 
ATOM      3  C   UNL     1      -1.427   6.533  -3.573  0.00  0.00    +0.103 A 
ATOM      4  C   UNL     1      -2.411   7.135  -4.378  0.00  0.00    +0.150 A 
ATOM      5  N   UNL     1      -1.833   7.612  -5.446  0.00  0.00    -0.177 NA
ATOM      6  C   UNL     1      -1.435   5.839  -2.285  0.00  0.00    +0.265 A 
ATOM      7  O   UNL     1      -2.468   5.679  -1.660  0.00  0.00    -0.267 OA
ATOM      8  N   UNL     1      -0.251   5.381  -1.814  0.00  0.00    -0.294 N 
ATOM      9  C   UNL     1       0.888   5.574  -2.524  0.00  0.00    +0.204 A 
ATOM     10  N   UNL     1       0.914   6.184  -3.673  0.00  0.00    -0.218 NA
ENDROOT
BRANCH   1  11
ATOM     11  C   UNL     1       0.528   7.723  -6.406  0.00  0.00    +0.164 C 
BRANCH  11  12
ATOM     12  C   UNL     1       1.088   9.110  -6.082  0.00  0.00    +0.128 C 
BRANCH  12  15
ATOM     13  C   UNL     1       2.704  10.677  -7.015  0.00  0.00    +0.244 C 
ATOM     14  O   UNL     1       2.453  11.436  -6.100  0.00  0.00    -0.270 OA
ATOM     15  N   UNL     1       2.075   9.487  -7.096  0.00  0.00    -0.310 N 
ATOM     16  H   UNL     1       2.276   8.881  -7.827  0.00  0.00    +0.149 HD
BRANCH  13  21
ATOM     17  C   UNL     1       6.583  12.159 -10.999  0.00  0.00    +0.046 C 
ATOM     18  C   UNL     1       5.568  11.770  -9.956  0.00  0.00    -0.020 A 
ATOM     19  C   UNL     1       4.924  10.549 -10.042  0.00  0.00    +0.006 A 
ATOM     20  C   UNL     1       3.997  10.185  -9.088  0.00  0.00    +0.013 A 
ATOM     21  C   UNL     1       3.701  11.057  -8.039  0.00  0.00    +0.039 A 
ATOM     22  C   UNL     1       4.354  12.288  -7.957  0.00  0.00    +0.046 A 
ATOM     23  C   UNL     1       5.283  12.637  -8.916  0.00  0.00    +0.130 A 
BRANCH  23  24
ATOM     24  N   UNL     1       5.976  13.942  -8.831  0.00  0.00    +0.057 N 
ATOM     25  O   UNL     1       5.644  14.755  -7.987  0.00  0.00    -0.126 OA
ATOM     26  O   UNL     1       6.879  14.203  -9.606  0.00  0.00    -0.126 OA
ENDBRANCH  23  24
ENDBRANCH  13  21
ENDBRANCH  12  15
ENDBRANCH  11  12
ENDBRANCH   1  11
BRANCH   8  27
ATOM     27  C   UNL     1      -0.200   4.679  -0.529  0.00  0.00    +0.161 C 
BRANCH  27  28
ATOM     28  C   UNL     1      -0.396   3.202  -0.756  0.00  0.00    -0.027 A 
ATOM     29  C   UNL     1       0.698   2.387  -0.982  0.00  0.00    +0.005 A 
ATOM     30  C   UNL     1       0.519   1.032  -1.190  0.00  0.00    +0.001 A 
ATOM     31  C   UNL     1      -0.754   0.492  -1.171  0.00  0.00    +0.012 A 
ATOM     32  C   UNL     1      -1.848   1.308  -0.950  0.00  0.00    +0.055 A 
ATOM     33  C   UNL     1      -1.668   2.663  -0.738  0.00  0.00    +0.017 A 
BRANCH  32  34
ATOM     34  C   UNL     1      -3.235   0.721  -0.935  0.00  0.00    +0.417 C 
ATOM     35  F   UNL     1      -3.161  -0.657  -1.167  0.00  0.00    -0.166 F 
ATOM     36  F   UNL     1      -3.827   0.952   0.311  0.00  0.00    -0.166 F 
ATOM     37  F   UNL     1      -4.006   1.321  -1.936  0.00  0.00    -0.166 F 
ENDBRANCH  32  34
ENDBRANCH  27  28
ENDBRANCH   8  27
TORSDOF 8
