REMARK  Name = ZINC59308191
REMARK  13 active torsions:
REMARK  status: ('A' for Active; 'I' for Inactive)
REMARK    1  A    between atoms: C_1  and  C_2
REMARK    2  A    between atoms: C_2  and  N_3
REMARK    3  A    between atoms: N_3  and  C_4
REMARK    4  A    between atoms: N_3  and  C_6
REMARK    5  A    between atoms: C_4  and  C_5
REMARK    6  A    between atoms: C_6  and  C_8
REMARK    7  A    between atoms: C_6  and  C_28
REMARK    8  A    between atoms: C_8  and  N_9
REMARK    9  A    between atoms: C_16  and  C_18
REMARK   10  A    between atoms: C_20  and  O_26
REMARK   11  A    between atoms: C_23  and  O_24
REMARK   12  A    between atoms: O_24  and  C_25
REMARK   13  A    between atoms: O_26  and  C_27
REMARK                            x       y       z     vdW  Elec       q    Type
REMARK                         _______ _______ _______ _____ _____    ______ ____
ROOT
ATOM      1  N   UNL     1      -1.421  -1.931  -0.441  0.00  0.00    -0.300 N 
ATOM      2  C   UNL     1      -2.678  -2.405  -0.329  0.00  0.00    +0.303 C 
ATOM      3  O   UNL     1      -3.137  -3.120  -1.199  0.00  0.00    -0.253 OA
ATOM      4  N   UNL     1      -3.425  -2.087   0.746  0.00  0.00    -0.278 N 
ATOM      5  C   UNL     1      -2.998  -1.229   1.866  0.00  0.00    +0.110 C 
ATOM      6  C   UNL     1      -3.886  -1.663   3.059  0.00  0.00    +0.021 C 
ATOM      7  C   UNL     1      -5.238  -1.948   2.354  0.00  0.00    +0.029 C 
ATOM      8  C   UNL     1      -4.804  -2.534   0.994  0.00  0.00    +0.111 C 
ATOM      9  H   UNL     1      -1.055  -1.360   0.253  0.00  0.00    +0.150 HD
ENDROOT
BRANCH   8  10
ATOM     10  C   UNL     1      -5.711  -2.027  -0.098  0.00  0.00    +0.018 A 
ATOM     11  C   UNL     1      -5.306  -0.978  -0.901  0.00  0.00    +0.054 A 
ATOM     12  C   UNL     1      -6.140  -0.512  -1.906  0.00  0.00    +0.121 A 
ATOM     13  C   UNL     1      -7.381  -1.099  -2.106  0.00  0.00    +0.049 A 
ATOM     14  C   UNL     1      -7.786  -2.148  -1.303  0.00  0.00    +0.049 A 
ATOM     15  C   UNL     1      -6.949  -2.617  -0.301  0.00  0.00    +0.125 A 
BRANCH  15  16
ATOM     16  O   UNL     1      -7.345  -3.653   0.486  0.00  0.00    -0.495 OA
ATOM     17  C   UNL     1      -8.633  -4.213   0.222  0.00  0.00    +0.277 C 
ENDBRANCH  15  16
BRANCH  12  18
ATOM     18  O   UNL     1      -5.741   0.520  -2.696  0.00  0.00    -0.495 OA
ATOM     19  C   UNL     1      -6.651   0.948  -3.712  0.00  0.00    +0.277 C 
ENDBRANCH  12  18
ENDBRANCH   8  10
BRANCH   1  20
ATOM     20  C   UNL     1      -0.609  -2.276  -1.610  0.00  0.00    +0.095 C 
BRANCH  20  21
ATOM     21  C   UNL     1       0.728  -1.536  -1.539  0.00  0.00    -0.020 C 
BRANCH  21  22
ATOM     22  C   UNL     1       1.649  -2.056  -2.612  0.00  0.00    -0.052 A 
ATOM     23  C   UNL     1       2.630  -2.981  -2.308  0.00  0.00    +0.009 A 
ATOM     24  C   UNL     1       3.441  -3.429  -3.297  0.00  0.00    +0.045 A 
ATOM     25  S   UNL     1       2.824  -2.534  -4.714  0.00  0.00    -0.105 S 
ATOM     26  C   UNL     1       1.523  -1.629  -3.893  0.00  0.00    +0.047 A 
ENDBRANCH  21  22
BRANCH  21  27
ATOM     27  N   UNL     1       0.503  -0.098  -1.741  0.00  0.00    +0.385 N 
ATOM     28  H   UNL     1      -0.048   0.042  -2.575  0.00  0.00    -0.081 HD
BRANCH  27  30
ATOM     29  C   UNL     1       0.669   0.339   0.663  0.00  0.00    -0.017 C 
ATOM     30  C   UNL     1      -0.212   0.453  -0.583  0.00  0.00    -0.081 C 
ENDBRANCH  27  30
BRANCH  27  31
ATOM     31  C   UNL     1       1.796   0.584  -1.888  0.00  0.00    -0.081 C 
ATOM     32  C   UNL     1       1.560   2.053  -2.243  0.00  0.00    -0.017 C 
ENDBRANCH  27  31
ENDBRANCH  21  27
ENDBRANCH  20  21
ENDBRANCH   1  20
TORSDOF 9
