REMARK  Name = ZINC42535514
REMARK  6 active torsions:
REMARK  status: ('A' for Active; 'I' for Inactive)
REMARK    1  A    between atoms: C_1  and  C_2
REMARK    2  A    between atoms: C_7  and  N_8
REMARK    3  A    between atoms: C_9  and  C_11
REMARK    4  A    between atoms: C_11  and  C_13
REMARK    5  A    between atoms: C_11  and  N_14
REMARK    6  A    between atoms: C_17  and  N_20
REMARK                            x       y       z     vdW  Elec       q    Type
REMARK                         _______ _______ _______ _____ _____    ______ ____
ROOT
ATOM      1  N   UNL     1      -0.122  -0.898   5.999  0.00  0.00    +0.387 N 
ATOM      2  C   UNL     1      -0.119  -0.162   7.269  0.00  0.00    -0.076 C 
ATOM      3  C   UNL     1      -0.153  -1.151   8.436  0.00  0.00    +0.006 C 
ATOM      4  C   UNL     1       1.081  -2.056   8.366  0.00  0.00    +0.089 C 
ATOM      5  C   UNL     1       1.107  -2.762   7.008  0.00  0.00    +0.006 C 
ATOM      6  C   UNL     1       1.094  -1.714   5.893  0.00  0.00    -0.076 C 
ATOM      7  H   UNL     1      -0.932  -1.498   5.962  0.00  0.00    -0.081 HD
ENDROOT
BRANCH   4   8
ATOM      8  N   UNL     1       1.017  -3.054   9.436  0.00  0.00    -0.289 N 
ATOM      9  C   UNL     1       1.950  -3.216  10.458  0.00  0.00    +0.070 A 
ATOM     10  C   UNL     1       3.129  -2.562  10.781  0.00  0.00    +0.028 A 
ATOM     11  C   UNL     1       3.856  -2.961  11.885  0.00  0.00    +0.002 A 
ATOM     12  C   UNL     1       3.412  -4.011  12.671  0.00  0.00    +0.002 A 
ATOM     13  C   UNL     1       2.239  -4.668  12.357  0.00  0.00    +0.028 A 
ATOM     14  C   UNL     1       1.502  -4.274  11.250  0.00  0.00    +0.067 A 
ATOM     15  N   UNL     1       0.311  -4.724  10.686  0.00  0.00    -0.306 N 
ATOM     16  H   UNL     1      -0.235  -5.453  11.018  0.00  0.00    +0.170 HD
ATOM     17  C   UNL     1       0.043  -3.969   9.603  0.00  0.00    +0.328 A 
ATOM     18  O   UNL     1      -0.929  -4.097   8.883  0.00  0.00    -0.247 OA
ENDBRANCH   4   8
BRANCH   1  19
ATOM     19  C   UNL     1      -0.169   0.055   4.882  0.00  0.00    +0.016 C 
ATOM     20  C   UNL     1      -1.361   0.996   5.064  0.00  0.00    -0.004 C 
BRANCH  19  22
ATOM     21  N   UNL     1      -0.116  -0.065   2.412  0.00  0.00    -0.287 N 
ATOM     22  C   UNL     1      -0.316  -0.698   3.585  0.00  0.00    +0.203 C 
ATOM     23  O   UNL     1      -0.615  -1.873   3.596  0.00  0.00    -0.277 OA
ATOM     24  H   UNL     1       0.196   0.854   2.403  0.00  0.00    +0.155 HD
BRANCH  21  31
ATOM     25  C   UNL     1      -1.121   1.445   0.220  0.00  0.00    +0.045 C 
ATOM     26  C   UNL     1      -0.850  -0.034   0.111  0.00  0.00    -0.029 A 
ATOM     27  C   UNL     1      -1.084  -0.693  -1.080  0.00  0.00    +0.008 A 
ATOM     28  C   UNL     1      -0.835  -2.049  -1.182  0.00  0.00    +0.039 A 
ATOM     29  C   UNL     1      -0.351  -2.751  -0.090  0.00  0.00    +0.125 A 
ATOM     30  C   UNL     1      -0.115  -2.095   1.105  0.00  0.00    +0.062 A 
ATOM     31  C   UNL     1      -0.359  -0.732   1.206  0.00  0.00    +0.039 A 
ATOM     32  F   UNL     1      -0.109  -4.076  -0.192  0.00  0.00    -0.205 F 
ENDBRANCH  21  31
ENDBRANCH  19  22
ENDBRANCH   1  19
TORSDOF 4
