REMARK  Name = ZINC10013302
REMARK  15 active torsions:
REMARK  status: ('A' for Active; 'I' for Inactive)
REMARK    1  A    between atoms: C_1  and  C_2
REMARK    2  A    between atoms: C_2  and  C_3
REMARK    3  A    between atoms: C_3  and  N_73
REMARK    4  A    between atoms: C_4  and  C_5
REMARK    5  A    between atoms: C_4  and  N_73
REMARK    6  A    between atoms: C_5  and  C_6
REMARK    7  A    between atoms: C_7  and  C_8
REMARK    8  A    between atoms: C_7  and  N_73
REMARK    9  A    between atoms: C_8  and  C_9
REMARK   10  A    between atoms: C_9  and  N_10
REMARK   11  A    between atoms: C_11  and  C_13
REMARK   12  A    between atoms: C_14  and  C_34
REMARK   13  A    between atoms: N_20  and  C_23
REMARK   14  A    between atoms: C_23  and  C_24
REMARK   15  A    between atoms: C_31  and  C_33
REMARK                            x       y       z     vdW  Elec       q    Type
REMARK                         _______ _______ _______ _____ _____    ______ ____
ROOT
ATOM      1  C   UNL     1      -0.817   2.229  -7.758  0.00  0.00    +0.079 A 
ATOM      2  C   UNL     1       0.370   1.957  -7.143  0.00  0.00    -0.017 A 
ATOM      3  C   UNL     1       0.504   0.801  -6.370  0.00  0.00    +0.076 A 
ATOM      4  C   UNL     1      -0.643  -0.020  -6.286  0.00  0.00    +0.116 A 
ATOM      5  S   UNL     1      -1.837   0.846  -7.274  0.00  0.00    -0.064 S 
ATOM      6  N   UNL     1      -0.649  -1.145  -5.584  0.00  0.00    -0.230 NA
ATOM      7  C   UNL     1       0.409  -1.554  -4.939  0.00  0.00    +0.203 A 
ATOM      8  N   UNL     1       1.567  -0.849  -4.940  0.00  0.00    -0.290 N 
ATOM      9  C   UNL     1       1.682   0.308  -5.621  0.00  0.00    +0.263 A 
ATOM     10  O   UNL     1       2.728   0.932  -5.619  0.00  0.00    -0.267 OA
ATOM     11  C   UNL     1       1.534   2.902  -7.297  0.00  0.00    +0.046 C 
ENDROOT
BRANCH   1  13
ATOM     12  N   UNL     1      -2.406   3.469  -9.129  0.00  0.00    -0.311 N 
ATOM     13  C   UNL     1      -1.167   3.373  -8.605  0.00  0.00    +0.251 C 
ATOM     14  O   UNL     1      -0.341   4.236  -8.835  0.00  0.00    -0.270 OA
ATOM     15  H   UNL     1      -3.064   2.781  -8.945  0.00  0.00    +0.149 HD
BRANCH  12  16
ATOM     16  C   UNL     1      -2.756   4.612  -9.975  0.00  0.00    +0.102 C 
BRANCH  16  17
ATOM     17  C   UNL     1      -4.209   4.479 -10.436  0.00  0.00    +0.000 C 
BRANCH  17  18
ATOM     18  C   UNL     1      -4.575   5.673 -11.320  0.00  0.00    -0.077 C 
BRANCH  18  19
ATOM     19  N   UNL     1      -5.973   5.519 -11.774  0.00  0.00    +0.380 N 
ATOM     20  H   UNL     1      -6.089   4.586 -12.187  0.00  0.00    -0.082 HD
BRANCH  19  21
ATOM     21  C   UNL     1      -6.895   5.654 -10.627  0.00  0.00    -0.079 C 
BRANCH  21  23
ATOM     22  C   UNL     1      -7.679   7.130  -8.769  0.00  0.00    +0.002 C 
ATOM     23  C   UNL     1      -6.736   7.027  -9.970  0.00  0.00    -0.022 C 
ENDBRANCH  21  23
ENDBRANCH  19  21
BRANCH  19  24
ATOM     24  C   UNL     1      -6.287   6.538 -12.797  0.00  0.00    -0.079 C 
BRANCH  24  25
ATOM     25  C   UNL     1      -7.584   6.141 -13.506  0.00  0.00    -0.022 C 
ATOM     26  C   UNL     1      -7.914   7.175 -14.584  0.00  0.00    +0.002 C 
ENDBRANCH  24  25
ENDBRANCH  19  24
ENDBRANCH  18  19
ENDBRANCH  17  18
ENDBRANCH  16  17
ENDBRANCH  12  16
ENDBRANCH   1  13
BRANCH   8  27
ATOM     27  C   UNL     1       2.719  -1.358  -4.191  0.00  0.00    +0.222 C 
BRANCH  27  28
ATOM     28  C   UNL     1       2.684  -0.815  -2.786  0.00  0.00    +0.236 C 
ATOM     29  O   UNL     1       1.786  -0.075  -2.444  0.00  0.00    -0.274 OA
ATOM     30  N   UNL     1       3.651  -1.151  -1.910  0.00  0.00    -0.297 N 
ATOM     31  C   UNL     1       4.808  -1.948  -2.340  0.00  0.00    +0.108 C 
ATOM     32  C   UNL     1       4.935  -3.168  -1.423  0.00  0.00    +0.019 C 
ATOM     33  C   UNL     1       5.000  -2.702   0.033  0.00  0.00    +0.003 C 
ATOM     34  C   UNL     1       3.710  -1.961   0.392  0.00  0.00    +0.022 C 
ATOM     35  C   UNL     1       3.572  -0.722  -0.507  0.00  0.00    +0.073 C 
ATOM     36  C   UNL     1       2.222  -0.049  -0.251  0.00  0.00    +0.028 C 
ENDBRANCH  27  28
ENDBRANCH   8  27
TORSDOF 11
