REMARK  Name = ZINC67529474
REMARK  9 active torsions:
REMARK  status: ('A' for Active; 'I' for Inactive)
REMARK    1  A    between atoms: C_1  and  C_2
REMARK    2  A    between atoms: C_2  and  C_3
REMARK    3  A    between atoms: C_2  and  N_4
REMARK    4  A    between atoms: C_7  and  C_10
REMARK    5  A    between atoms: C_10  and  N_11
REMARK    6  A    between atoms: N_14  and  C_15
REMARK    7  A    between atoms: C_15  and  C_16
REMARK    8  A    between atoms: C_19  and  N_22
REMARK    9  A    between atoms: C_23  and  C_25
REMARK                            x       y       z     vdW  Elec       q    Type
REMARK                         _______ _______ _______ _____ _____    ______ ____
ROOT
ATOM      1  N   UNL     1       1.882  -3.297   4.625  0.00  0.00    -0.299 N 
ATOM      2  C   UNL     1       2.781  -4.152   5.150  0.00  0.00    +0.300 C 
ATOM      3  O   UNL     1       3.735  -4.514   4.488  0.00  0.00    -0.253 OA
ATOM      4  N   UNL     1       2.624  -4.605   6.410  0.00  0.00    -0.295 N 
ATOM      5  H   UNL     1       1.121  -3.007   5.153  0.00  0.00    +0.150 HD
ATOM      6  H   UNL     1       1.863  -4.316   6.938  0.00  0.00    +0.151 HD
ENDROOT
BRANCH   1   7
ATOM      7  C   UNL     1       2.053  -2.804   3.256  0.00  0.00    +0.107 C 
BRANCH   7  11
ATOM      8  N   UNL     1       1.207   0.101   1.501  0.00  0.00    +0.381 N 
ATOM      9  C   UNL     1       0.582   0.541   2.775  0.00  0.00    -0.078 C 
ATOM     10  C   UNL     1       0.984  -0.576   3.771  0.00  0.00    -0.015 C 
ATOM     11  C   UNL     1       0.904  -1.855   2.908  0.00  0.00    -0.012 C 
ATOM     12  C   UNL     1       1.033  -1.367   1.453  0.00  0.00    -0.074 C 
ATOM     13  H   UNL     1       2.188   0.335   1.495  0.00  0.00    -0.081 HD
BRANCH   8  15
ATOM     14  C   UNL     1       0.718   2.246   0.426  0.00  0.00    -0.014 C 
ATOM     15  C   UNL     1       0.528   0.729   0.360  0.00  0.00    -0.075 C 
ATOM     16  C   UNL     1       1.124   0.197  -0.944  0.00  0.00    -0.014 C 
ENDBRANCH   8  15
ENDBRANCH   7  11
ENDBRANCH   1   7
BRANCH   4  17
ATOM     17  C   UNL     1       3.601  -5.535   6.981  0.00  0.00    +0.141 C 
BRANCH  17  18
ATOM     18  C   UNL     1       3.197  -5.885   8.390  0.00  0.00    -0.030 A 
ATOM     19  C   UNL     1       3.647  -5.116   9.448  0.00  0.00    +0.007 A 
ATOM     20  C   UNL     1       3.279  -5.434  10.740  0.00  0.00    +0.023 A 
ATOM     21  C   UNL     1       2.456  -6.528  10.977  0.00  0.00    +0.034 A 
ATOM     22  C   UNL     1       2.006  -7.298   9.912  0.00  0.00    +0.023 A 
ATOM     23  C   UNL     1       2.374  -6.971   8.622  0.00  0.00    +0.007 A 
BRANCH  21  24
ATOM     24  N   UNL     1       2.081  -6.853  12.284  0.00  0.00    -0.279 N 
ATOM     25  C   UNL     1       1.901  -8.143  12.633  0.00  0.00    +0.284 C 
ATOM     26  O   UNL     1       2.156  -9.029  11.838  0.00  0.00    -0.266 OA
ATOM     27  H   UNL     1       1.952  -6.151  12.941  0.00  0.00    +0.155 HD
BRANCH  25  28
ATOM     28  C   UNL     1       1.397  -8.478  13.968  0.00  0.00    +0.189 A 
ATOM     29  C   UNL     1       1.175  -9.736  14.450  0.00  0.00    +0.054 A 
ATOM     30  C   UNL     1       0.698  -9.588  15.761  0.00  0.00    +0.042 A 
ATOM     31  C   UNL     1       0.651  -8.262  16.020  0.00  0.00    +0.196 A 
ATOM     32  O   UNL     1       1.077  -7.597  14.939  0.00  0.00    -0.458 OA
ENDBRANCH  25  28
ENDBRANCH  21  24
ENDBRANCH  17  18
ENDBRANCH   4  17
TORSDOF 7
