REMARK  Name = ZINC36156564
REMARK  13 active torsions:
REMARK  status: ('A' for Active; 'I' for Inactive)
REMARK    1  A    between atoms: C_1  and  O_2
REMARK    2  A    between atoms: O_2  and  C_3
REMARK    3  A    between atoms: C_3  and  C_4
REMARK    4  A    between atoms: C_4  and  N_5
REMARK    5  A    between atoms: N_5  and  C_6
REMARK    6  A    between atoms: N_5  and  C_22
REMARK    7  A    between atoms: C_6  and  C_7
REMARK    8  A    between atoms: C_22  and  C_23
REMARK    9  A    between atoms: C_23  and  C_25
REMARK   10  A    between atoms: C_23  and  O_34
REMARK   11  A    between atoms: C_25  and  O_26
REMARK   12  A    between atoms: O_26  and  C_27
REMARK   13  A    between atoms: C_27  and  C_28
REMARK                            x       y       z     vdW  Elec       q    Type
REMARK                         _______ _______ _______ _____ _____    ______ ____
ROOT
ATOM      1  N   UNL     1      -1.007  -2.479  -1.291  0.00  0.00    +0.388 N 
ATOM      2  H   UNL     1      -1.500  -2.044  -0.526  0.00  0.00    -0.081 HD
ENDROOT
BRANCH   1   3
ATOM      3  C   UNL     1       0.428  -2.182  -1.181  0.00  0.00    -0.050 C 
BRANCH   3   4
ATOM      4  C   UNL     1       0.629  -0.668  -1.091  0.00  0.00    +0.141 C 
BRANCH   4   6
ATOM      5  C   UNL     1       0.081   1.240   0.252  0.00  0.00    +0.193 C 
ATOM      6  O   UNL     1       0.047  -0.182   0.120  0.00  0.00    -0.385 OA
ENDBRANCH   4   6
ENDBRANCH   3   4
ENDBRANCH   1   3
BRANCH   1   7
ATOM      7  C   UNL     1      -1.519  -1.958  -2.564  0.00  0.00    -0.003 C 
BRANCH   7   8
ATOM      8  C   UNL     1      -3.018  -2.110  -2.603  0.00  0.00    +0.094 A 
ATOM      9  N   UNL     1      -3.690  -1.810  -3.744  0.00  0.00    -0.312 N 
ATOM     10  H   UNL     1      -3.195  -1.501  -4.519  0.00  0.00    +0.170 HD
ATOM     11  C   UNL     1      -5.028  -1.932  -3.822  0.00  0.00    +0.260 A 
ATOM     12  O   UNL     1      -5.616  -1.659  -4.854  0.00  0.00    -0.267 OA
ATOM     13  C   UNL     1      -5.750  -2.389  -2.671  0.00  0.00    +0.075 A 
ATOM     14  C   UNL     1      -7.190  -2.595  -2.525  0.00  0.00    -0.023 A 
ATOM     15  C   UNL     1      -7.627  -3.038  -1.326  0.00  0.00    -0.004 A 
ATOM     16  S   UNL     1      -6.165  -3.203  -0.338  0.00  0.00    -0.073 S 
ATOM     17  C   UNL     1      -4.970  -2.675  -1.539  0.00  0.00    +0.116 A 
ATOM     18  N   UNL     1      -3.647  -2.534  -1.540  0.00  0.00    -0.229 NA
ATOM     19  C   UNL     1      -9.041  -3.323  -0.925  0.00  0.00    +0.043 C 
ATOM     20  C   UNL     1      -9.977  -2.686  -1.962  0.00  0.00    +0.005 C 
ATOM     21  C   UNL     1      -9.483  -3.058  -3.363  0.00  0.00    +0.005 C 
ATOM     22  C   UNL     1      -8.173  -2.329  -3.662  0.00  0.00    +0.037 C 
ENDBRANCH   7   8
ENDBRANCH   1   7
BRANCH   1  23
ATOM     23  C   UNL     1      -1.211  -3.933  -1.240  0.00  0.00    -0.044 C 
BRANCH  23  24
ATOM     24  C   UNL     1      -0.792  -4.459   0.135  0.00  0.00    +0.124 C 
BRANCH  24  25
ATOM     25  O   UNL     1      -1.658  -3.920   1.135  0.00  0.00    -0.391 OA
ATOM     26  H   UNL     1      -2.590  -4.150   1.014  0.00  0.00    +0.210 HD
ENDBRANCH  24  25
BRANCH  24  27
ATOM     27  C   UNL     1      -0.886  -5.986   0.147  0.00  0.00    +0.189 C 
BRANCH  27  28
ATOM     28  O   UNL     1      -0.385  -6.484   1.389  0.00  0.00    -0.373 OA
BRANCH  28  29
ATOM     29  C   UNL     1      -0.428  -7.908   1.504  0.00  0.00    +0.195 C 
BRANCH  29  30
ATOM     30  C   UNL     1       0.121  -8.321   2.846  0.00  0.00    -0.022 A 
ATOM     31  C   UNL     1       1.472  -8.576   2.991  0.00  0.00    +0.006 A 
ATOM     32  C   UNL     1       1.975  -8.954   4.221  0.00  0.00    +0.000 A 
ATOM     33  C   UNL     1       1.128  -9.077   5.307  0.00  0.00    +0.000 A 
ATOM     34  C   UNL     1      -0.222  -8.821   5.162  0.00  0.00    +0.000 A 
ATOM     35  C   UNL     1      -0.725  -8.438   3.932  0.00  0.00    +0.006 A 
ENDBRANCH  29  30
ENDBRANCH  28  29
ENDBRANCH  27  28
ENDBRANCH  24  27
ENDBRANCH  23  24
ENDBRANCH   1  23
TORSDOF 12
