REMARK  Name = ZINC05626732
REMARK  5 active torsions:
REMARK  status: ('A' for Active; 'I' for Inactive)
REMARK    1  A    between atoms: C_9  and  S_11
REMARK    2  A    between atoms: S_11  and  C_12
REMARK    3  A    between atoms: C_12  and  C_13
REMARK    4  A    between atoms: N_15  and  C_16
REMARK    5  A    between atoms: C_19  and  N_23
REMARK                            x       y       z     vdW  Elec       q    Type
REMARK                         _______ _______ _______ _____ _____    ______ ____
ROOT
ATOM      1  C   UNL     1      -1.219   9.344   0.063  0.00  0.00    +0.227 C 
ATOM      2  O   UNL     1      -0.325  10.164   0.064  0.00  0.00    -0.275 OA
ATOM      3  N   UNL     1      -2.504   9.749   0.083  0.00  0.00    -0.284 N 
ATOM      4  H   UNL     1      -3.219   9.097   0.017  0.00  0.00    +0.155 HD
ENDROOT
BRANCH   3   5
ATOM      5  C   UNL     1      -2.807  11.110   0.200  0.00  0.00    +0.052 A 
ATOM      6  C   UNL     1      -1.985  12.060  -0.392  0.00  0.00    +0.027 A 
ATOM      7  C   UNL     1      -2.287  13.402  -0.275  0.00  0.00    +0.034 A 
ATOM      8  C   UNL     1      -3.406  13.802   0.432  0.00  0.00    +0.128 A 
ATOM      9  C   UNL     1      -4.228  12.860   1.023  0.00  0.00    +0.054 A 
ATOM     10  C   UNL     1      -3.935  11.514   0.905  0.00  0.00    +0.064 A 
ATOM     11 CL   UNL     1      -4.970  10.331   1.642  0.00  0.00    -0.082 Cl
BRANCH   8  12
ATOM     12  N   UNL     1      -3.727  15.242   0.555  0.00  0.00    +0.056 N 
ATOM     13  O   UNL     1      -3.004  16.073   0.034  0.00  0.00    -0.126 OA
ATOM     14  O   UNL     1      -4.712  15.596   1.177  0.00  0.00    -0.126 OA
ENDBRANCH   8  12
ENDBRANCH   3   5
BRANCH   1  15
ATOM     15  C   UNL     1      -0.892   7.873   0.038  0.00  0.00    +0.171 C 
BRANCH  15  16
ATOM     16  S   UNL     1       0.904   7.654   0.014  0.00  0.00    -0.097 S 
BRANCH  16  25
ATOM     17  C   UNL     1      -0.010   1.077  -0.064  0.00  0.00    +0.001 A 
ATOM     18  C   UNL     1      -1.231   1.748  -0.046  0.00  0.00    +0.002 A 
ATOM     19  C   UNL     1      -1.284   3.108  -0.022  0.00  0.00    +0.028 A 
ATOM     20  C   UNL     1      -0.092   3.853  -0.027  0.00  0.00    +0.072 A 
ATOM     21  C   UNL     1       1.148   3.169  -0.051  0.00  0.00    +0.000 A 
ATOM     22  C   UNL     1       1.165   1.766  -0.069  0.00  0.00    +0.010 A 
ATOM     23  C   UNL     1       2.344   3.916  -0.056  0.00  0.00    +0.012 A 
ATOM     24  C   UNL     1       2.256   5.276  -0.034  0.00  0.00    +0.035 A 
ATOM     25  C   UNL     1       0.998   5.894  -0.011  0.00  0.00    +0.098 A 
ATOM     26  N   UNL     1      -0.117   5.191  -0.008  0.00  0.00    -0.240 NA
ENDBRANCH  16  25
ENDBRANCH  15  16
ENDBRANCH   1  15
TORSDOF 5
