REMARK  Name = ZINC07613000
REMARK  3 active torsions:
REMARK  status: ('A' for Active; 'I' for Inactive)
REMARK    1  A    between atoms: N_3  and  C_9
REMARK    2  A    between atoms: C_9  and  C_10
REMARK    3  A    between atoms: N_15  and  C_16
REMARK                            x       y       z     vdW  Elec       q    Type
REMARK                         _______ _______ _______ _____ _____    ______ ____
ROOT
ATOM      1  C   UNL     1      -7.213   1.252   2.073  0.00  0.00    +0.204 C 
ATOM      2  O   UNL     1      -6.840   1.995   2.956  0.00  0.00    -0.277 OA
ATOM      3  N   UNL     1      -6.382   0.940   1.059  0.00  0.00    -0.242 N 
ATOM      4  C   UNL     1      -5.136   1.453   1.026  0.00  0.00    +0.306 C 
ATOM      5  O   UNL     1      -4.762   2.197   1.911  0.00  0.00    -0.252 OA
ATOM      6  N   UNL     1      -4.305   1.140   0.012  0.00  0.00    -0.294 N 
ATOM      7  H   UNL     1      -6.681   0.346   0.353  0.00  0.00    +0.159 HD
ATOM      8  H   UNL     1      -4.604   0.546  -0.694  0.00  0.00    +0.151 HD
ENDROOT
BRANCH   6   9
ATOM      9  C   UNL     1      -2.951   1.698  -0.024  0.00  0.00    +0.037 C 
ATOM     10  C   UNL     1      -2.222   1.189  -1.269  0.00  0.00    +0.029 C 
ATOM     11  C   UNL     1      -0.808   1.771  -1.306  0.00  0.00    -0.008 C 
ATOM     12  C   UNL     1      -0.044   1.335  -0.054  0.00  0.00    +0.007 C 
ATOM     13  C   UNL     1      -0.772   1.844   1.191  0.00  0.00    -0.008 C 
ATOM     14  C   UNL     1      -2.187   1.262   1.228  0.00  0.00    +0.029 C 
ATOM     15  C   UNL     1      -0.851   3.372   1.147  0.00  0.00    +0.007 C 
ATOM     16  C   UNL     1      -1.615   3.808  -0.104  0.00  0.00    -0.008 C 
ATOM     17  C   UNL     1      -0.886   3.299  -1.350  0.00  0.00    +0.007 C 
ATOM     18  C   UNL     1      -3.029   3.225  -0.067  0.00  0.00    +0.029 C 
ENDBRANCH   6   9
BRANCH   1  19
ATOM     19  C   UNL     1      -8.606   0.679   2.110  0.00  0.00    +0.023 C 
BRANCH  19  22
ATOM     20  C   UNL     1      -9.122   0.954   5.817  0.00  0.00    +0.066 C 
ATOM     21  C   UNL     1      -8.444   0.571   4.498  0.00  0.00    -0.059 C 
ATOM     22  N   UNL     1      -9.256   1.052   3.373  0.00  0.00    +0.388 N 
ATOM     23  C   UNL     1      -9.382   2.513   3.443  0.00  0.00    -0.059 C 
ATOM     24  C   UNL     1     -10.065   2.905   4.756  0.00  0.00    +0.066 C 
ATOM     25  N   UNL     1     -10.368   1.680   5.517  0.00  0.00    -0.308 NA
ATOM     26  C   UNL     1     -11.277   0.820   4.738  0.00  0.00    +0.066 C 
ATOM     27  C   UNL     1     -10.592   0.444   3.431  0.00  0.00    -0.059 C 
ENDBRANCH  19  22
ENDBRANCH   1  19
TORSDOF 3
