REMARK  Name = ZINC42259574
REMARK  5 active torsions:
REMARK  status: ('A' for Active; 'I' for Inactive)
REMARK    1  A    between atoms: C_1  and  C_2
REMARK    2  A    between atoms: C_2  and  C_4
REMARK    3  A    between atoms: C_2  and  N_11
REMARK    4  A    between atoms: N_11  and  C_12
REMARK    5  A    between atoms: C_12  and  C_13
REMARK                            x       y       z     vdW  Elec       q    Type
REMARK                         _______ _______ _______ _____ _____    ______ ____
ROOT
ATOM      1  N   UNL     1       0.713  -0.491   1.192  0.00  0.00    +0.388 N 
ATOM      2  H   UNL     1       0.798  -1.495   1.145  0.00  0.00    -0.084 HD
ATOM      3  H   UNL     1       1.632  -0.076   1.228  0.00  0.00    -0.084 HD
ENDROOT
BRANCH   1   5
ATOM      4  C   UNL     1      -0.019   1.526   0.010  0.00  0.00    -0.009 C 
ATOM      5  C   UNL     1       0.002  -0.004   0.002  0.00  0.00    -0.043 C 
BRANCH   5   6
ATOM      6  C   UNL     1       0.707  -0.490  -1.238  0.00  0.00    -0.062 A 
ATOM      7  C   UNL     1       2.089  -0.511  -1.284  0.00  0.00    +0.003 A 
ATOM      8  C   UNL     1       2.736  -0.956  -2.421  0.00  0.00    +0.020 A 
ATOM      9  C   UNL     1       2.002  -1.382  -3.513  0.00  0.00    +0.041 A 
ATOM     10  C   UNL     1       0.619  -1.361  -3.466  0.00  0.00    +0.020 A 
ATOM     11  C   UNL     1      -0.027  -0.920  -2.327  0.00  0.00    +0.003 A 
ATOM     12 CL   UNL     1       2.814  -1.941  -4.941  0.00  0.00    -0.084 Cl
ENDBRANCH   5   6
ENDBRANCH   1   5
BRANCH   1  13
ATOM     13  C   UNL     1      -0.040  -0.119   2.398  0.00  0.00    -0.004 C 
BRANCH  13  14
ATOM     14  C   UNL     1       0.689  -0.618   3.619  0.00  0.00    +0.117 A 
ATOM     15  N   UNL     1       0.406  -1.830   4.064  0.00  0.00    -0.195 NA
ATOM     16  C   UNL     1       1.028  -2.308   5.139  0.00  0.00    +0.288 A 
ATOM     17  O   UNL     1       0.751  -3.549   5.609  0.00  0.00    -0.265 OA
ATOM     18  C   UNL     1       1.964  -1.507   5.765  0.00  0.00    +0.104 A 
ATOM     19  C   UNL     1       2.259  -0.213   5.281  0.00  0.00    +0.085 A 
ATOM     20  N   UNL     1       1.571   0.169   4.177  0.00  0.00    -0.233 NA
ATOM     21  C   UNL     1       3.230   0.495   6.010  0.00  0.00    +0.036 A 
ATOM     22  C   UNL     1       3.811  -0.066   7.088  0.00  0.00    +0.048 A 
ATOM     23  S   UNL     1       3.027  -1.667   7.175  0.00  0.00    -0.090 S 
ENDBRANCH  13  14
ENDBRANCH   1  13
TORSDOF 4
