REMARK  Name = ZINC00706386
REMARK  3 active torsions:
REMARK  status: ('A' for Active; 'I' for Inactive)
REMARK    1  A    between atoms: C_1  and  C_2
REMARK    2  A    between atoms: C_7  and  N_8
REMARK    3  A    between atoms: C_9  and  C_20
REMARK                            x       y       z     vdW  Elec       q    Type
REMARK                         _______ _______ _______ _____ _____    ______ ____
ROOT
ATOM      1  N   UNL     1       3.680   3.674  -1.087  0.00  0.00    -0.244 N 
ATOM      2  C   UNL     1       3.631   2.306  -0.569  0.00  0.00    +0.198 C 
ATOM      3  N   UNL     1       4.767   1.529  -1.078  0.00  0.00    -0.321 N 
ATOM      4  C   UNL     1       5.111   1.648  -2.420  0.00  0.00    +0.041 A 
ATOM      5  C   UNL     1       5.720   0.615  -3.112  0.00  0.00    +0.024 A 
ATOM      6  C   UNL     1       6.068   0.790  -4.437  0.00  0.00    +0.002 A 
ATOM      7  C   UNL     1       5.815   1.992  -5.079  0.00  0.00    +0.001 A 
ATOM      8  C   UNL     1       5.204   3.030  -4.406  0.00  0.00    +0.015 A 
ATOM      9  C   UNL     1       4.836   2.863  -3.073  0.00  0.00    +0.058 A 
ATOM     10  C   UNL     1       4.178   3.938  -2.311  0.00  0.00    +0.254 C 
ATOM     11  O   UNL     1       4.084   5.055  -2.783  0.00  0.00    -0.270 OA
ATOM     12  H   UNL     1       5.268   0.943  -0.490  0.00  0.00    +0.148 HD
ENDROOT
BRANCH   2  13
ATOM     13  C   UNL     1       2.344   1.654  -1.004  0.00  0.00    -0.005 A 
ATOM     14  C   UNL     1       1.175   2.391  -1.040  0.00  0.00    +0.011 A 
ATOM     15  C   UNL     1      -0.008   1.797  -1.438  0.00  0.00    +0.050 A 
ATOM     16  C   UNL     1      -0.024   0.460  -1.802  0.00  0.00    +0.166 A 
ATOM     17  C   UNL     1       1.154  -0.282  -1.767  0.00  0.00    +0.167 A 
ATOM     18  C   UNL     1       2.336   0.320  -1.367  0.00  0.00    +0.056 A 
ATOM     19  O   UNL     1       0.878  -1.557  -2.167  0.00  0.00    -0.453 OA
ATOM     20  C   UNL     1      -0.395  -1.484  -2.837  0.00  0.00    +0.466 C 
ATOM     21  O   UNL     1      -1.038  -0.350  -2.224  0.00  0.00    -0.453 OA
ENDBRANCH   2  13
BRANCH   1  28
ATOM     22  C   UNL     1       5.297   4.572   1.076  0.00  0.00    +0.045 C 
ATOM     23  C   UNL     1       3.959   5.195   0.768  0.00  0.00    -0.029 A 
ATOM     24  C   UNL     1       3.485   6.233   1.545  0.00  0.00    +0.005 A 
ATOM     25  C   UNL     1       2.258   6.805   1.264  0.00  0.00    +0.000 A 
ATOM     26  C   UNL     1       1.502   6.340   0.203  0.00  0.00    +0.002 A 
ATOM     27  C   UNL     1       1.973   5.305  -0.581  0.00  0.00    +0.024 A 
ATOM     28  C   UNL     1       3.203   4.725  -0.297  0.00  0.00    +0.042 A 
ENDBRANCH   1  28
TORSDOF 2
