REMARK  Name = ZINC04164119
REMARK  5 active torsions:
REMARK  status: ('A' for Active; 'I' for Inactive)
REMARK    1  A    between atoms: C_4  and  C_7
REMARK    2  A    between atoms: C_13  and  S_16
REMARK    3  A    between atoms: S_16  and  C_17
REMARK    4  A    between atoms: C_17  and  C_18
REMARK    5  A    between atoms: N_20  and  C_21
REMARK                            x       y       z     vdW  Elec       q    Type
REMARK                         _______ _______ _______ _____ _____    ______ ____
ROOT
ATOM      1  C   UNL     1       3.088  -0.966   3.630  0.00  0.00    +0.185 A 
ATOM      2  N   UNL     1       3.389  -1.156   4.902  0.00  0.00    -0.127 NA
ATOM      3  N   UNL     1       2.529  -0.562   5.653  0.00  0.00    -0.128 NA
ATOM      4  C   UNL     1       1.625   0.046   4.898  0.00  0.00    +0.178 A 
ATOM      5  N   UNL     1       1.962  -0.198   3.591  0.00  0.00    -0.192 N 
ATOM      6  N   UNL     1       1.182   0.322   2.556  0.00  0.00    -0.157 NA
ATOM      7  C   UNL     1       0.120   1.049   2.823  0.00  0.00    +0.118 A 
ATOM      8  C   UNL     1      -0.250   1.322   4.155  0.00  0.00    +0.040 A 
ATOM      9  C   UNL     1       0.487   0.824   5.183  0.00  0.00    +0.053 A 
ENDROOT
BRANCH   1  13
ATOM     10  C   UNL     1       5.233  -2.464   0.285  0.00  0.00    +0.000 A 
ATOM     11  C   UNL     1       5.818  -2.473   1.539  0.00  0.00    +0.001 A 
ATOM     12  C   UNL     1       5.127  -1.988   2.630  0.00  0.00    +0.011 A 
ATOM     13  C   UNL     1       3.834  -1.487   2.466  0.00  0.00    +0.021 A 
ATOM     14  C   UNL     1       3.248  -1.486   1.200  0.00  0.00    +0.011 A 
ATOM     15  C   UNL     1       3.952  -1.968   0.116  0.00  0.00    +0.001 A 
ENDBRANCH   1  13
BRANCH   7  16
ATOM     16  S   UNL     1      -0.848   1.695   1.500  0.00  0.00    -0.095 S 
BRANCH  16  17
ATOM     17  C   UNL     1      -0.002   1.103   0.008  0.00  0.00    +0.172 C 
BRANCH  17  18
ATOM     18  C   UNL     1      -0.738   1.591  -1.213  0.00  0.00    +0.228 C 
ATOM     19  O   UNL     1      -1.734   2.272  -1.089  0.00  0.00    -0.275 OA
ATOM     20  N   UNL     1      -0.288   1.272  -2.443  0.00  0.00    -0.283 N 
ATOM     21  H   UNL     1       0.543   0.783  -2.544  0.00  0.00    +0.155 HD
BRANCH  20  22
ATOM     22  C   UNL     1      -1.023   1.647  -3.576  0.00  0.00    +0.069 A 
ATOM     23  C   UNL     1      -1.723   2.845  -3.586  0.00  0.00    +0.029 A 
ATOM     24  C   UNL     1      -2.446   3.213  -4.704  0.00  0.00    +0.040 A 
ATOM     25  C   UNL     1      -2.473   2.388  -5.816  0.00  0.00    +0.126 A 
ATOM     26  C   UNL     1      -1.775   1.192  -5.811  0.00  0.00    +0.078 A 
ATOM     27  C   UNL     1      -1.046   0.822  -4.695  0.00  0.00    +0.147 A 
ATOM     28  F   UNL     1      -0.361  -0.343  -4.691  0.00  0.00    -0.203 F 
ATOM     29  F   UNL     1      -3.180   2.751  -6.908  0.00  0.00    -0.205 F 
ENDBRANCH  20  22
ENDBRANCH  17  18
ENDBRANCH  16  17
ENDBRANCH   7  16
TORSDOF 5
