REMARK  Name = ZINC20130836
REMARK  4 active torsions:
REMARK  status: ('A' for Active; 'I' for Inactive)
REMARK    1  A    between atoms: C_8  and  N_13
REMARK    2  A    between atoms: N_13  and  C_14
REMARK    3  A    between atoms: C_14  and  C_15
REMARK    4  A    between atoms: C_14  and  C_18
REMARK                            x       y       z     vdW  Elec       q    Type
REMARK                         _______ _______ _______ _____ _____    ______ ____
ROOT
ATOM      1  C   UNL     1       0.085   1.671   0.700  0.00  0.00    +0.017 A 
ATOM      2  C   UNL     1       1.315   2.289   0.599  0.00  0.00    +0.024 A 
ATOM      3  C   UNL     1       2.467   1.529   0.409  0.00  0.00    +0.035 A 
ATOM      4  C   UNL     1       2.354   0.147   0.325  0.00  0.00    -0.030 A 
ATOM      5  C   UNL     1       1.127  -0.469   0.427  0.00  0.00    +0.019 A 
ATOM      6  C   UNL     1      -0.014   0.294   0.615  0.00  0.00    +0.018 A 
ATOM      7 BR   UNL     1      -1.703  -0.546   0.754  0.00  0.00    -0.050 Br
ATOM      8  C   UNL     1       3.756  -0.382   0.122  0.00  0.00    +0.049 C 
ATOM      9  C   UNL     1       4.620   0.861   0.107  0.00  0.00    +0.208 C 
ATOM     10  O   UNL     1       5.824   0.899  -0.032  0.00  0.00    -0.277 OA
ATOM     11  N   UNL     1       3.802   1.913   0.278  0.00  0.00    -0.286 N 
ATOM     12  H   UNL     1       4.105   2.834   0.307  0.00  0.00    +0.155 HD
ENDROOT
BRANCH   8  13
ATOM     13  N   UNL     1       4.138  -1.266   1.231  0.00  0.00    +0.392 N 
ATOM     14  H   UNL     1       4.104  -0.751   2.098  0.00  0.00    -0.084 HD
ATOM     15  H   UNL     1       3.498  -2.044   1.277  0.00  0.00    -0.084 HD
BRANCH  13  16
ATOM     16  C   UNL     1       5.502  -1.765   1.012  0.00  0.00    -0.064 C 
BRANCH  16  17
ATOM     17  C   UNL     1       5.960  -2.554   2.240  0.00  0.00    -0.025 C 
ATOM     18  C   UNL     1       4.917  -2.849   3.319  0.00  0.00    +0.002 C 
ATOM     19  C   UNL     1       6.011  -1.812   3.578  0.00  0.00    +0.002 C 
ENDBRANCH  16  17
BRANCH  16  20
ATOM     20  C   UNL     1       5.520  -2.677  -0.216  0.00  0.00    -0.025 C 
ATOM     21  C   UNL     1       6.702  -2.544  -1.178  0.00  0.00    +0.002 C 
ATOM     22  C   UNL     1       5.322  -2.023  -1.585  0.00  0.00    +0.002 C 
ENDBRANCH  16  20
ENDBRANCH  13  16
ENDBRANCH   8  13
TORSDOF 4
