REMARK  Name = ZINC07748265
REMARK  6 active torsions:
REMARK  status: ('A' for Active; 'I' for Inactive)
REMARK    1  A    between atoms: C_4  and  C_7
REMARK    2  A    between atoms: C_7  and  C_9
REMARK    3  A    between atoms: C_7  and  N_52
REMARK    4  A    between atoms: C_14  and  C_15
REMARK    5  A    between atoms: C_14  and  N_52
REMARK    6  A    between atoms: N_17  and  N_18
REMARK                            x       y       z     vdW  Elec       q    Type
REMARK                         _______ _______ _______ _____ _____    ______ ____
ROOT
ATOM      1  C   UNL     1       1.639  -3.294  -3.194  0.00  0.00    +0.213 C 
ATOM      2  O   UNL     1       0.875  -4.101  -2.708  0.00  0.00    -0.276 OA
ATOM      3  N   UNL     1       1.872  -3.301  -4.522  0.00  0.00    -0.225 N 
ATOM      4  H   UNL     1       2.483  -2.656  -4.910  0.00  0.00    +0.173 HD
ENDROOT
BRANCH   3   5
ATOM      5  N   UNL     1       1.231  -4.240  -5.340  0.00  0.00    -0.137 N 
ATOM      6  C   UNL     1       0.200  -3.952  -6.161  0.00  0.00    +0.263 C 
ATOM      7  O   UNL     1      -0.328  -2.873  -6.325  0.00  0.00    -0.271 OA
ATOM      8  C   UNL     1      -0.157  -5.258  -6.833  0.00  0.00    +0.114 C 
ATOM      9  C   UNL     1       0.027  -5.146  -8.343  0.00  0.00    +0.035 C 
ATOM     10  C   UNL     1      -0.312  -6.486  -9.002  0.00  0.00    +0.003 C 
ATOM     11  C   UNL     1      -1.759  -6.861  -8.675  0.00  0.00    +0.000 C 
ATOM     12  C   UNL     1      -1.922  -6.994  -7.159  0.00  0.00    +0.003 C 
ATOM     13  C   UNL     1      -1.589  -5.656  -6.492  0.00  0.00    +0.035 C 
ATOM     14  N   UNL     1       0.794  -6.223  -6.268  0.00  0.00    -0.284 N 
ATOM     15  C   UNL     1       1.570  -5.534  -5.409  0.00  0.00    +0.326 C 
ATOM     16  O   UNL     1       2.473  -6.031  -4.766  0.00  0.00    -0.251 OA
ATOM     17  H   UNL     1       0.856  -7.168  -6.476  0.00  0.00    +0.151 HD
ENDBRANCH   3   5
BRANCH   1  18
ATOM     18  C   UNL     1       2.329  -2.284  -2.314  0.00  0.00    +0.018 C 
BRANCH  18  19
ATOM     19  N   UNL     1       1.904  -2.491  -0.916  0.00  0.00    +0.392 N 
ATOM     20  H   UNL     1       0.886  -2.373  -0.851  0.00  0.00    -0.084 HD
ATOM     21  H   UNL     1       2.159  -3.441  -0.622  0.00  0.00    -0.084 HD
BRANCH  19  22
ATOM     22  C   UNL     1       2.565  -1.514  -0.030  0.00  0.00    -0.003 C 
BRANCH  22  26
ATOM     23  C   UNL     1       2.754  -3.113   3.926  0.00  0.00    +0.000 A 
ATOM     24  C   UNL     1       3.826  -2.406   3.415  0.00  0.00    +0.000 A 
ATOM     25  C   UNL     1       3.764  -1.888   2.134  0.00  0.00    +0.002 A 
ATOM     26  C   UNL     1       2.631  -2.078   1.366  0.00  0.00    -0.057 A 
ATOM     27  C   UNL     1       1.558  -2.781   1.879  0.00  0.00    +0.002 A 
ATOM     28  C   UNL     1       1.621  -3.303   3.158  0.00  0.00    +0.000 A 
ENDBRANCH  22  26
BRANCH  22  29
ATOM     29  C   UNL     1       1.773  -0.232  -0.016  0.00  0.00    -0.020 A 
ATOM     30  C   UNL     1       2.220   1.048  -0.013  0.00  0.00    +0.010 A 
ATOM     31  C   UNL     1       1.300   2.079   0.001  0.00  0.00    +0.008 A 
ATOM     32  C   UNL     1      -0.022   1.781   0.012  0.00  0.00    +0.045 A 
ATOM     33  S   UNL     1       0.002  -0.004   0.002  0.00  0.00    -0.103 S 
ENDBRANCH  22  29
ENDBRANCH  19  22
ENDBRANCH  18  19
ENDBRANCH   1  18
TORSDOF 6
