REMARK  Name = ZINC13500547
REMARK  13 active torsions:
REMARK  status: ('A' for Active; 'I' for Inactive)
REMARK    1  A    between atoms: C_1  and  C_2
REMARK    2  A    between atoms: C_9  and  C_14
REMARK    3  A    between atoms: C_14  and  N_69
REMARK    4  A    between atoms: C_15  and  C_16
REMARK    5  A    between atoms: C_15  and  N_69
REMARK    6  A    between atoms: C_16  and  C_17
REMARK    7  A    between atoms: C_17  and  O_18
REMARK    8  A    between atoms: C_19  and  C_21
REMARK    9  A    between atoms: C_19  and  C_32
REMARK   10  A    between atoms: C_19  and  N_69
REMARK   11  A    between atoms: N_25  and  C_26
REMARK   12  A    between atoms: C_32  and  C_33
REMARK   13  A    between atoms: C_32  and  C_34
REMARK                            x       y       z     vdW  Elec       q    Type
REMARK                         _______ _______ _______ _____ _____    ______ ____
ROOT
ATOM      1  N   UNL     1      -2.840   4.610   1.767  0.00  0.00    +0.389 N 
ATOM      2  H   UNL     1      -3.162   4.024   2.547  0.00  0.00    -0.080 HD
ENDROOT
BRANCH   1   3
ATOM      3  C   UNL     1      -2.389   3.736   0.664  0.00  0.00    -0.037 C 
BRANCH   3  12
ATOM      4  C   UNL     1      -0.015  -2.712   3.564  0.00  0.00    +0.044 C 
ATOM      5  C   UNL     1       0.260  -1.325   3.044  0.00  0.00    -0.050 A 
ATOM      6  C   UNL     1       1.562  -0.843   3.022  0.00  0.00    +0.005 A 
ATOM      7  C   UNL     1       1.836   0.422   2.551  0.00  0.00    +0.026 A 
ATOM      8  C   UNL     1       0.799   1.228   2.092  0.00  0.00    +0.049 A 
ATOM      9  C   UNL     1      -0.520   0.737   2.115  0.00  0.00    -0.001 A 
ATOM     10  C   UNL     1      -0.775  -0.551   2.598  0.00  0.00    +0.013 A 
ATOM     11  C   UNL     1      -1.605   1.594   1.636  0.00  0.00    +0.017 A 
ATOM     12  C   UNL     1      -1.297   2.831   1.172  0.00  0.00    +0.001 A 
ATOM     13  C   UNL     1       0.042   3.276   1.170  0.00  0.00    +0.251 A 
ATOM     14  O   UNL     1       0.297   4.393   0.755  0.00  0.00    -0.268 OA
ATOM     15  N   UNL     1       1.045   2.498   1.615  0.00  0.00    -0.322 N 
ATOM     16  H   UNL     1       1.954   2.835   1.599  0.00  0.00    +0.169 HD
ENDBRANCH   3  12
ENDBRANCH   1   3
BRANCH   1  17
ATOM     17  C   UNL     1      -1.719   5.454   2.233  0.00  0.00    -0.075 C 
BRANCH  17  18
ATOM     18  C   UNL     1      -2.074   6.028   3.606  0.00  0.00    +0.009 C 
BRANCH  18  19
ATOM     19  C   UNL     1      -0.859   6.756   4.183  0.00  0.00    +0.154 C 
BRANCH  19  20
ATOM     20  O   UNL     1      -1.190   7.293   5.466  0.00  0.00    -0.395 OA
ATOM     21  H   UNL     1      -0.465   7.769   5.892  0.00  0.00    +0.209 HD
ENDBRANCH  19  20
ENDBRANCH  18  19
ENDBRANCH  17  18
ENDBRANCH   1  17
BRANCH   1  22
ATOM     22  C   UNL     1      -3.959   5.462   1.313  0.00  0.00    +0.006 C 
BRANCH  22  23
ATOM     23  C   UNL     1      -4.552   6.163   2.507  0.00  0.00    +0.139 A 
ATOM     24  N   UNL     1      -4.769   5.644   3.691  0.00  0.00    -0.115 NA
ATOM     25  N   UNL     1      -5.285   6.559   4.438  0.00  0.00    -0.023 NA
ATOM     26  N   UNL     1      -5.402   7.648   3.761  0.00  0.00    -0.044 NA
ATOM     27  N   UNL     1      -4.956   7.446   2.568  0.00  0.00    -0.228 N 
BRANCH  27  28
ATOM     28  C   UNL     1      -4.902   8.427   1.481  0.00  0.00    +0.111 C 
ATOM     29  C   UNL     1      -4.028   9.609   1.904  0.00  0.00    +0.027 C 
ATOM     30  C   UNL     1      -3.972  10.634   0.769  0.00  0.00    +0.002 C 
ATOM     31  C   UNL     1      -5.386  11.130   0.460  0.00  0.00    +0.000 C 
ATOM     32  C   UNL     1      -6.260   9.947   0.037  0.00  0.00    +0.002 C 
ATOM     33  C   UNL     1      -6.316   8.923   1.172  0.00  0.00    +0.027 C 
ENDBRANCH  27  28
ENDBRANCH  22  23
BRANCH  22  34
ATOM     34  C   UNL     1      -5.024   4.580   0.658  0.00  0.00    -0.024 C 
ATOM     35  C   UNL     1      -4.649   4.327  -0.804  0.00  0.00    +0.006 C 
ATOM     36  C   UNL     1      -5.110   3.246   1.401  0.00  0.00    +0.006 C 
ENDBRANCH  22  34
ENDBRANCH   1  22
TORSDOF 10
