REMARK  Name = ZINC22834130
REMARK  10 active torsions:
REMARK  status: ('A' for Active; 'I' for Inactive)
REMARK    1  A    between atoms: C_1  and  C_2
REMARK    2  A    between atoms: C_5  and  C_8
REMARK    3  A    between atoms: C_8  and  N_9
REMARK    4  A    between atoms: N_14  and  C_15
REMARK    5  A    between atoms: C_15  and  C_17
REMARK    6  A    between atoms: C_17  and  C_18
REMARK    7  A    between atoms: C_18  and  C_19
REMARK    8  A    between atoms: C_19  and  N_20
REMARK    9  A    between atoms: C_23  and  C_27
REMARK   10  A    between atoms: C_23  and  C_28
REMARK                            x       y       z     vdW  Elec       q    Type
REMARK                         _______ _______ _______ _____ _____    ______ ____
ROOT
ATOM      1  C   UNL     1       0.243   5.511   6.486  0.00  0.00    +0.238 C 
ATOM      2  O   UNL     1       0.054   6.709   6.393  0.00  0.00    -0.274 OA
ENDROOT
BRANCH   1   8
ATOM      3  N   UNL     1      -2.737   4.415   4.770  0.00  0.00    -0.324 N 
ATOM      4  C   UNL     1      -3.766   5.094   4.199  0.00  0.00    +0.095 A 
ATOM      5  C   UNL     1      -3.747   6.431   4.227  0.00  0.00    +0.066 A 
ATOM      6  S   UNL     1      -2.221   6.760   5.092  0.00  0.00    -0.061 S 
ATOM      7  C   UNL     1      -1.727   5.117   5.356  0.00  0.00    +0.166 A 
ATOM      8  N   UNL     1      -0.636   4.660   5.973  0.00  0.00    -0.156 NA
BRANCH   3   9
ATOM      9  C   UNL     1      -2.717   2.950   4.762  0.00  0.00    +0.158 C 
BRANCH   9  14
ATOM     10  C   UNL     1      -0.013   1.086   0.008  0.00  0.00    +0.044 C 
ATOM     11  C   UNL     1      -0.718   1.572   1.248  0.00  0.00    -0.050 A 
ATOM     12  C   UNL     1      -2.083   1.789   1.226  0.00  0.00    +0.004 A 
ATOM     13  C   UNL     1      -2.731   2.230   2.365  0.00  0.00    +0.005 A 
ATOM     14  C   UNL     1      -2.012   2.464   3.522  0.00  0.00    -0.028 A 
ATOM     15  C   UNL     1      -0.646   2.252   3.542  0.00  0.00    +0.005 A 
ATOM     16  C   UNL     1       0.001   1.806   2.405  0.00  0.00    +0.004 A 
ENDBRANCH   9  14
ENDBRANCH   3   9
ENDBRANCH   1   8
BRANCH   1  17
ATOM     17  C   UNL     1       1.475   4.994   7.183  0.00  0.00    +0.099 C 
BRANCH  17  18
ATOM     18  C   UNL     1       2.315   6.174   7.677  0.00  0.00    +0.029 C 
BRANCH  18  19
ATOM     19  C   UNL     1       3.566   5.649   8.384  0.00  0.00    +0.118 C 
BRANCH  19  20
ATOM     20  N   UNL     1       4.369   6.779   8.857  0.00  0.00    -0.224 N 
ATOM     21  C   UNL     1       4.232   7.351  10.070  0.00  0.00    +0.246 C 
ATOM     22  O   UNL     1       3.449   7.039  10.942  0.00  0.00    -0.273 OA
ATOM     23  C   UNL     1       5.260   8.464  10.117  0.00  0.00    +0.107 C 
ATOM     24  N   UNL     1       5.918   8.383   8.802  0.00  0.00    -0.285 N 
ATOM     25  C   UNL     1       5.334   7.367   8.141  0.00  0.00    +0.309 C 
ATOM     26  O   UNL     1       5.646   7.024   7.018  0.00  0.00    -0.252 OA
ATOM     27  C   UNL     1       4.575   9.821  10.294  0.00  0.00    +0.041 C 
ATOM     28  C   UNL     1       6.266   8.220  11.243  0.00  0.00    +0.041 C 
ATOM     29  H   UNL     1       6.723   9.087   8.546  0.00  0.00    +0.151 HD
ENDBRANCH  19  20
ENDBRANCH  18  19
ENDBRANCH  17  18
ENDBRANCH   1  17
TORSDOF 7
