REMARK  Name = ZINC35926755
REMARK  11 active torsions:
REMARK  status: ('A' for Active; 'I' for Inactive)
REMARK    1  A    between atoms: C_1  and  C_2
REMARK    2  A    between atoms: C_2  and  C_3
REMARK    3  A    between atoms: C_3  and  C_4
REMARK    4  A    between atoms: C_4  and  C_5
REMARK    5  A    between atoms: C_5  and  C_7
REMARK    6  A    between atoms: C_5  and  C_9
REMARK    7  A    between atoms: C_7  and  C_8
REMARK    8  A    between atoms: C_23  and  C_25
REMARK    9  A    between atoms: C_25  and  N_26
REMARK   10  A    between atoms: N_29  and  C_32
REMARK   11  A    between atoms: C_35  and  C_38
REMARK                            x       y       z     vdW  Elec       q    Type
REMARK                         _______ _______ _______ _____ _____    ______ ____
ROOT
ATOM      1  C   UNL     1      -2.220  -3.597  -2.810  0.00  0.00    +0.219 C 
ATOM      2  O   UNL     1      -2.120  -2.400  -2.643  0.00  0.00    -0.275 OA
ATOM      3  N   UNL     1      -3.427  -4.146  -3.051  0.00  0.00    -0.298 N 
ATOM      4  C   UNL     1      -3.576  -5.603  -3.170  0.00  0.00    +0.127 C 
ATOM      5  C   UNL     1      -4.637  -6.072  -2.167  0.00  0.00    +0.127 C 
ATOM      6  N   UNL     1      -5.829  -5.223  -2.314  0.00  0.00    -0.298 N 
ATOM      7  C   UNL     1      -5.680  -3.766  -2.194  0.00  0.00    +0.127 C 
ATOM      8  C   UNL     1      -4.620  -3.298  -3.192  0.00  0.00    +0.127 C 
ATOM      9  C   UNL     1      -7.055  -5.781  -2.558  0.00  0.00    +0.198 A 
ATOM     10  N   UNL     1      -7.187  -7.135  -2.550  0.00  0.00    -0.295 N 
ATOM     11  H   UNL     1      -6.418  -7.698  -2.372  0.00  0.00    +0.172 HD
ATOM     12  C   UNL     1      -8.394  -7.692  -2.789  0.00  0.00    +0.253 A 
ATOM     13  O   UNL     1      -8.530  -8.905  -2.786  0.00  0.00    -0.268 OA
ATOM     14  C   UNL     1      -9.489  -6.848  -3.043  0.00  0.00    +0.091 A 
ATOM     15  C   UNL     1      -9.296  -5.497  -3.038  0.00  0.00    +0.034 A 
ATOM     16  N   UNL     1      -8.088  -4.996  -2.792  0.00  0.00    -0.223 NA
ENDROOT
BRANCH   1  17
ATOM     17  C   UNL     1      -0.994  -4.471  -2.749  0.00  0.00    +0.075 C 
BRANCH  17  18
ATOM     18  C   UNL     1      -0.718  -5.061  -4.133  0.00  0.00    +0.009 C 
ATOM     19  C   UNL     1      -0.365  -3.935  -5.107  0.00  0.00    +0.004 C 
ENDBRANCH  17  18
BRANCH  17  20
ATOM     20  C   UNL     1       0.207  -3.634  -2.303  0.00  0.00    +0.013 C 
BRANCH  20  21
ATOM     21  C   UNL     1       1.420  -4.546  -2.108  0.00  0.00    +0.000 C 
BRANCH  21  23
ATOM     22  C   UNL     1       3.861  -4.609  -1.578  0.00  0.00    +0.004 C 
ATOM     23  C   UNL     1       2.648  -3.697  -1.773  0.00  0.00    -0.003 C 
ENDBRANCH  21  23
ENDBRANCH  20  21
ENDBRANCH  17  20
ENDBRANCH   1  17
BRANCH  15  24
ATOM     24  C   UNL     1     -10.454  -4.571  -3.308  0.00  0.00    -0.022 C 
BRANCH  24  25
ATOM     25  N   UNL     1     -10.735  -3.776  -2.105  0.00  0.00    +0.385 N 
ATOM     26  C   UNL     1      -9.587  -2.906  -1.816  0.00  0.00    -0.059 C 
ATOM     27  C   UNL     1      -9.831  -2.161  -0.500  0.00  0.00    +0.086 C 
ATOM     28  N   UNL     1     -11.118  -1.456  -0.594  0.00  0.00    -0.333 N 
ATOM     29  C   UNL     1     -12.296  -2.219  -1.036  0.00  0.00    +0.086 C 
ATOM     30  C   UNL     1     -11.936  -2.961  -2.328  0.00  0.00    -0.059 C 
ATOM     31  H   UNL     1     -10.890  -4.394  -1.323  0.00  0.00    -0.081 HD
BRANCH  28  32
ATOM     32  C   UNL     1     -11.220  -0.101  -0.272  0.00  0.00    +0.030 A 
ATOM     33  C   UNL     1     -12.464   0.518  -0.250  0.00  0.00    +0.023 A 
ATOM     34  C   UNL     1     -12.561   1.858   0.069  0.00  0.00    +0.005 A 
ATOM     35  C   UNL     1     -11.422   2.584   0.367  0.00  0.00    -0.050 A 
ATOM     36  C   UNL     1     -10.183   1.971   0.346  0.00  0.00    +0.005 A 
ATOM     37  C   UNL     1     -10.079   0.630   0.033  0.00  0.00    +0.023 A 
ATOM     38  C   UNL     1     -11.532   4.046   0.714  0.00  0.00    +0.044 C 
ENDBRANCH  28  32
ENDBRANCH  24  25
ENDBRANCH  15  24
TORSDOF 8
