REMARK  Name = ZINC08845533
REMARK  6 active torsions:
REMARK  status: ('A' for Active; 'I' for Inactive)
REMARK    1  A    between atoms: C_1  and  C_2
REMARK    2  A    between atoms: C_2  and  C_3
REMARK    3  A    between atoms: C_6  and  C_9
REMARK    4  A    between atoms: C_12  and  C_21
REMARK    5  A    between atoms: N_19  and  C_20
REMARK    6  A    between atoms: C_26  and  O_27
REMARK                            x       y       z     vdW  Elec       q    Type
REMARK                         _______ _______ _______ _____ _____    ______ ____
ROOT
ATOM      1  C   UNL     1       2.755  -1.914   4.663  0.00  0.00    +0.141 C 
ATOM      2  C   UNL     1       2.486  -3.376   4.890  0.00  0.00    +0.035 A 
ATOM      3  C   UNL     1       2.577  -4.683   4.397  0.00  0.00    +0.102 A 
ATOM      4  N   UNL     1       2.058  -5.484   5.306  0.00  0.00    -0.173 NA
ATOM      5  N   UNL     1       1.648  -4.814   6.324  0.00  0.00    -0.272 N 
ATOM      6  H   UNL     1       1.232  -5.196   7.112  0.00  0.00    +0.189 HD
ATOM      7  C   UNL     1       1.886  -3.483   6.130  0.00  0.00    +0.126 A 
ATOM      8  C   UNL     1       1.761  -2.138   6.705  0.00  0.00    +0.265 C 
ATOM      9  O   UNL     1       1.272  -1.890   7.790  0.00  0.00    -0.268 OA
ATOM     10  N   UNL     1       2.264  -1.218   5.860  0.00  0.00    -0.288 N 
ATOM     11  C   UNL     1       2.313   0.227   6.093  0.00  0.00    +0.133 C 
ENDROOT
BRANCH   1  15
ATOM     12  C   UNL     1       0.651  -0.551   1.205  0.00  0.00    -0.048 A 
ATOM     13  C   UNL     1      -0.048  -0.903   2.344  0.00  0.00    +0.004 A 
ATOM     14  C   UNL     1       0.633  -1.345   3.463  0.00  0.00    +0.006 A 
ATOM     15  C   UNL     1       2.012  -1.434   3.443  0.00  0.00    -0.022 A 
ATOM     16  C   UNL     1       2.711  -1.082   2.303  0.00  0.00    +0.006 A 
ATOM     17  C   UNL     1       2.030  -0.644   1.183  0.00  0.00    +0.004 A 
BRANCH  12  19
ATOM     18  C   UNL     1      -0.443  -1.265  -0.903  0.00  0.00    +0.009 C 
ATOM     19  C   UNL     1      -0.092  -0.070  -0.015  0.00  0.00    +0.032 C 
ENDBRANCH  12  19
ENDBRANCH   1  15
BRANCH   3  20
ATOM     20  C   UNL     1       3.152  -5.091   3.092  0.00  0.00    +0.044 A 
ATOM     21  C   UNL     1       3.786  -4.151   2.282  0.00  0.00    +0.014 A 
ATOM     22  C   UNL     1       4.319  -4.536   1.069  0.00  0.00    +0.001 A 
ATOM     23  C   UNL     1       4.226  -5.852   0.652  0.00  0.00    +0.004 A 
ATOM     24  C   UNL     1       3.599  -6.792   1.448  0.00  0.00    +0.046 A 
ATOM     25  C   UNL     1       3.065  -6.421   2.671  0.00  0.00    +0.126 A 
BRANCH  25  26
ATOM     26  O   UNL     1       2.454  -7.345   3.457  0.00  0.00    -0.506 OA
ATOM     27  H   UNL     1       1.506  -7.438   3.291  0.00  0.00    +0.292 HD
ENDBRANCH  25  26
ENDBRANCH   3  20
TORSDOF 4
