REMARK  Name = ZINC08799205
REMARK  8 active torsions:
REMARK  status: ('A' for Active; 'I' for Inactive)
REMARK    1  A    between atoms: C_1  and  C_2
REMARK    2  A    between atoms: C_5  and  S_9
REMARK    3  A    between atoms: S_9  and  N_12
REMARK    4  A    between atoms: N_12  and  C_13
REMARK    5  A    between atoms: C_13  and  C_14
REMARK    6  A    between atoms: C_14  and  C_16
REMARK    7  A    between atoms: C_14  and  N_60
REMARK    8  A    between atoms: N_25  and  C_26
REMARK                            x       y       z     vdW  Elec       q    Type
REMARK                         _______ _______ _______ _____ _____    ______ ____
ROOT
ATOM      1  C   UNL     1       3.442  -2.893   3.839  0.00  0.00    -0.022 C 
ENDROOT
BRANCH   1   2
ATOM      2  C   UNL     1       2.802  -2.376   2.577  0.00  0.00    -0.059 A 
ATOM      3  C   UNL     1       1.986  -3.201   1.825  0.00  0.00    +0.004 A 
ATOM      4  C   UNL     1       1.405  -2.727   0.669  0.00  0.00    +0.023 A 
ATOM      5  C   UNL     1       1.632  -1.415   0.251  0.00  0.00    +0.033 A 
ATOM      6  C   UNL     1       2.444  -0.591   1.010  0.00  0.00    -0.026 A 
ATOM      7  C   UNL     1       3.029  -1.076   2.169  0.00  0.00    +0.007 A 
ATOM      8  C   UNL     1       2.716   0.841   0.622  0.00  0.00    +0.038 C 
ATOM      9  C   UNL     1       2.316   1.064  -0.838  0.00  0.00    +0.024 C 
ATOM     10  C   UNL     1       0.921   0.460  -1.043  0.00  0.00    +0.105 C 
ATOM     11  N   UNL     1       1.020  -0.997  -0.930  0.00  0.00    -0.333 N 
ATOM     12  C   UNL     1      -0.296  -1.628  -1.093  0.00  0.00    +0.129 C 
ENDBRANCH   1   2
BRANCH   1  17
ATOM     13  C   UNL     1       3.087  -4.286   5.805  0.00  0.00    -0.078 C 
ATOM     14  C   UNL     1       1.855  -4.664   6.664  0.00  0.00    -0.020 C 
ATOM     15  C   UNL     1       0.857  -3.524   6.359  0.00  0.00    -0.020 C 
ATOM     16  C   UNL     1       1.312  -2.942   5.008  0.00  0.00    -0.078 C 
ATOM     17  N   UNL     1       2.465  -3.740   4.588  0.00  0.00    +0.385 N 
ATOM     18  H   UNL     1       2.153  -4.509   3.983  0.00  0.00    -0.081 HD
ENDBRANCH   1  17
BRANCH   1  19
ATOM     19  C   UNL     1       4.677  -3.722   3.482  0.00  0.00    +0.095 C 
BRANCH  19  20
ATOM     20  N   UNL     1       5.677  -2.861   2.846  0.00  0.00    -0.191 NA
ATOM     21  H   UNL     1       5.422  -1.985   2.516  0.00  0.00    +0.148 HD
BRANCH  20  22
ATOM     22  S   UNL     1       7.241  -3.382   2.692  0.00  0.00    +0.058 S 
ATOM     23  O   UNL     1       7.949  -2.348   2.021  0.00  0.00    -0.153 OA
ATOM     24  O   UNL     1       7.634  -3.870   3.967  0.00  0.00    -0.153 OA
BRANCH  22  29
ATOM     25  C   UNL     1       7.181  -8.132  -1.029  0.00  0.00    +0.045 C 
ATOM     26  C   UNL     1       7.197  -6.945  -0.100  0.00  0.00    -0.032 A 
ATOM     27  C   UNL     1       7.052  -7.132   1.262  0.00  0.00    +0.007 A 
ATOM     28  C   UNL     1       7.071  -6.044   2.115  0.00  0.00    +0.029 A 
ATOM     29  C   UNL     1       7.223  -4.768   1.605  0.00  0.00    +0.107 A 
ATOM     30  C   UNL     1       7.368  -4.580   0.243  0.00  0.00    +0.048 A 
ATOM     31  C   UNL     1       7.354  -5.669  -0.610  0.00  0.00    +0.046 A 
ATOM     32 CL   UNL     1       7.535  -5.434  -2.321  0.00  0.00    -0.083 Cl
ENDBRANCH  22  29
ENDBRANCH  20  22
ENDBRANCH  19  20
ENDBRANCH   1  19
TORSDOF 6
