REMARK  Name = ZINC60359643
REMARK  8 active torsions:
REMARK  status: ('A' for Active; 'I' for Inactive)
REMARK    1  A    between atoms: C_1  and  C_2
REMARK    2  A    between atoms: N_4  and  C_5
REMARK    3  A    between atoms: C_5  and  C_7
REMARK    4  A    between atoms: C_5  and  C_18
REMARK    5  A    between atoms: C_7  and  C_8
REMARK    6  A    between atoms: N_20  and  C_21
REMARK    7  A    between atoms: C_24  and  N_27
REMARK    8  A    between atoms: N_27  and  C_28
REMARK                            x       y       z     vdW  Elec       q    Type
REMARK                         _______ _______ _______ _____ _____    ______ ____
ROOT
ATOM      1  C   UNL     1      -0.406  -2.658   1.221  0.00  0.00    +0.238 C 
ATOM      2  O   UNL     1       0.358  -1.925   1.813  0.00  0.00    -0.273 OA
ATOM      3  N   UNL     1      -0.597  -3.922   1.651  0.00  0.00    -0.284 N 
ATOM      4  H   UNL     1      -1.256  -4.486   1.218  0.00  0.00    +0.155 HD
ENDROOT
BRANCH   3   5
ATOM      5  C   UNL     1       0.158  -4.419   2.721  0.00  0.00    +0.034 A 
ATOM      6  C   UNL     1       0.551  -5.751   2.734  0.00  0.00    +0.025 A 
ATOM      7  C   UNL     1       1.295  -6.241   3.788  0.00  0.00    +0.025 A 
ATOM      8  C   UNL     1       1.650  -5.402   4.837  0.00  0.00    +0.027 A 
ATOM      9  C   UNL     1       1.257  -4.071   4.824  0.00  0.00    +0.025 A 
ATOM     10  C   UNL     1       0.518  -3.579   3.767  0.00  0.00    +0.025 A 
BRANCH   8  11
ATOM     11  N   UNL     1       2.404  -5.899   5.906  0.00  0.00    -0.341 N 
ATOM     12  H   UNL     1       2.678  -6.830   5.915  0.00  0.00    +0.146 HD
BRANCH  11  13
ATOM     13  C   UNL     1       2.778  -5.014   7.012  0.00  0.00    +0.075 C 
ATOM     14  C   UNL     1       4.067  -4.267   6.656  0.00  0.00    +0.050 C 
ATOM     15  C   UNL     1       4.494  -3.405   7.847  0.00  0.00    +0.161 C 
ATOM     16  O   UNL     1       4.667  -4.236   8.997  0.00  0.00    -0.380 OA
ATOM     17  C   UNL     1       3.483  -4.923   9.404  0.00  0.00    +0.161 C 
ATOM     18  C   UNL     1       3.016  -5.846   8.276  0.00  0.00    +0.050 C 
ENDBRANCH  11  13
ENDBRANCH   8  11
ENDBRANCH   3   5
BRANCH   1  19
ATOM     19  C   UNL     1      -1.141  -2.157   0.005  0.00  0.00    +0.163 C 
BRANCH  19  23
ATOM     20  C   UNL     1      -0.011   1.501   0.007  0.00  0.00    +0.109 C 
ATOM     21  C   UNL     1       0.004  -0.006  -0.002  0.00  0.00    +0.211 C 
ATOM     22  O   UNL     1       1.060  -0.601  -0.022  0.00  0.00    -0.276 OA
ATOM     23  N   UNL     1      -1.156  -0.692   0.013  0.00  0.00    -0.304 N 
ATOM     24  H   UNL     1      -2.001  -0.215   0.030  0.00  0.00    +0.149 HD
ENDBRANCH  19  23
BRANCH  19  25
ATOM     25  C   UNL     1      -0.435  -2.652  -1.258  0.00  0.00    +0.069 C 
BRANCH  25  26
ATOM     26  C   UNL     1      -1.237  -2.255  -2.471  0.00  0.00    -0.020 A 
ATOM     27  C   UNL     1      -2.148  -3.008  -3.107  0.00  0.00    +0.087 A 
ATOM     28  N   UNL     1      -2.671  -2.314  -4.165  0.00  0.00    -0.360 N 
ATOM     29  H   UNL     1      -3.347  -2.651  -4.773  0.00  0.00    +0.165 HD
ATOM     30  C   UNL     1      -2.094  -1.065  -4.236  0.00  0.00    +0.047 A 
ATOM     31  C   UNL     1      -1.176  -0.972  -3.174  0.00  0.00    +0.003 A 
ATOM     32  C   UNL     1      -0.439   0.200  -2.993  0.00  0.00    +0.010 A 
ATOM     33  C   UNL     1      -0.616   1.252  -3.846  0.00  0.00    +0.001 A 
ATOM     34  C   UNL     1      -1.524   1.166  -4.893  0.00  0.00    +0.002 A 
ATOM     35  C   UNL     1      -2.255   0.016  -5.096  0.00  0.00    +0.026 A 
ENDBRANCH  25  26
ENDBRANCH  19  25
ENDBRANCH   1  19
TORSDOF 7
