REMARK  Name = ZINC20835960
REMARK  7 active torsions:
REMARK  status: ('A' for Active; 'I' for Inactive)
REMARK    1  A    between atoms: C_1  and  C_2
REMARK    2  A    between atoms: C_2  and  C_24
REMARK    3  A    between atoms: N_3  and  N_4
REMARK    4  A    between atoms: C_7  and  S_10
REMARK    5  A    between atoms: S_10  and  C_11
REMARK    6  A    between atoms: C_11  and  C_12
REMARK    7  A    between atoms: C_15  and  C_17
REMARK                            x       y       z     vdW  Elec       q    Type
REMARK                         _______ _______ _______ _____ _____    ______ ____
ROOT
ATOM      1  N   UNL     1      -4.592   4.555   0.070  0.00  0.00    -0.205 N 
ATOM      2  C   UNL     1      -5.898   4.087   0.080  0.00  0.00    +0.232 A 
ATOM      3  N   UNL     1      -7.027   4.858   0.095  0.00  0.00    -0.186 NA
ATOM      4  C   UNL     1      -8.108   4.022   0.100  0.00  0.00    +0.211 A 
ATOM      5  N   UNL     1      -7.666   2.787   0.088  0.00  0.00    -0.144 NA
ATOM      6  N   UNL     1      -6.266   2.829   0.070  0.00  0.00    -0.245 N 
ATOM      7  H   UNL     1      -4.396   5.637   0.074  0.00  0.00    +0.177 HD
ATOM      8  H   UNL     1      -5.506   2.034   0.051  0.00  0.00    +0.192 HD
ENDROOT
BRANCH   1  11
ATOM      9  C   UNL     1      -2.030   5.570   0.052  0.00  0.00    +0.068 C 
ATOM     10  C   UNL     1      -2.299   4.087   0.046  0.00  0.00    +0.070 C 
ATOM     11  N   UNL     1      -3.524   3.649   0.055  0.00  0.00    -0.184 NA
BRANCH  10  12
ATOM     12  C   UNL     1      -1.180   3.138   0.030  0.00  0.00    +0.035 A 
ATOM     13  C   UNL     1      -1.210   1.755   0.017  0.00  0.00    +0.017 A 
ATOM     14  C   UNL     1      -0.013   1.076   0.008  0.00  0.00    +0.008 A 
ATOM     15  C   UNL     1       1.150   1.778   0.001  0.00  0.00    +0.046 A 
ATOM     16  S   UNL     1       0.575   3.467   0.015  0.00  0.00    -0.095 S 
ENDBRANCH  10  12
ENDBRANCH   1  11
BRANCH   4  17
ATOM     17  S   UNL     1      -9.799   4.517   0.119  0.00  0.00    -0.075 S 
BRANCH  17  18
ATOM     18  C   UNL     1     -10.715   2.950   0.118  0.00  0.00    +0.175 C 
BRANCH  18  19
ATOM     19  C   UNL     1     -12.195   3.233   0.134  0.00  0.00    +0.228 A 
ATOM     20  N   UNL     1     -12.961   3.384  -0.910  0.00  0.00    -0.111 NA
ATOM     21  N   UNL     1     -14.168   3.614  -0.528  0.00  0.00    -0.107 NA
ATOM     22  C   UNL     1     -14.214   3.617   0.783  0.00  0.00    +0.248 A 
ATOM     23  O   UNL     1     -12.965   3.371   1.227  0.00  0.00    -0.419 OA
BRANCH  22  24
ATOM     24  C   UNL     1     -15.412   3.844   1.618  0.00  0.00    +0.039 A 
ATOM     25  C   UNL     1     -15.312   3.814   3.010  0.00  0.00    +0.014 A 
ATOM     26  C   UNL     1     -16.434   4.030   3.784  0.00  0.00    +0.021 A 
ATOM     27  C   UNL     1     -17.659   4.266   3.182  0.00  0.00    +0.041 A 
ATOM     28  C   UNL     1     -17.765   4.292   1.802  0.00  0.00    +0.021 A 
ATOM     29  C   UNL     1     -16.650   4.082   1.018  0.00  0.00    +0.014 A 
ATOM     30 CL   UNL     1     -19.067   4.530   4.163  0.00  0.00    -0.084 Cl
ENDBRANCH  22  24
ENDBRANCH  18  19
ENDBRANCH  17  18
ENDBRANCH   4  17
TORSDOF 6
