REMARK  Name = ZINC03383939
REMARK  7 active torsions:
REMARK  status: ('A' for Active; 'I' for Inactive)
REMARK    1  A    between atoms: C_1  and  C_2
REMARK    2  A    between atoms: C_2  and  N_3
REMARK    3  A    between atoms: C_13  and  S_16
REMARK    4  A    between atoms: S_16  and  C_17
REMARK    5  A    between atoms: C_17  and  C_18
REMARK    6  A    between atoms: N_20  and  C_21
REMARK    7  A    between atoms: C_27  and  C_29
REMARK                            x       y       z     vdW  Elec       q    Type
REMARK                         _______ _______ _______ _____ _____    ______ ____
ROOT
ATOM      1  N   UNL     1       0.002  -0.004   0.002  0.00  0.00    -0.324 N 
ATOM      2  C   UNL     1       1.307  -0.469  -0.013  0.00  0.00    +0.053 A 
ATOM      3  C   UNL     1       1.843  -1.753  -0.025  0.00  0.00    +0.026 A 
ATOM      4  C   UNL     1       3.209  -1.931  -0.038  0.00  0.00    +0.002 A 
ATOM      5  C   UNL     1       4.063  -0.838  -0.041  0.00  0.00    +0.001 A 
ATOM      6  C   UNL     1       3.551   0.442  -0.029  0.00  0.00    +0.012 A 
ATOM      7  C   UNL     1       2.172   0.636  -0.015  0.00  0.00    +0.029 A 
ATOM      8  C   UNL     1       1.315   1.834  -0.001  0.00  0.00    +0.138 A 
ATOM      9  C   UNL     1      -0.017   1.369   0.010  0.00  0.00    +0.165 A 
ATOM     10  N   UNL     1      -0.998   2.265   0.029  0.00  0.00    -0.201 NA
ATOM     11  C   UNL     1      -0.697   3.557   0.028  0.00  0.00    +0.212 A 
ATOM     12  N   UNL     1       0.565   3.971   0.018  0.00  0.00    -0.122 NA
ATOM     13  N   UNL     1       1.549   3.138   0.004  0.00  0.00    -0.143 NA
ENDROOT
BRANCH   1  15
ATOM     14  C   UNL     1      -1.618  -1.145  -1.431  0.00  0.00    +0.027 C 
ATOM     15  C   UNL     1      -1.189  -0.857   0.009  0.00  0.00    +0.120 C 
ENDBRANCH   1  15
BRANCH  11  16
ATOM     16  S   UNL     1      -1.997   4.747   0.046  0.00  0.00    -0.075 S 
BRANCH  16  17
ATOM     17  C   UNL     1      -1.025   6.274   0.044  0.00  0.00    +0.173 C 
BRANCH  17  18
ATOM     18  C   UNL     1      -1.954   7.460   0.059  0.00  0.00    +0.224 C 
ATOM     19  O   UNL     1      -3.155   7.290   0.070  0.00  0.00    -0.275 OA
ATOM     20  N   UNL     1      -1.450   8.710   0.061  0.00  0.00    -0.312 N 
ATOM     21  H   UNL     1      -0.490   8.846   0.052  0.00  0.00    +0.149 HD
BRANCH  20  22
ATOM     22  C   UNL     1      -2.353   9.864   0.075  0.00  0.00    +0.076 C 
ATOM     23  C   UNL     1      -2.753  10.181   1.517  0.00  0.00    +0.022 C 
ATOM     24  C   UNL     1      -3.696  11.386   1.532  0.00  0.00    +0.002 C 
ATOM     25  C   UNL     1      -2.986  12.596   0.922  0.00  0.00    +0.000 C 
ATOM     26  C   UNL     1      -2.587  12.279  -0.520  0.00  0.00    +0.005 C 
ATOM     27  C   UNL     1      -1.643  11.075  -0.535  0.00  0.00    +0.006 C 
ATOM     28  C   UNL     1      -1.244  10.758  -1.978  0.00  0.00    +0.009 C 
ENDBRANCH  20  22
ENDBRANCH  17  18
ENDBRANCH  16  17
ENDBRANCH  11  16
TORSDOF 5
