REMARK  Name = ZINC39669617
REMARK  8 active torsions:
REMARK  status: ('A' for Active; 'I' for Inactive)
REMARK    1  A    between atoms: C_1  and  C_2
REMARK    2  A    between atoms: C_2  and  C_3
REMARK    3  A    between atoms: C_2  and  C_4
REMARK    4  A    between atoms: C_2  and  N_31
REMARK    5  A    between atoms: C_4  and  N_5
REMARK    6  A    between atoms: C_6  and  C_8
REMARK    7  A    between atoms: C_19  and  C_21
REMARK    8  A    between atoms: C_26  and  C_27
REMARK                            x       y       z     vdW  Elec       q    Type
REMARK                         _______ _______ _______ _____ _____    ______ ____
ROOT
ATOM      1  C   UNL     1      -2.942  -3.622   0.148  0.00  0.00    +0.100 C 
ATOM      2  C   UNL     1      -2.006  -4.281   1.186  0.00  0.00    +0.121 C 
ATOM      3  N   UNL     1      -2.916  -4.788   2.241  0.00  0.00    -0.296 N 
ATOM      4  C   UNL     1      -4.085  -5.315   1.498  0.00  0.00    +0.115 C 
ATOM      5  C   UNL     1      -4.304  -4.306   0.353  0.00  0.00    -0.004 C 
ATOM      6  C   UNL     1      -4.727  -5.033  -0.919  0.00  0.00    -0.010 C 
ATOM      7  C   UNL     1      -6.110  -5.656  -0.710  0.00  0.00    -0.082 C 
ATOM      8  N   UNL     1      -7.078  -4.603  -0.380  0.00  0.00    +0.379 N 
ATOM      9  C   UNL     1      -6.715  -3.970   0.894  0.00  0.00    -0.082 C 
ATOM     10  C   UNL     1      -5.357  -3.276   0.753  0.00  0.00    -0.010 C 
ATOM     11  C   UNL     1      -2.723  -4.773   3.575  0.00  0.00    +0.247 C 
ATOM     12  O   UNL     1      -3.521  -5.320   4.310  0.00  0.00    -0.270 OA
ATOM     13  H   UNL     1      -7.079  -3.907  -1.111  0.00  0.00    -0.086 HD
ATOM     14  H   UNL     1      -7.999  -5.007  -0.303  0.00  0.00    -0.086 HD
ENDROOT
BRANCH  11  15
ATOM     15  C   UNL     1      -1.541  -4.091   4.143  0.00  0.00    +0.049 A 
ATOM     16  C   UNL     1      -0.316  -4.138   3.475  0.00  0.00    +0.013 A 
ATOM     17  C   UNL     1       0.783  -3.499   4.011  0.00  0.00    +0.001 A 
ATOM     18  C   UNL     1       0.673  -2.813   5.208  0.00  0.00    +0.001 A 
ATOM     19  C   UNL     1      -0.537  -2.764   5.875  0.00  0.00    +0.013 A 
ATOM     20  C   UNL     1      -1.646  -3.393   5.347  0.00  0.00    +0.067 A 
BRANCH  20  21
ATOM     21  C   UNL     1      -2.966  -3.333   6.073  0.00  0.00    +0.418 C 
ATOM     22  F   UNL     1      -2.820  -2.583   7.244  0.00  0.00    -0.166 F 
ATOM     23  F   UNL     1      -3.923  -2.731   5.249  0.00  0.00    -0.166 F 
ATOM     24  F   UNL     1      -3.379  -4.630   6.397  0.00  0.00    -0.166 F 
ENDBRANCH  20  21
ENDBRANCH  11  15
BRANCH   1  26
ATOM     25  N   UNL     1      -3.330  -1.298  -0.606  0.00  0.00    -0.313 N 
ATOM     26  C   UNL     1      -3.053  -2.142   0.408  0.00  0.00    +0.218 C 
ATOM     27  O   UNL     1      -2.894  -1.709   1.530  0.00  0.00    -0.275 OA
ATOM     28  H   UNL     1      -3.457  -1.644  -1.503  0.00  0.00    +0.149 HD
BRANCH  25  29
ATOM     29  C   UNL     1      -3.438   0.141  -0.353  0.00  0.00    +0.126 C 
BRANCH  29  31
ATOM     30  C   UNL     1      -3.869   2.369  -1.399  0.00  0.00    +0.029 C 
ATOM     31  C   UNL     1      -3.756   0.866  -1.663  0.00  0.00    +0.032 C 
ATOM     32  C   UNL     1      -2.636   0.609  -2.673  0.00  0.00    +0.029 C 
BRANCH  31  33
ATOM     33  N   UNL     1      -5.027   0.366  -2.203  0.00  0.00    -0.291 NA
ATOM     34  C   UNL     1      -6.113   0.519  -1.223  0.00  0.00    +0.113 C 
ATOM     35  C   UNL     1      -7.403  -0.067  -1.803  0.00  0.00    +0.175 C 
ATOM     36  O   UNL     1      -7.699   0.580  -3.043  0.00  0.00    -0.377 OA
ATOM     37  C   UNL     1      -6.663   0.451  -4.021  0.00  0.00    +0.175 C 
ATOM     38  C   UNL     1      -5.366   1.042  -3.464  0.00  0.00    +0.113 C 
ENDBRANCH  31  33
ENDBRANCH  29  31
ENDBRANCH  25  29
ENDBRANCH   1  26
TORSDOF 6
