REMARK  Name = ZINC16628412
REMARK  13 active torsions:
REMARK  status: ('A' for Active; 'I' for Inactive)
REMARK    1  A    between atoms: C_1  and  C_2
REMARK    2  A    between atoms: C_2  and  O_3
REMARK    3  A    between atoms: O_3  and  C_4
REMARK    4  A    between atoms: C_4  and  C_6
REMARK    5  A    between atoms: C_7  and  C_32
REMARK    6  A    between atoms: C_8  and  C_28
REMARK    7  A    between atoms: C_10  and  N_11
REMARK    8  A    between atoms: C_12  and  C_14
REMARK    9  A    between atoms: C_14  and  N_59
REMARK   10  A    between atoms: C_15  and  N_59
REMARK   11  A    between atoms: C_16  and  C_17
REMARK   12  A    between atoms: C_16  and  N_59
REMARK   13  A    between atoms: N_30  and  C_31
REMARK                            x       y       z     vdW  Elec       q    Type
REMARK                         _______ _______ _______ _____ _____    ______ ____
ROOT
ATOM      1  N   UNL     1      -0.987   1.547  -2.731  0.00  0.00    -0.281 N 
ATOM      2  C   UNL     1      -1.847   2.104  -3.607  0.00  0.00    +0.201 C 
ATOM      3  O   UNL     1      -2.835   2.680  -3.204  0.00  0.00    -0.278 OA
ATOM      4  H   UNL     1      -0.197   1.087  -3.054  0.00  0.00    +0.155 HD
ENDROOT
BRANCH   1   9
ATOM      5  C   UNL     1      -0.467   1.126  -0.318  0.00  0.00    +0.091 A 
ATOM      6  C   UNL     1      -0.923   1.349   0.973  0.00  0.00    -0.015 A 
ATOM      7  C   UNL     1      -2.091   2.045   1.123  0.00  0.00    +0.079 A 
ATOM      8  S   UNL     1      -2.560   2.392  -0.562  0.00  0.00    -0.068 S 
ATOM      9  C   UNL     1      -1.231   1.633  -1.375  0.00  0.00    +0.087 A 
ATOM     10  C   UNL     1      -0.158   0.843   2.168  0.00  0.00    +0.046 C 
BRANCH   7  11
ATOM     11  C   UNL     1      -2.785   2.412   2.359  0.00  0.00    +0.251 C 
ATOM     12  O   UNL     1      -2.319   2.090   3.437  0.00  0.00    -0.270 OA
ATOM     13  N   UNL     1      -3.938   3.107   2.304  0.00  0.00    -0.314 N 
ATOM     14  C   UNL     1      -4.632   3.474   3.541  0.00  0.00    +0.128 C 
ATOM     15  H   UNL     1      -4.309   3.364   1.446  0.00  0.00    +0.149 HD
ENDBRANCH   7  11
BRANCH   5  16
ATOM     16  C   UNL     1       0.777   0.389  -0.566  0.00  0.00    +0.342 C 
ATOM     17  O   UNL     1       0.751  -0.819  -0.705  0.00  0.00    -0.245 OA
BRANCH  16  18
ATOM     18  O   UNL     1       1.949   1.052  -0.647  0.00  0.00    -0.461 OA
BRANCH  18  20
ATOM     19  C   UNL     1       4.361   1.177  -0.958  0.00  0.00    +0.048 C 
ATOM     20  C   UNL     1       3.138   0.259  -0.901  0.00  0.00    +0.229 C 
ENDBRANCH  18  20
ENDBRANCH  16  18
ENDBRANCH   5  16
ENDBRANCH   1   9
BRANCH   2  21
ATOM     21  C   UNL     1      -1.582   2.010  -5.087  0.00  0.00    +0.019 C 
BRANCH  21  23
ATOM     22  C   UNL     1      -3.936   1.988  -5.652  0.00  0.00    -0.095 C 
ATOM     23  N   UNL     1      -2.660   2.716  -5.811  0.00  0.00    +0.386 N 
ATOM     24  H   UNL     1      -2.763   3.660  -5.418  0.00  0.00    -0.081 HD
BRANCH  23  25
ATOM     25  C   UNL     1      -2.317   2.828  -7.245  0.00  0.00    -0.030 C 
BRANCH  25  26
ATOM     26  C   UNL     1      -1.288   3.946  -7.417  0.00  0.00    +0.194 C 
ATOM     27  C   UNL     1      -0.892   4.062  -8.895  0.00  0.00    +0.271 C 
ATOM     28  O   UNL     1       0.060   5.124  -9.023  0.00  0.00    -0.485 OA
ATOM     29  C   UNL     1      -0.233   6.287  -8.380  0.00  0.00    +0.162 A 
ATOM     30  C   UNL     1       0.436   7.449  -8.737  0.00  0.00    +0.049 A 
ATOM     31  C   UNL     1       0.154   8.637  -8.089  0.00  0.00    +0.004 A 
ATOM     32  C   UNL     1      -0.794   8.671  -7.083  0.00  0.00    +0.004 A 
ATOM     33  C   UNL     1      -1.464   7.517  -6.723  0.00  0.00    +0.049 A 
ATOM     34  C   UNL     1      -1.187   6.322  -7.370  0.00  0.00    +0.162 A 
ATOM     35  O   UNL     1      -1.857   5.194  -7.007  0.00  0.00    -0.484 OA
ENDBRANCH  25  26
ENDBRANCH  23  25
ENDBRANCH  21  23
ENDBRANCH   2  21
TORSDOF 9
