REMARK  Name = ZINC03764673
REMARK  10 active torsions:
REMARK  status: ('A' for Active; 'I' for Inactive)
REMARK    1  A    between atoms: C_1  and  C_2
REMARK    2  A    between atoms: C_5  and  N_9
REMARK    3  A    between atoms: C_6  and  C_8
REMARK    4  A    between atoms: C_10  and  C_12
REMARK    5  A    between atoms: C_18  and  C_19
REMARK    6  A    between atoms: C_19  and  O_21
REMARK    7  A    between atoms: O_21  and  C_22
REMARK    8  A    between atoms: C_24  and  N_35
REMARK    9  A    between atoms: C_25  and  C_33
REMARK   10  A    between atoms: C_26  and  C_28
REMARK                            x       y       z     vdW  Elec       q    Type
REMARK                         _______ _______ _______ _____ _____    ______ ____
ROOT
ATOM      1  C   UNL     1      -3.626  -1.011  -0.195  0.00  0.00    +0.058 C 
ATOM      2  C   UNL     1      -3.632  -2.363  -0.307  0.00  0.00    +0.099 A 
ATOM      3  N   UNL     1      -4.776  -3.130  -0.408  0.00  0.00    -0.257 N 
ATOM      4  C   UNL     1      -4.628  -4.467  -0.506  0.00  0.00    +0.272 A 
ATOM      5  O   UNL     1      -5.595  -5.197  -0.603  0.00  0.00    -0.266 OA
ATOM      6  C   UNL     1      -3.254  -5.020  -0.492  0.00  0.00    +0.086 A 
ATOM      7  C   UNL     1      -2.842  -6.312  -0.576  0.00  0.00    +0.112 C 
ATOM      8  S   UNL     1      -2.285  -3.529  -0.336  0.00  0.00    -0.065 S 
ATOM      9  C   UNL     1      -6.024  -2.496  -0.410  0.00  0.00    +0.119 C 
ATOM     10  C   UNL     1      -6.186  -1.159  -0.312  0.00  0.00    +0.080 C 
ATOM     11  C   UNL     1      -4.955  -0.283  -0.192  0.00  0.00    +0.107 C 
ENDROOT
BRANCH  11  12
ATOM     12  C   UNL     1      -4.961   0.691  -1.342  0.00  0.00    +0.003 A 
ATOM     13  C   UNL     1      -5.096   2.040  -1.318  0.00  0.00    +0.012 A 
ATOM     14  C   UNL     1      -5.071   2.737  -2.511  0.00  0.00    +0.008 A 
ATOM     15  C   UNL     1      -4.911   2.053  -3.670  0.00  0.00    +0.045 A 
ATOM     16  S   UNL     1      -4.783   0.369  -3.089  0.00  0.00    -0.101 S 
ENDBRANCH  11  12
BRANCH   1  18
ATOM     17  N   UNL     1      -2.427   1.042   0.015  0.00  0.00    -0.281 N 
ATOM     18  C   UNL     1      -2.414  -0.302  -0.090  0.00  0.00    +0.248 C 
ATOM     19  O   UNL     1      -1.354  -0.903  -0.093  0.00  0.00    -0.270 OA
ATOM     20  H   UNL     1      -3.270   1.514   0.100  0.00  0.00    +0.155 HD
BRANCH  17  25
ATOM     21  C   UNL     1       2.446   3.944  -0.056  0.00  0.00    +0.044 C 
ATOM     22  C   UNL     1       1.152   3.171  -0.034  0.00  0.00    -0.050 A 
ATOM     23  C   UNL     1       1.082   1.926  -0.632  0.00  0.00    +0.005 A 
ATOM     24  C   UNL     1      -0.102   1.216  -0.614  0.00  0.00    +0.024 A 
ATOM     25  C   UNL     1      -1.225   1.756   0.001  0.00  0.00    +0.037 A 
ATOM     26  C   UNL     1      -1.149   3.004   0.605  0.00  0.00    -0.029 A 
ATOM     27  C   UNL     1       0.038   3.709   0.583  0.00  0.00    +0.008 A 
ATOM     28  C   UNL     1      -2.363   3.591   1.277  0.00  0.00    +0.045 C 
ENDBRANCH  17  25
ENDBRANCH   1  18
BRANCH   9  29
ATOM     29  N   UNL     1      -7.148  -3.279  -0.518  0.00  0.00    -0.343 N 
ATOM     30  H   UNL     1      -7.921  -2.953  -1.005  0.00  0.00    +0.144 HD
ATOM     31  H   UNL     1      -7.169  -4.157  -0.107  0.00  0.00    +0.144 HD
ENDBRANCH   9  29
BRANCH   7  32
ATOM     32  C   UNL     1      -1.414  -6.628  -0.541  0.00  0.00    +0.333 C 
ATOM     33  O   UNL     1      -0.596  -5.735  -0.438  0.00  0.00    -0.246 OA
BRANCH  32  34
ATOM     34  O   UNL     1      -1.006  -7.911  -0.624  0.00  0.00    -0.465 OA
ATOM     35  C   UNL     1       0.403  -8.147  -0.584  0.00  0.00    +0.280 C 
ENDBRANCH  32  34
ENDBRANCH   7  32
BRANCH  10  36
ATOM     36  C   UNL     1      -7.495  -0.580  -0.320  0.00  0.00    +0.099 C 
ATOM     37  N   UNL     1      -8.534  -0.120  -0.326  0.00  0.00    -0.191 NA
ENDBRANCH  10  36
TORSDOF 7
