REMARK  Name = ZINC09144930
REMARK  9 active torsions:
REMARK  status: ('A' for Active; 'I' for Inactive)
REMARK    1  A    between atoms: C_1  and  C_2
REMARK    2  A    between atoms: C_2  and  C_3
REMARK    3  A    between atoms: C_5  and  C_20
REMARK    4  A    between atoms: C_6  and  O_19
REMARK    5  A    between atoms: C_8  and  O_9
REMARK    6  A    between atoms: O_9  and  C_10
REMARK    7  A    between atoms: C_10  and  C_11
REMARK    8  A    between atoms: C_21  and  C_26
REMARK    9  A    between atoms: C_28  and  C_31
REMARK                            x       y       z     vdW  Elec       q    Type
REMARK                         _______ _______ _______ _____ _____    ______ ____
ROOT
ATOM      1  C   UNL     1      -1.155   0.097   0.614  0.00  0.00    -0.005 A 
ATOM      2  C   UNL     1      -1.858  -0.422   1.681  0.00  0.00    +0.021 A 
ATOM      3  C   UNL     1      -3.127  -0.964   1.482  0.00  0.00    +0.045 A 
ATOM      4  C   UNL     1      -3.683  -0.978   0.198  0.00  0.00    +0.130 A 
ATOM      5  C   UNL     1      -2.970  -0.454  -0.867  0.00  0.00    +0.092 A 
ATOM      6  C   UNL     1      -1.710   0.088  -0.659  0.00  0.00    +0.128 A 
ENDROOT
BRANCH   3   7
ATOM      7  C   UNL     1      -3.884  -1.523   2.627  0.00  0.00    +0.106 A 
ATOM      8  C   UNL     1      -3.416  -2.544   3.565  0.00  0.00    +0.052 A 
ATOM      9  C   UNL     1      -4.432  -2.756   4.453  0.00  0.00    +0.116 A 
ATOM     10  N   UNL     1      -5.455  -1.948   4.117  0.00  0.00    -0.283 N 
ATOM     11  H   UNL     1      -6.304  -1.897   4.583  0.00  0.00    +0.188 HD
ATOM     12  N   UNL     1      -5.103  -1.192   2.995  0.00  0.00    -0.173 NA
BRANCH   8  13
ATOM     13  C   UNL     1      -2.099  -3.215   3.554  0.00  0.00    +0.112 A 
ATOM     14  N   UNL     1      -1.581  -4.067   4.429  0.00  0.00    -0.244 NA
ATOM     15  C   UNL     1      -0.380  -4.572   4.258  0.00  0.00    +0.046 A 
ATOM     16  C   UNL     1       0.353  -4.223   3.170  0.00  0.00    +0.070 A 
ATOM     17  S   UNL     1      -0.778  -3.104   2.354  0.00  0.00    -0.075 S 
ATOM     18  C   UNL     1       0.182  -5.538   5.269  0.00  0.00    +0.066 C 
ENDBRANCH   8  13
ENDBRANCH   3   7
BRANCH   1  20
ATOM     19  C   UNL     1       0.100   2.195   1.030  0.00  0.00    +0.009 C 
ATOM     20  C   UNL     1       0.217   0.682   0.832  0.00  0.00    +0.035 C 
ENDBRANCH   1  20
BRANCH   4  21
ATOM     21  O   UNL     1      -4.919  -1.504  -0.003  0.00  0.00    -0.506 OA
ATOM     22  H   UNL     1      -5.632  -0.852   0.018  0.00  0.00    +0.292 HD
ENDBRANCH   4  21
BRANCH   6  23
ATOM     23  O   UNL     1      -1.015   0.607  -1.704  0.00  0.00    -0.487 OA
BRANCH  23  24
ATOM     24  C   UNL     1      -1.645   0.565  -2.987  0.00  0.00    +0.267 C 
BRANCH  24  25
ATOM     25  C   UNL     1      -0.731   1.180  -4.015  0.00  0.00    +0.026 A 
ATOM     26  C   UNL     1      -0.799   2.537  -4.277  0.00  0.00    +0.049 A 
ATOM     27  C   UNL     1       0.040   3.101  -5.222  0.00  0.00    +0.020 A 
ATOM     28  C   UNL     1       0.945   2.309  -5.904  0.00  0.00    +0.003 A 
ATOM     29  C   UNL     1       1.013   0.954  -5.642  0.00  0.00    +0.020 A 
ATOM     30  C   UNL     1       0.179   0.390  -4.694  0.00  0.00    +0.049 A 
ATOM     31 CL   UNL     1       0.270  -1.312  -4.360  0.00  0.00    -0.083 Cl
ATOM     32 CL   UNL     1      -1.936   3.531  -3.422  0.00  0.00    -0.083 Cl
ENDBRANCH  24  25
ENDBRANCH  23  24
ENDBRANCH   6  23
TORSDOF 7
