REMARK  Name = ZINC48553690
REMARK  6 active torsions:
REMARK  status: ('A' for Active; 'I' for Inactive)
REMARK    1  A    between atoms: C_1  and  C_2
REMARK    2  A    between atoms: C_5  and  N_18
REMARK    3  A    between atoms: C_6  and  O_8
REMARK    4  A    between atoms: O_8  and  C_9
REMARK    5  A    between atoms: C_9  and  C_11
REMARK    6  A    between atoms: C_12  and  C_17
REMARK                            x       y       z     vdW  Elec       q    Type
REMARK                         _______ _______ _______ _____ _____    ______ ____
ROOT
ATOM      1  C   UNL     1       0.280   1.486  -0.009  0.00  0.00    +0.044 C 
ATOM      2  C   UNL     1       0.145  -0.015  -0.009  0.00  0.00    -0.047 A 
ATOM      3  C   UNL     1       0.004  -0.696  -1.204  0.00  0.00    +0.006 A 
ATOM      4  C   UNL     1      -0.120  -2.073  -1.207  0.00  0.00    +0.037 A 
ATOM      5  C   UNL     1      -0.105  -2.772  -0.015  0.00  0.00    +0.168 A 
ATOM      6  C   UNL     1       0.036  -2.091   1.185  0.00  0.00    +0.162 A 
ATOM      7  C   UNL     1       0.166  -0.709   1.185  0.00  0.00    +0.052 A 
ENDROOT
BRANCH   5   8
ATOM      8  N   UNL     1      -0.240  -4.245  -0.019  0.00  0.00    +0.060 N 
ATOM      9  O   UNL     1      -0.363  -4.838  -1.066  0.00  0.00    -0.126 OA
ATOM     10  O   UNL     1      -0.226  -4.857   1.024  0.00  0.00    -0.126 OA
ENDBRANCH   5   8
BRANCH   6  11
ATOM     11  O   UNL     1       0.051  -2.776   2.358  0.00  0.00    -0.418 OA
BRANCH  11  12
ATOM     12  C   UNL     1       1.232  -3.263   2.793  0.00  0.00    +0.380 C 
ATOM     13  O   UNL     1       2.255  -3.005   2.188  0.00  0.00    -0.241 OA
BRANCH  12  14
ATOM     14  C   UNL     1       1.281  -4.102   3.990  0.00  0.00    +0.216 A 
ATOM     15  C   UNL     1       2.405  -4.654   4.539  0.00  0.00    +0.003 A 
ATOM     16  C   UNL     1       1.991  -5.374   5.669  0.00  0.00    +0.061 A 
ATOM     17  C   UNL     1       0.648  -5.234   5.761  0.00  0.00    +0.171 A 
ATOM     18  O   UNL     1       0.225  -4.463   4.750  0.00  0.00    -0.441 OA
ATOM     19 BR   UNL     1      -0.450  -5.996   7.099  0.00  0.00    -0.008 Br
ATOM     20  C   UNL     1       3.816  -4.515   4.029  0.00  0.00    +0.048 C 
ENDBRANCH  12  14
ENDBRANCH  11  12
ENDBRANCH   6  11
TORSDOF 4
