REMARK  Name = ZINC06409948
REMARK  14 active torsions:
REMARK  status: ('A' for Active; 'I' for Inactive)
REMARK    1  A    between atoms: C_1  and  C_2
REMARK    2  A    between atoms: C_7  and  C_14
REMARK    3  A    between atoms: C_14  and  C_16
REMARK    4  A    between atoms: C_14  and  N_70
REMARK    5  A    between atoms: N_20  and  C_21
REMARK    6  A    between atoms: C_21  and  C_22
REMARK    7  A    between atoms: C_21  and  C_23
REMARK    8  A    between atoms: C_21  and  C_24
REMARK    9  A    between atoms: C_25  and  C_26
REMARK   10  A    between atoms: C_25  and  N_70
REMARK   11  A    between atoms: C_29  and  O_32
REMARK   12  A    between atoms: O_32  and  C_33
REMARK   13  A    between atoms: C_34  and  C_35
REMARK   14  A    between atoms: C_34  and  N_70
REMARK                            x       y       z     vdW  Elec       q    Type
REMARK                         _______ _______ _______ _____ _____    ______ ____
ROOT
ATOM      1  C   UNL     1      -4.223   1.141   0.513  0.00  0.00    +0.040 C 
ENDROOT
BRANCH   1   8
ATOM      2  C   UNL     1       2.375   5.417   1.859  0.00  0.00    +0.044 C 
ATOM      3  C   UNL     1       1.264   4.422   1.639  0.00  0.00    -0.048 A 
ATOM      4  C   UNL     1       1.532   3.062   1.724  0.00  0.00    +0.004 A 
ATOM      5  C   UNL     1       0.540   2.144   1.528  0.00  0.00    +0.010 A 
ATOM      6  C   UNL     1      -0.757   2.577   1.233  0.00  0.00    -0.001 A 
ATOM      7  C   UNL     1      -1.845   1.621   1.020  0.00  0.00    +0.017 A 
ATOM      8  C   UNL     1      -3.082   2.099   0.742  0.00  0.00    +0.011 A 
ATOM      9  C   UNL     1      -3.306   3.490   0.664  0.00  0.00    +0.251 A 
ATOM     10  O   UNL     1      -4.426   3.899   0.412  0.00  0.00    -0.268 OA
ATOM     11  N   UNL     1      -2.314   4.377   0.862  0.00  0.00    -0.322 N 
ATOM     12  H   UNL     1      -2.503   5.326   0.802  0.00  0.00    +0.169 HD
ATOM     13  C   UNL     1      -1.034   3.955   1.149  0.00  0.00    +0.049 A 
ATOM     14  C   UNL     1      -0.007   4.871   1.353  0.00  0.00    +0.029 A 
ENDBRANCH   1   8
BRANCH   1  15
ATOM     15  C   UNL     1      -4.702   1.260  -0.911  0.00  0.00    +0.143 A 
ATOM     16  N   UNL     1      -5.452   2.213  -1.408  0.00  0.00    -0.115 NA
ATOM     17  N   UNL     1      -5.642   1.960  -2.656  0.00  0.00    -0.023 NA
ATOM     18  N   UNL     1      -5.032   0.870  -2.969  0.00  0.00    -0.043 NA
ATOM     19  N   UNL     1      -4.436   0.411  -1.921  0.00  0.00    -0.225 N 
BRANCH  19  20
ATOM     20  C   UNL     1      -3.626  -0.807  -1.843  0.00  0.00    +0.059 C 
ATOM     21  C   UNL     1      -4.284  -1.796  -0.879  0.00  0.00    +0.036 C 
ATOM     22  C   UNL     1      -3.524  -1.441  -3.232  0.00  0.00    +0.036 C 
ATOM     23  C   UNL     1      -2.225  -0.457  -1.339  0.00  0.00    +0.036 C 
ENDBRANCH  19  20
ENDBRANCH   1  15
BRANCH   1  24
ATOM     24  N   UNL     1      -5.339   1.490   1.419  0.00  0.00    +0.397 N 
ATOM     25  H   UNL     1      -5.816   2.323   1.055  0.00  0.00    -0.079 HD
BRANCH  24  26
ATOM     26  C   UNL     1      -6.306   0.373   1.482  0.00  0.00    -0.041 C 
BRANCH  26  27
ATOM     27  C   UNL     1      -7.303   0.538   0.364  0.00  0.00    -0.064 A 
ATOM     28  C   UNL     1      -8.375   1.397   0.517  0.00  0.00    +0.005 A 
ATOM     29  C   UNL     1      -9.287   1.554  -0.509  0.00  0.00    +0.046 A 
ATOM     30  C   UNL     1      -9.133   0.840  -1.688  0.00  0.00    +0.120 A 
ATOM     31  C   UNL     1      -8.059  -0.025  -1.837  0.00  0.00    +0.046 A 
ATOM     32  C   UNL     1      -7.146  -0.175  -0.811  0.00  0.00    +0.005 A 
BRANCH  30  33
ATOM     33  O   UNL     1     -10.032   0.989  -2.697  0.00  0.00    -0.495 OA
ATOM     34  C   UNL     1     -11.048   1.979  -2.519  0.00  0.00    +0.277 C 
ENDBRANCH  30  33
ENDBRANCH  26  27
ENDBRANCH  24  26
BRANCH  24  35
ATOM     35  C   UNL     1      -4.819   1.785   2.770  0.00  0.00    -0.001 C 
BRANCH  35  36
ATOM     36  C   UNL     1      -5.916   2.424   3.582  0.00  0.00    +0.089 A 
ATOM     37  C   UNL     1      -6.734   1.787   4.439  0.00  0.00    +0.042 A 
ATOM     38  C   UNL     1      -7.604   2.764   4.978  0.00  0.00    +0.041 A 
ATOM     39  C   UNL     1      -7.265   3.939   4.418  0.00  0.00    +0.195 A 
ATOM     40  O   UNL     1      -6.238   3.728   3.578  0.00  0.00    -0.470 OA
ENDBRANCH  35  36
ENDBRANCH  24  35
ENDBRANCH   1  24
TORSDOF 9
