REMARK  Name = ZINC36307267
REMARK  14 active torsions:
REMARK  status: ('A' for Active; 'I' for Inactive)
REMARK    1  A    between atoms: C_1  and  N_2
REMARK    2  A    between atoms: C_3  and  O_31
REMARK    3  A    between atoms: C_4  and  C_13
REMARK    4  A    between atoms: C_5  and  C_7
REMARK    5  A    between atoms: C_13  and  N_14
REMARK    6  A    between atoms: N_14  and  C_15
REMARK    7  A    between atoms: N_14  and  C_19
REMARK    8  A    between atoms: C_15  and  C_16
REMARK    9  A    between atoms: C_19  and  C_20
REMARK   10  A    between atoms: C_20  and  C_22
REMARK   11  A    between atoms: C_20  and  O_30
REMARK   12  A    between atoms: C_22  and  O_23
REMARK   13  A    between atoms: O_23  and  C_24
REMARK   14  A    between atoms: O_31  and  C_32
REMARK                            x       y       z     vdW  Elec       q    Type
REMARK                         _______ _______ _______ _____ _____    ______ ____
ROOT
ATOM      1  C   UNL     1       0.002  -6.358   2.557  0.00  0.00    +0.176 C 
ATOM      2  N   UNL     1      -0.330  -5.904   1.204  0.00  0.00    -0.235 N 
ATOM      3  C   UNL     1       0.059  -4.733   0.637  0.00  0.00    +0.221 A 
ATOM      4  C   UNL     1      -0.453  -4.691  -0.619  0.00  0.00    +0.025 A 
ATOM      5  C   UNL     1      -1.180  -5.878  -0.827  0.00  0.00    +0.098 A 
ATOM      6  N   UNL     1      -1.099  -6.606   0.266  0.00  0.00    -0.168 NA
ENDROOT
BRANCH   5   7
ATOM      7  C   UNL     1      -1.907  -6.248  -2.067  0.00  0.00    +0.002 A 
ATOM      8  C   UNL     1      -2.677  -5.300  -2.736  0.00  0.00    +0.010 A 
ATOM      9  C   UNL     1      -3.351  -5.649  -3.889  0.00  0.00    +0.001 A 
ATOM     10  C   UNL     1      -3.262  -6.939  -4.381  0.00  0.00    +0.000 A 
ATOM     11  C   UNL     1      -2.499  -7.885  -3.721  0.00  0.00    +0.001 A 
ATOM     12  C   UNL     1      -1.816  -7.545  -2.570  0.00  0.00    +0.010 A 
ENDBRANCH   5   7
BRANCH   4  13
ATOM     13  C   UNL     1      -0.275  -3.573  -1.614  0.00  0.00    -0.035 C 
BRANCH  13  14
ATOM     14  N   UNL     1       1.008  -3.737  -2.311  0.00  0.00    +0.384 N 
ATOM     15  H   UNL     1       1.752  -3.804  -1.633  0.00  0.00    -0.081 HD
BRANCH  14  16
ATOM     16  C   UNL     1       1.242  -2.579  -3.183  0.00  0.00    -0.075 C 
BRANCH  16  17
ATOM     17  C   UNL     1       1.425  -1.324  -2.327  0.00  0.00    -0.028 C 
ATOM     18  C   UNL     1       2.798  -0.650  -2.344  0.00  0.00    +0.002 C 
ATOM     19  C   UNL     1       1.615   0.007  -3.057  0.00  0.00    +0.002 C 
ENDBRANCH  16  17
ENDBRANCH  14  16
BRANCH  14  20
ATOM     20  C   UNL     1       0.971  -4.961  -3.122  0.00  0.00    -0.043 C 
BRANCH  20  21
ATOM     21  C   UNL     1       2.346  -5.199  -3.748  0.00  0.00    +0.135 C 
BRANCH  21  22
ATOM     22  O   UNL     1       3.302  -5.457  -2.718  0.00  0.00    -0.390 OA
ATOM     23  H   UNL     1       3.097  -6.231  -2.176  0.00  0.00    +0.210 HD
ENDBRANCH  21  22
BRANCH  21  24
ATOM     24  C   UNL     1       2.276  -6.402  -4.691  0.00  0.00    +0.258 C 
BRANCH  24  25
ATOM     25  O   UNL     1       3.527  -6.554  -5.364  0.00  0.00    -0.489 OA
BRANCH  25  26
ATOM     26  C   UNL     1       3.634  -7.584  -6.245  0.00  0.00    +0.121 A 
ATOM     27  C   UNL     1       2.554  -8.428  -6.460  0.00  0.00    +0.045 A 
ATOM     28  C   UNL     1       2.665  -9.474  -7.355  0.00  0.00    +0.004 A 
ATOM     29  C   UNL     1       3.850  -9.680  -8.037  0.00  0.00    +0.000 A 
ATOM     30  C   UNL     1       4.928  -8.840  -7.823  0.00  0.00    +0.004 A 
ATOM     31  C   UNL     1       4.820  -7.789  -6.933  0.00  0.00    +0.045 A 
ENDBRANCH  25  26
ENDBRANCH  24  25
ENDBRANCH  21  24
ENDBRANCH  20  21
ENDBRANCH  14  20
ENDBRANCH  13  14
ENDBRANCH   4  13
BRANCH   3  32
ATOM     32  O   UNL     1       0.823  -3.776   1.223  0.00  0.00    -0.438 OA
BRANCH  32  33
ATOM     33  C   UNL     1       0.196  -2.823   1.961  0.00  0.00    +0.133 A 
ATOM     34  C   UNL     1      -1.169  -2.910   2.194  0.00  0.00    +0.046 A 
ATOM     35  C   UNL     1      -1.806  -1.941   2.944  0.00  0.00    +0.006 A 
ATOM     36  C   UNL     1      -1.084  -0.883   3.465  0.00  0.00    +0.038 A 
ATOM     37  C   UNL     1       0.279  -0.792   3.236  0.00  0.00    +0.127 A 
ATOM     38  C   UNL     1       0.921  -1.765   2.489  0.00  0.00    +0.084 A 
ATOM     39  F   UNL     1       0.982   0.242   3.745  0.00  0.00    -0.205 F 
ENDBRANCH  32  33
ENDBRANCH   3  32
TORSDOF 13
