REMARK  Name = ZINC48909563
REMARK  5 active torsions:
REMARK  status: ('A' for Active; 'I' for Inactive)
REMARK    1  A    between atoms: C_1  and  C_2
REMARK    2  A    between atoms: C_6  and  C_20
REMARK    3  A    between atoms: C_8  and  N_11
REMARK    4  A    between atoms: C_20  and  C_21
REMARK    5  A    between atoms: C_20  and  C_22
REMARK                            x       y       z     vdW  Elec       q    Type
REMARK                         _______ _______ _______ _____ _____    ______ ____
ROOT
ATOM      1  N   UNL     1       2.763  -0.519   2.499  0.00  0.00    -0.296 N 
ATOM      2  C   UNL     1       2.509   0.086   3.676  0.00  0.00    +0.306 C 
ATOM      3  O   UNL     1       1.775   1.055   3.716  0.00  0.00    -0.252 OA
ATOM      4  N   UNL     1       3.069  -0.382   4.809  0.00  0.00    -0.248 N 
ATOM      5  C   UNL     1       2.807   0.242   6.023  0.00  0.00    +0.165 A 
ATOM      6  N   UNL     1       2.043   1.287   6.257  0.00  0.00    -0.233 NA
ATOM      7  C   UNL     1       1.896   1.765   7.479  0.00  0.00    +0.120 A 
ATOM      8  C   UNL     1       2.566   1.131   8.473  0.00  0.00    +0.068 A 
ATOM      9  S   UNL     1       3.386  -0.159   7.552  0.00  0.00    -0.060 S 
ATOM     10  H   UNL     1       3.348  -1.292   2.467  0.00  0.00    +0.151 HD
ATOM     11  H   UNL     1       3.654  -1.155   4.777  0.00  0.00    +0.158 HD
ENDROOT
BRANCH   1  17
ATOM     12  C   UNL     1       0.055   1.507  -0.102  0.00  0.00    +0.007 C 
ATOM     13  C   UNL     1       0.095  -0.022  -0.147  0.00  0.00    -0.012 C 
ATOM     14  C   UNL     1       0.924  -0.474  -1.351  0.00  0.00    +0.004 C 
ATOM     15  C   UNL     1       2.348   0.070  -1.222  0.00  0.00    +0.006 C 
ATOM     16  C   UNL     1       2.984  -0.462   0.064  0.00  0.00    +0.012 C 
ATOM     17  C   UNL     1       2.155  -0.009   1.267  0.00  0.00    +0.078 C 
ATOM     18  C   UNL     1       0.730  -0.554   1.139  0.00  0.00    +0.026 C 
BRANCH  16  19
ATOM     19  C   UNL     1       4.408   0.082   0.192  0.00  0.00    -0.012 C 
ATOM     20  C   UNL     1       5.276  -0.490  -0.931  0.00  0.00    +0.007 C 
ATOM     21  C   UNL     1       4.382   1.608   0.089  0.00  0.00    +0.007 C 
ENDBRANCH  16  19
ENDBRANCH   1  17
TORSDOF 2
