REMARK  Name = ZINC66592001
REMARK  10 active torsions:
REMARK  status: ('A' for Active; 'I' for Inactive)
REMARK    1  A    between atoms: C_1  and  C_2
REMARK    2  A    between atoms: C_2  and  C_4
REMARK    3  A    between atoms: C_2  and  N_22
REMARK    4  A    between atoms: C_4  and  C_5
REMARK    5  A    between atoms: N_7  and  N_8
REMARK    6  A    between atoms: C_9  and  C_11
REMARK    7  A    between atoms: C_11  and  C_13
REMARK    8  A    between atoms: C_11  and  O_14
REMARK    9  A    between atoms: O_14  and  C_15
REMARK   10  A    between atoms: C_23  and  C_25
REMARK                            x       y       z     vdW  Elec       q    Type
REMARK                         _______ _______ _______ _____ _____    ______ ____
ROOT
ATOM      1  C   UNL     1       0.184  -1.961  -1.665  0.00  0.00    +0.231 C 
ATOM      2  O   UNL     1      -0.251  -2.557  -0.702  0.00  0.00    -0.274 OA
ATOM      3  N   UNL     1       0.775  -2.641  -2.667  0.00  0.00    -0.234 N 
ATOM      4  H   UNL     1       1.123  -2.165  -3.437  0.00  0.00    +0.173 HD
ENDROOT
BRANCH   3   5
ATOM      5  N   UNL     1       0.888  -4.036  -2.596  0.00  0.00    -0.231 N 
ATOM      6  C   UNL     1       1.479  -4.716  -3.599  0.00  0.00    +0.270 C 
ATOM      7  O   UNL     1       1.914  -4.120  -4.561  0.00  0.00    -0.270 OA
ATOM      8  H   UNL     1       0.540  -4.512  -1.826  0.00  0.00    +0.173 HD
BRANCH   6   9
ATOM      9  C   UNL     1       1.600  -6.216  -3.523  0.00  0.00    +0.257 C 
ATOM     10  C   UNL     1       0.205  -6.842  -3.554  0.00  0.00    +0.062 C 
BRANCH   9  11
ATOM     11  O   UNL     1       2.360  -6.689  -4.636  0.00  0.00    -0.480 OA
BRANCH  11  12
ATOM     12  C   UNL     1       3.002  -7.878  -4.485  0.00  0.00    +0.122 A 
ATOM     13  C   UNL     1       3.851  -8.340  -5.480  0.00  0.00    +0.048 A 
ATOM     14  C   UNL     1       4.503  -9.548  -5.324  0.00  0.00    +0.042 A 
ATOM     15  C   UNL     1       4.309 -10.297  -4.176  0.00  0.00    +0.124 A 
ATOM     16  C   UNL     1       3.462  -9.837  -3.183  0.00  0.00    +0.042 A 
ATOM     17  C   UNL     1       2.814  -8.627  -3.333  0.00  0.00    +0.048 A 
ATOM     18  F   UNL     1       4.947 -11.479  -4.026  0.00  0.00    -0.205 F 
ENDBRANCH  11  12
ENDBRANCH   9  11
ENDBRANCH   6   9
ENDBRANCH   3   5
BRANCH   1  19
ATOM     19  C   UNL     1       0.063  -0.461  -1.740  0.00  0.00    +0.119 C 
BRANCH  19  21
ATOM     20  C   UNL     1      -0.877   1.564  -0.618  0.00  0.00    +0.028 C 
ATOM     21  C   UNL     1      -0.642   0.058  -0.486  0.00  0.00    +0.079 C 
BRANCH  21  22
ATOM     22  N   UNL     1       0.194  -0.205   0.688  0.00  0.00    -0.312 N 
ATOM     23  C   UNL     1      -0.371  -0.316   1.907  0.00  0.00    +0.216 C 
ATOM     24  O   UNL     1      -1.572  -0.199   2.032  0.00  0.00    -0.276 OA
ATOM     25  H   UNL     1       1.154  -0.298   0.588  0.00  0.00    +0.149 HD
BRANCH  23  26
ATOM     26  C   UNL     1       0.489  -0.586   3.114  0.00  0.00    +0.075 C 
ATOM     27  C   UNL     1       1.229  -1.912   2.927  0.00  0.00    +0.013 C 
ATOM     28  C   UNL     1       2.103  -2.187   4.153  0.00  0.00    +0.001 C 
ATOM     29  C   UNL     1       1.220  -2.266   5.401  0.00  0.00    +0.000 C 
ATOM     30  C   UNL     1       0.480  -0.940   5.588  0.00  0.00    +0.001 C 
ATOM     31  C   UNL     1      -0.393  -0.666   4.362  0.00  0.00    +0.013 C 
ENDBRANCH  23  26
ENDBRANCH  21  22
ENDBRANCH  19  21
ENDBRANCH   1  19
TORSDOF 8
