REMARK  Name = ZINC01841849
REMARK  10 active torsions:
REMARK  status: ('A' for Active; 'I' for Inactive)
REMARK    1  A    between atoms: C_1  and  C_2
REMARK    2  A    between atoms: C_2  and  O_3
REMARK    3  A    between atoms: O_3  and  C_4
REMARK    4  A    between atoms: C_7  and  N_10
REMARK    5  A    between atoms: C_11  and  C_36
REMARK    6  A    between atoms: C_14  and  S_15
REMARK    7  A    between atoms: S_15  and  C_16
REMARK    8  A    between atoms: C_16  and  C_17
REMARK    9  A    between atoms: N_19  and  N_20
REMARK   10  A    between atoms: C_21  and  C_22
REMARK                            x       y       z     vdW  Elec       q    Type
REMARK                         _______ _______ _______ _____ _____    ______ ____
ROOT
ATOM      1  S   UNL     1      -1.647  -6.491  -1.795  0.00  0.00    -0.076 S 
ENDROOT
BRANCH   1   6
ATOM      2  N   UNL     1       1.098  -5.942  -1.772  0.00  0.00    -0.270 N 
ATOM      3  C   UNL     1       2.257  -6.674  -1.908  0.00  0.00    +0.169 A 
ATOM      4  N   UNL     1       1.903  -7.923  -2.101  0.00  0.00    -0.128 NA
ATOM      5  N   UNL     1       0.621  -8.023  -2.094  0.00  0.00    -0.122 NA
ATOM      6  C   UNL     1       0.077  -6.844  -1.891  0.00  0.00    +0.197 A 
BRANCH   3   7
ATOM      7  C   UNL     1       3.638  -6.151  -1.850  0.00  0.00    +0.020 A 
ATOM      8  C   UNL     1       3.892  -4.905  -1.275  0.00  0.00    +0.013 A 
ATOM      9  C   UNL     1       5.184  -4.423  -1.223  0.00  0.00    +0.021 A 
ATOM     10  C   UNL     1       6.227  -5.173  -1.739  0.00  0.00    +0.041 A 
ATOM     11  C   UNL     1       5.981  -6.410  -2.310  0.00  0.00    +0.021 A 
ATOM     12  C   UNL     1       4.695  -6.905  -2.363  0.00  0.00    +0.013 A 
ATOM     13 CL   UNL     1       7.849  -4.559  -1.670  0.00  0.00    -0.084 Cl
ENDBRANCH   3   7
BRANCH   2  17
ATOM     14  C   UNL     1       0.772  -1.835  -1.113  0.00  0.00    +0.121 A 
ATOM     15  C   UNL     1       0.369  -2.729  -0.132  0.00  0.00    +0.047 A 
ATOM     16  C   UNL     1       0.476  -4.088  -0.350  0.00  0.00    +0.030 A 
ATOM     17  C   UNL     1       0.988  -4.561  -1.550  0.00  0.00    +0.051 A 
ATOM     18  C   UNL     1       1.392  -3.666  -2.532  0.00  0.00    +0.030 A 
ATOM     19  C   UNL     1       1.279  -2.307  -2.316  0.00  0.00    +0.047 A 
BRANCH  14  20
ATOM     20  O   UNL     1       0.666  -0.497  -0.899  0.00  0.00    -0.492 OA
BRANCH  20  22
ATOM     21  C   UNL     1       0.092   1.446   0.418  0.00  0.00    +0.048 C 
ATOM     22  C   UNL     1       0.136  -0.082   0.362  0.00  0.00    +0.225 C 
ENDBRANCH  20  22
ENDBRANCH  14  20
ENDBRANCH   2  17
ENDBRANCH   1   6
BRANCH   1  23
ATOM     23  C   UNL     1      -2.439  -8.105  -2.033  0.00  0.00    +0.174 C 
BRANCH  23  24
ATOM     24  C   UNL     1      -3.936  -7.944  -1.973  0.00  0.00    +0.242 C 
ATOM     25  O   UNL     1      -4.421  -6.847  -1.787  0.00  0.00    -0.273 OA
ATOM     26  N   UNL     1      -4.737  -9.017  -2.125  0.00  0.00    -0.206 N 
ATOM     27  H   UNL     1      -4.349  -9.894  -2.273  0.00  0.00    +0.177 HD
BRANCH  26  28
ATOM     28  N   UNL     1      -6.128  -8.867  -2.068  0.00  0.00    -0.188 NA
ATOM     29  C   UNL     1      -6.902  -9.904  -2.215  0.00  0.00    +0.139 C 
BRANCH  29  30
ATOM     30  C   UNL     1      -8.358  -9.747  -2.156  0.00  0.00    +0.010 A 
ATOM     31  C   UNL     1      -9.199 -10.877  -2.199  0.00  0.00    -0.009 A 
ATOM     32  C   UNL     1      -8.668 -12.175  -2.297  0.00  0.00    +0.009 A 
ATOM     33  C   UNL     1      -9.508 -13.244  -2.336  0.00  0.00    +0.001 A 
ATOM     34  C   UNL     1     -10.892 -13.089  -2.280  0.00  0.00    +0.001 A 
ATOM     35  C   UNL     1     -11.469 -11.863  -2.183  0.00  0.00    +0.008 A 
ATOM     36  C   UNL     1     -10.653 -10.712  -2.139  0.00  0.00    -0.017 A 
ATOM     37  C   UNL     1     -11.214  -9.438  -2.040  0.00  0.00    +0.017 A 
ATOM     38  C   UNL     1     -10.389  -8.314  -1.998  0.00  0.00    -0.017 A 
ATOM     39  C   UNL     1      -8.933  -8.463  -2.051  0.00  0.00    -0.009 A 
ATOM     40  C   UNL     1      -8.130  -7.310  -2.000  0.00  0.00    +0.009 A 
ATOM     41  C   UNL     1      -8.717  -6.088  -1.898  0.00  0.00    +0.001 A 
ATOM     42  C   UNL     1     -10.102  -5.943  -1.842  0.00  0.00    +0.001 A 
ATOM     43  C   UNL     1     -10.934  -7.016  -1.898  0.00  0.00    +0.008 A 
ENDBRANCH  29  30
ENDBRANCH  26  28
ENDBRANCH  23  24
ENDBRANCH   1  23
TORSDOF 9
