REMARK  Name = ZINC43619438
REMARK  10 active torsions:
REMARK  status: ('A' for Active; 'I' for Inactive)
REMARK    1  A    between atoms: C_1  and  C_2
REMARK    2  A    between atoms: C_2  and  C_40
REMARK    3  A    between atoms: C_7  and  C_11
REMARK    4  A    between atoms: C_11  and  N_12
REMARK    5  A    between atoms: C_14  and  S_33
REMARK    6  A    between atoms: C_17  and  C_19
REMARK    7  A    between atoms: N_21  and  C_22
REMARK    8  A    between atoms: N_21  and  C_23
REMARK    9  A    between atoms: C_23  and  C_24
REMARK   10  A    between atoms: S_33  and  C_34
REMARK                            x       y       z     vdW  Elec       q    Type
REMARK                         _______ _______ _______ _____ _____    ______ ____
ROOT
ATOM      1  N   UNL     1       1.353  -3.159   3.285  0.00  0.00    +0.391 N 
ATOM      2  C   UNL     1       2.110  -4.173   2.521  0.00  0.00    -0.063 C 
ATOM      3  C   UNL     1       2.750  -5.085   3.598  0.00  0.00    +0.037 C 
ATOM      4  C   UNL     1       1.629  -5.137   4.670  0.00  0.00    +0.006 C 
ATOM      5  C   UNL     1       1.024  -3.718   4.609  0.00  0.00    +0.021 C 
ATOM      6  H   UNL     1       1.917  -2.330   3.398  0.00  0.00    -0.080 HD
ENDROOT
BRANCH   5   7
ATOM      7  C   UNL     1       1.622  -2.859   5.692  0.00  0.00    +0.202 C 
ATOM      8  O   UNL     1       2.264  -1.872   5.399  0.00  0.00    -0.277 OA
ATOM      9  N   UNL     1       1.445  -3.186   6.988  0.00  0.00    -0.301 N 
ATOM     10  C   UNL     1       0.670  -4.378   7.343  0.00  0.00    +0.132 C 
BRANCH   9  11
ATOM     11  C   UNL     1       2.027  -2.350   8.041  0.00  0.00    +0.149 C 
BRANCH  11  12
ATOM     12  C   UNL     1       1.040  -1.282   8.437  0.00  0.00    +0.008 A 
ATOM     13  C   UNL     1       0.099  -1.334   9.390  0.00  0.00    +0.021 A 
ATOM     14  C   UNL     1      -0.756  -0.177   9.611  0.00  0.00    -0.011 A 
ATOM     15  C   UNL     1      -1.801  -0.015  10.551  0.00  0.00    +0.009 A 
ATOM     16  C   UNL     1      -2.503   1.147  10.616  0.00  0.00    +0.001 A 
ATOM     17  C   UNL     1      -2.224   2.212   9.770  0.00  0.00    +0.001 A 
ATOM     18  C   UNL     1      -1.212   2.094   8.839  0.00  0.00    +0.015 A 
ATOM     19  C   UNL     1      -0.493   0.920   8.763  0.00  0.00    +0.020 A 
ATOM     20  S   UNL     1       0.853   0.354   7.755  0.00  0.00    -0.092 S 
ENDBRANCH  11  12
ENDBRANCH   9  11
ENDBRANCH   5   7
BRANCH   1  21
ATOM     21  C   UNL     1       0.116  -2.822   2.569  0.00  0.00    -0.046 C 
BRANCH  21  27
ATOM     22  C   UNL     1      -0.019   1.526   0.010  0.00  0.00    +0.012 C 
ATOM     23  C   UNL     1       0.002  -0.004   0.002  0.00  0.00    -0.025 C 
ATOM     24  C   UNL     1       1.147  -0.608  -0.837  0.00  0.00    -0.000 C 
ATOM     25  C   UNL     1       0.881  -2.091  -1.135  0.00  0.00    +0.031 C 
ATOM     26  C   UNL     1       0.545  -2.814   0.146  0.00  0.00    -0.029 C 
ATOM     27  C   UNL     1       0.457  -2.139   1.270  0.00  0.00    -0.086 C 
ATOM     28  C   UNL     1       0.726  -0.624   1.211  0.00  0.00    +0.019 C 
ATOM     29  C   UNL     1       2.024  -0.376   0.405  0.00  0.00    +0.012 C 
ATOM     30  C   UNL     1      -1.369  -0.620  -0.281  0.00  0.00    +0.012 C 
ENDBRANCH  21  27
ENDBRANCH   1  21
BRANCH   3  31
ATOM     31  S   UNL     1       3.091  -6.737   2.932  0.00  0.00    -0.085 S 
BRANCH  31  32
ATOM     32  C   UNL     1       3.936  -7.558   4.242  0.00  0.00    +0.188 A 
ATOM     33  N   UNL     1       4.156  -6.910   5.377  0.00  0.00    -0.230 NA
ATOM     34  C   UNL     1       4.788  -7.498   6.380  0.00  0.00    +0.115 A 
ATOM     35  C   UNL     1       5.220  -8.806   6.232  0.00  0.00    +0.039 A 
ATOM     36  C   UNL     1       4.974  -9.455   5.032  0.00  0.00    +0.115 A 
ATOM     37  N   UNL     1       4.333  -8.812   4.071  0.00  0.00    -0.230 NA
ENDBRANCH  31  32
ENDBRANCH   3  31
TORSDOF 7
