REMARK  Name = ZINC08575134
REMARK  12 active torsions:
REMARK  status: ('A' for Active; 'I' for Inactive)
REMARK    1  A    between atoms: C_1  and  C_2
REMARK    2  A    between atoms: C_2  and  O_3
REMARK    3  A    between atoms: O_3  and  C_4
REMARK    4  A    between atoms: C_4  and  C_6
REMARK    5  A    between atoms: C_6  and  C_8
REMARK    6  A    between atoms: C_6  and  N_30
REMARK    7  A    between atoms: C_8  and  C_9
REMARK    8  A    between atoms: C_12  and  N_15
REMARK    9  A    between atoms: C_16  and  C_18
REMARK   10  A    between atoms: C_18  and  N_26
REMARK   11  A    between atoms: C_19  and  C_20
REMARK   12  A    between atoms: C_27  and  C_29
REMARK                            x       y       z     vdW  Elec       q    Type
REMARK                         _______ _______ _______ _____ _____    ______ ____
ROOT
ATOM      1  C   UNL     1      -0.991   4.840   4.898  0.00  0.00    -0.045 A 
ATOM      2  C   UNL     1      -2.240   4.250   4.950  0.00  0.00    +0.005 A 
ATOM      3  C   UNL     1      -3.047   4.434   6.056  0.00  0.00    +0.023 A 
ATOM      4  C   UNL     1      -2.607   5.222   7.112  0.00  0.00    +0.034 A 
ATOM      5  C   UNL     1      -1.353   5.819   7.054  0.00  0.00    +0.023 A 
ATOM      6  C   UNL     1      -0.549   5.626   5.947  0.00  0.00    +0.005 A 
ENDROOT
BRANCH   4   7
ATOM      7  N   UNL     1      -3.423   5.415   8.230  0.00  0.00    -0.280 N 
ATOM      8  C   UNL     1      -2.869   5.638   9.438  0.00  0.00    +0.262 C 
ATOM      9  O   UNL     1      -1.664   5.773   9.539  0.00  0.00    -0.268 OA
ATOM     10  H   UNL     1      -4.388   5.387   8.137  0.00  0.00    +0.155 HD
BRANCH   8  11
ATOM     11  C   UNL     1      -3.720   5.719  10.634  0.00  0.00    +0.097 C 
ATOM     12  C   UNL     1      -3.157   5.798  11.861  0.00  0.00    +0.036 C 
BRANCH  12  13
ATOM     13  C   UNL     1      -1.709   5.594  12.021  0.00  0.00    -0.023 A 
ATOM     14  C   UNL     1      -1.081   4.504  11.409  0.00  0.00    +0.008 A 
ATOM     15  C   UNL     1       0.278   4.324  11.558  0.00  0.00    +0.001 A 
ATOM     16  C   UNL     1       1.018   5.211  12.320  0.00  0.00    +0.000 A 
ATOM     17  C   UNL     1       0.403   6.288  12.934  0.00  0.00    +0.001 A 
ATOM     18  C   UNL     1      -0.954   6.486  12.789  0.00  0.00    +0.008 A 
ENDBRANCH  12  13
BRANCH  11  19
ATOM     19  N   UNL     1      -5.113   5.714  10.502  0.00  0.00    -0.282 N 
ATOM     20  C   UNL     1      -5.735   6.740   9.888  0.00  0.00    +0.214 C 
ATOM     21  O   UNL     1      -5.084   7.599   9.331  0.00  0.00    -0.276 OA
ATOM     22  C   UNL     1      -7.240   6.821   9.895  0.00  0.00    +0.109 C 
ATOM     23  H   UNL     1      -5.631   4.973  10.852  0.00  0.00    +0.155 HD
ENDBRANCH  11  19
ENDBRANCH   8  11
ENDBRANCH   4   7
BRANCH   1  24
ATOM     24  C   UNL     1      -0.110   4.632   3.693  0.00  0.00    +0.069 C 
BRANCH  24  25
ATOM     25  C   UNL     1       0.769   3.400   3.911  0.00  0.00    +0.197 C 
BRANCH  25  26
ATOM     26  N   UNL     1       1.689   3.646   5.024  0.00  0.00    -0.220 N 
ATOM     27  C   UNL     1       2.604   4.632   5.052  0.00  0.00    +0.255 C 
ATOM     28  O   UNL     1       2.795   5.447   4.171  0.00  0.00    -0.270 OA
ATOM     29  C   UNL     1       3.335   4.560   6.334  0.00  0.00    +0.049 A 
ATOM     30  C   UNL     1       4.359   5.297   6.907  0.00  0.00    +0.014 A 
ATOM     31  C   UNL     1       4.835   4.952   8.162  0.00  0.00    +0.001 A 
ATOM     32  C   UNL     1       4.295   3.880   8.846  0.00  0.00    +0.001 A 
ATOM     33  C   UNL     1       3.270   3.133   8.286  0.00  0.00    +0.014 A 
ATOM     34  C   UNL     1       2.784   3.466   7.032  0.00  0.00    +0.049 A 
ATOM     35  C   UNL     1       1.733   2.913   6.151  0.00  0.00    +0.255 C 
ATOM     36  O   UNL     1       1.028   1.957   6.404  0.00  0.00    -0.270 OA
ENDBRANCH  25  26
BRANCH  25  37
ATOM     37  C   UNL     1       1.560   3.119   2.659  0.00  0.00    +0.329 C 
ATOM     38  O   UNL     1       2.768   3.125   2.693  0.00  0.00    -0.249 OA
BRANCH  37  39
ATOM     39  O   UNL     1       0.923   2.863   1.506  0.00  0.00    -0.464 OA
BRANCH  39  41
ATOM     40  C   UNL     1       0.852   2.334  -0.870  0.00  0.00    +0.048 C 
ATOM     41  C   UNL     1       1.748   2.602   0.340  0.00  0.00    +0.229 C 
ENDBRANCH  39  41
ENDBRANCH  37  39
ENDBRANCH  25  37
ENDBRANCH  24  25
ENDBRANCH   1  24
TORSDOF 10
