REMARK  Name = ZINC22560154
REMARK  10 active torsions:
REMARK  status: ('A' for Active; 'I' for Inactive)
REMARK    1  A    between atoms: C_1  and  C_2
REMARK    2  A    between atoms: C_5  and  C_26
REMARK    3  A    between atoms: C_6  and  N_8
REMARK    4  A    between atoms: C_9  and  C_11
REMARK    5  A    between atoms: C_13  and  C_23
REMARK    6  A    between atoms: N_19  and  C_20
REMARK    7  A    between atoms: C_20  and  C_21
REMARK    8  A    between atoms: C_20  and  C_22
REMARK    9  A    between atoms: C_23  and  C_24
REMARK   10  A    between atoms: C_23  and  C_25
REMARK                            x       y       z     vdW  Elec       q    Type
REMARK                         _______ _______ _______ _____ _____    ______ ____
ROOT
ATOM      1  C   UNL     1      -2.452   1.097   0.140  0.00  0.00    +0.051 A 
ATOM      2  C   UNL     1      -2.585  -0.286   0.241  0.00  0.00    +0.037 A 
ATOM      3  C   UNL     1      -3.850  -0.841   0.359  0.00  0.00    +0.047 A 
ATOM      4  N   UNL     1      -4.933  -0.095   0.369  0.00  0.00    -0.232 NA
ATOM      5  C   UNL     1      -4.876   1.226   0.271  0.00  0.00    +0.159 A 
ATOM      6  C   UNL     1      -3.631   1.875   0.152  0.00  0.00    +0.051 A 
ATOM      7  C   UNL     1      -3.891   3.260   0.067  0.00  0.00    +0.145 A 
ATOM      8  N   UNL     1      -5.179   3.445   0.129  0.00  0.00    -0.177 NA
ATOM      9  N   UNL     1      -5.829   2.212   0.255  0.00  0.00    -0.244 N 
ENDROOT
BRANCH   1  11
ATOM     10  N   UNL     1      -0.011   0.966   0.007  0.00  0.00    -0.281 N 
ATOM     11  C   UNL     1      -1.122   1.730   0.017  0.00  0.00    +0.249 C 
ATOM     12  O   UNL     1      -1.029   2.938  -0.076  0.00  0.00    -0.270 OA
ATOM     13  H   UNL     1      -0.098  -0.131   0.021  0.00  0.00    +0.155 HD
BRANCH  10  19
ATOM     14  C   UNL     1       2.897   4.632  -1.498  0.00  0.00    +0.044 C 
ATOM     15  C   UNL     1       2.689   3.345  -0.742  0.00  0.00    -0.049 A 
ATOM     16  C   UNL     1       3.748   2.758  -0.074  0.00  0.00    +0.004 A 
ATOM     17  C   UNL     1       3.562   1.577   0.620  0.00  0.00    +0.005 A 
ATOM     18  C   UNL     1       2.317   0.980   0.649  0.00  0.00    -0.029 A 
ATOM     19  C   UNL     1       1.251   1.567  -0.020  0.00  0.00    +0.037 A 
ATOM     20  C   UNL     1       1.443   2.751  -0.721  0.00  0.00    +0.027 A 
ATOM     21  C   UNL     1       2.115  -0.308   1.405  0.00  0.00    +0.045 C 
ENDBRANCH  10  19
ENDBRANCH   1  11
BRANCH   9  22
ATOM     22  C   UNL     1      -7.276   2.010   0.354  0.00  0.00    +0.103 C 
ATOM     23  C   UNL     1      -7.810   2.741   1.587  0.00  0.00    +0.032 C 
ATOM     24  C   UNL     1      -7.955   2.562  -0.901  0.00  0.00    +0.032 C 
ENDBRANCH   9  22
BRANCH   3  25
ATOM     25  C   UNL     1      -3.989  -2.337   0.475  0.00  0.00    +0.032 C 
ATOM     26  C   UNL     1      -3.994  -2.958  -0.923  0.00  0.00    +0.014 C 
ATOM     27  C   UNL     1      -2.813  -2.897   1.278  0.00  0.00    +0.014 C 
ENDBRANCH   3  25
TORSDOF 4
