REMARK  Name = ZINC03250573
REMARK  8 active torsions:
REMARK  status: ('A' for Active; 'I' for Inactive)
REMARK    1  A    between atoms: C_4  and  N_31
REMARK    2  A    between atoms: C_5  and  C_7
REMARK    3  A    between atoms: C_7  and  O_9
REMARK    4  A    between atoms: O_9  and  C_10
REMARK    5  A    between atoms: C_10  and  C_11
REMARK    6  A    between atoms: C_14  and  C_26
REMARK    7  A    between atoms: C_17  and  C_19
REMARK    8  A    between atoms: C_32  and  C_34
REMARK                            x       y       z     vdW  Elec       q    Type
REMARK                         _______ _______ _______ _____ _____    ______ ____
ROOT
ATOM      1  C   UNL     1      -1.151  -4.965  -0.085  0.00  0.00    +0.270 C 
ATOM      2  O   UNL     1      -2.148  -4.283  -0.190  0.00  0.00    -0.270 OA
ATOM      3  N   UNL     1      -1.253  -6.308  -0.052  0.00  0.00    -0.205 N 
ATOM      4  C   UNL     1      -2.488  -7.104  -0.139  0.00  0.00    +0.187 C 
ATOM      5  C   UNL     1      -2.026  -8.542  -0.054  0.00  0.00    +0.030 C 
ATOM      6  C   UNL     1      -0.701  -8.527   0.065  0.00  0.00    +0.050 C 
ATOM      7  N   UNL     1      -0.205  -7.231   0.065  0.00  0.00    -0.261 N 
ATOM      8  H   UNL     1       0.734  -6.997   0.137  0.00  0.00    +0.170 HD
ENDROOT
BRANCH   6   9
ATOM      9  C   UNL     1       0.139  -9.742   0.177  0.00  0.00    -0.003 A 
ATOM     10  C   UNL     1      -0.451 -11.005   0.158  0.00  0.00    +0.011 A 
ATOM     11  C   UNL     1       0.337 -12.133   0.263  0.00  0.00    +0.020 A 
ATOM     12  C   UNL     1       1.710 -12.012   0.387  0.00  0.00    +0.041 A 
ATOM     13  C   UNL     1       2.301 -10.760   0.408  0.00  0.00    +0.020 A 
ATOM     14  C   UNL     1       1.524  -9.626   0.298  0.00  0.00    +0.011 A 
ATOM     15 CL   UNL     1       2.695 -13.436   0.519  0.00  0.00    -0.084 Cl
ENDBRANCH   6   9
BRANCH   4  16
ATOM     16  C   UNL     1      -3.185  -6.851  -1.451  0.00  0.00    +0.131 A 
ATOM     17  C   UNL     1      -4.512  -6.722  -1.625  0.00  0.00    +0.047 A 
ATOM     18  C   UNL     1      -4.725  -6.496  -3.004  0.00  0.00    +0.041 A 
ATOM     19  C   UNL     1      -3.515  -6.501  -3.591  0.00  0.00    +0.195 A 
ATOM     20  O   UNL     1      -2.585  -6.711  -2.644  0.00  0.00    -0.466 OA
ENDBRANCH   4  16
BRANCH   1  21
ATOM     21  C   UNL     1       0.203  -4.310   0.010  0.00  0.00    +0.329 C 
BRANCH  21  22
ATOM     22  O   UNL     1       0.051  -2.890  -0.046  0.00  0.00    -0.452 OA
BRANCH  22  23
ATOM     23  C   UNL     1       1.175  -2.151   0.027  0.00  0.00    +0.341 C 
ATOM     24  O   UNL     1       2.255  -2.696   0.135  0.00  0.00    -0.245 OA
BRANCH  23  29
ATOM     25  C   UNL     1      -0.219   1.331  -0.089  0.00  0.00    +0.001 A 
ATOM     26  C   UNL     1       0.941   2.089  -0.124  0.00  0.00    +0.002 A 
ATOM     27  C   UNL     1       2.177   1.476  -0.110  0.00  0.00    +0.024 A 
ATOM     28  C   UNL     1       2.266   0.091  -0.061  0.00  0.00    +0.048 A 
ATOM     29  C   UNL     1       1.094  -0.680  -0.025  0.00  0.00    +0.080 A 
ATOM     30  C   UNL     1      -0.150  -0.044  -0.040  0.00  0.00    +0.017 A 
BRANCH  28  31
ATOM     31  N   UNL     1       3.512  -0.529  -0.047  0.00  0.00    -0.278 N 
ATOM     32  C   UNL     1       4.589   0.133   0.419  0.00  0.00    +0.284 C 
ATOM     33  O   UNL     1       4.457   1.233   0.922  0.00  0.00    -0.266 OA
ATOM     34  H   UNL     1       3.604  -1.438  -0.373  0.00  0.00    +0.155 HD
BRANCH  32  35
ATOM     35  C   UNL     1       5.921  -0.473   0.320  0.00  0.00    +0.189 A 
ATOM     36  C   UNL     1       7.090   0.084   0.756  0.00  0.00    +0.054 A 
ATOM     37  C   UNL     1       8.108  -0.837   0.462  0.00  0.00    +0.042 A 
ATOM     38  C   UNL     1       7.524  -1.901  -0.132  0.00  0.00    +0.196 A 
ATOM     39  O   UNL     1       6.205  -1.680  -0.211  0.00  0.00    -0.458 OA
ENDBRANCH  32  35
ENDBRANCH  28  31
ENDBRANCH  23  29
ENDBRANCH  22  23
ENDBRANCH  21  22
ENDBRANCH   1  21
TORSDOF 8
