REMARK  Name = ZINC39972729
REMARK  16 active torsions:
REMARK  status: ('A' for Active; 'I' for Inactive)
REMARK    1  A    between atoms: C_1  and  C_2
REMARK    2  A    between atoms: C_3  and  C_35
REMARK    3  A    between atoms: C_5  and  N_10
REMARK    4  A    between atoms: C_6  and  C_7
REMARK    5  A    between atoms: C_11  and  C_13
REMARK    6  A    between atoms: C_13  and  S_14
REMARK    7  A    between atoms: S_14  and  C_15
REMARK    8  A    between atoms: C_18  and  C_23
REMARK    9  A    between atoms: N_19  and  C_20
REMARK   10  A    between atoms: C_20  and  C_21
REMARK   11  A    between atoms: C_23  and  O_24
REMARK   12  A    between atoms: O_24  and  C_25
REMARK   13  A    between atoms: C_28  and  C_31
REMARK   14  A    between atoms: C_31  and  C_32
REMARK   15  A    between atoms: C_31  and  C_33
REMARK   16  A    between atoms: C_31  and  C_34
REMARK                            x       y       z     vdW  Elec       q    Type
REMARK                         _______ _______ _______ _____ _____    ______ ____
ROOT
ATOM      1  C   UNL     1       0.130  -8.213   3.487  0.00  0.00    +0.192 A 
ATOM      2  N   UNL     1       0.125  -7.869   4.753  0.00  0.00    -0.122 NA
ATOM      3  N   UNL     1       0.144  -8.920   5.492  0.00  0.00    -0.130 NA
ATOM      4  C   UNL     1       0.163  -9.989   4.747  0.00  0.00    +0.172 A 
ATOM      5  N   UNL     1       0.149  -9.578   3.443  0.00  0.00    -0.299 N 
ENDROOT
BRANCH   1   6
ATOM      6  S   UNL     1       0.109  -7.121   2.104  0.00  0.00    -0.077 S 
BRANCH   6   7
ATOM      7  C   UNL     1       0.089  -5.468   2.850  0.00  0.00    +0.173 C 
BRANCH   7   9
ATOM      8  N   UNL     1       0.054  -3.117   2.083  0.00  0.00    -0.279 N 
ATOM      9  C   UNL     1       0.070  -4.426   1.762  0.00  0.00    +0.228 C 
ATOM     10  O   UNL     1       0.070  -4.765   0.597  0.00  0.00    -0.275 OA
ATOM     11  H   UNL     1       0.054  -2.846   3.014  0.00  0.00    +0.155 HD
BRANCH   8  16
ATOM     12  C   UNL     1      -0.018   1.503   0.010  0.00  0.00    +0.045 C 
ATOM     13  C   UNL     1       0.002  -0.004   0.002  0.00  0.00    -0.027 A 
ATOM     14  C   UNL     1       0.006  -0.713  -1.142  0.00  0.00    -0.008 A 
ATOM     15  S   UNL     1       0.032  -2.400  -0.579  0.00  0.00    -0.078 S 
ATOM     16  C   UNL     1       0.036  -2.158   1.081  0.00  0.00    +0.084 A 
ATOM     17  C   UNL     1       0.024  -0.778   1.222  0.00  0.00    +0.068 A 
ATOM     18  C   UNL     1      -0.007  -0.200  -2.559  0.00  0.00    +0.052 C 
BRANCH  17  19
ATOM     19  C   UNL     1       0.028  -0.138   2.541  0.00  0.00    +0.244 C 
ATOM     20  O   UNL     1      -1.024   0.114   3.099  0.00  0.00    -0.270 OA
ATOM     21  N   UNL     1       1.197   0.172   3.136  0.00  0.00    -0.325 N 
ATOM     22  H   UNL     1       2.035  -0.028   2.692  0.00  0.00    +0.145 HD
ATOM     23  H   UNL     1       1.199   0.596   4.009  0.00  0.00    +0.145 HD
ENDBRANCH  17  19
ENDBRANCH   8  16
ENDBRANCH   7   9
ENDBRANCH   6   7
ENDBRANCH   1   6
BRANCH   5  24
ATOM     24  C   UNL     1       0.155 -10.425   2.248  0.00  0.00    +0.152 C 
BRANCH  24  25
ATOM     25  C   UNL     1       1.578 -10.696   1.833  0.00  0.00    -0.013 C 
ATOM     26  C   UNL     1       1.995 -11.930   1.690  0.00  0.00    +0.005 C 
ENDBRANCH  24  25
ENDBRANCH   5  24
BRANCH   4  27
ATOM     27  C   UNL     1       0.189 -11.416   5.234  0.00  0.00    +0.305 C 
BRANCH  27  28
ATOM     28  O   UNL     1      -1.149 -11.891   5.388  0.00  0.00    -0.484 OA
BRANCH  28  29
ATOM     29  C   UNL     1      -1.304 -13.169   5.822  0.00  0.00    +0.121 A 
ATOM     30  C   UNL     1      -0.190 -13.948   6.100  0.00  0.00    +0.046 A 
ATOM     31  C   UNL     1      -0.350 -15.247   6.542  0.00  0.00    +0.008 A 
ATOM     32  C   UNL     1      -1.619 -15.771   6.707  0.00  0.00    -0.042 A 
ATOM     33  C   UNL     1      -2.730 -14.997   6.431  0.00  0.00    +0.008 A 
ATOM     34  C   UNL     1      -2.576 -13.696   5.994  0.00  0.00    +0.046 A 
BRANCH  32  35
ATOM     35  C   UNL     1      -1.790 -17.189   7.189  0.00  0.00    -0.013 C 
ATOM     36  C   UNL     1      -1.144 -17.340   8.568  0.00  0.00    +0.015 C 
ATOM     37  C   UNL     1      -3.281 -17.518   7.285  0.00  0.00    +0.015 C 
ATOM     38  C   UNL     1      -1.119 -18.148   6.204  0.00  0.00    +0.015 C 
ENDBRANCH  32  35
ENDBRANCH  28  29
ENDBRANCH  27  28
ENDBRANCH   4  27
TORSDOF 11
