REMARK  Name = ZINC67459922
REMARK  9 active torsions:
REMARK  status: ('A' for Active; 'I' for Inactive)
REMARK    1  A    between atoms: C_1  and  C_2
REMARK    2  A    between atoms: C_2  and  C_3
REMARK    3  A    between atoms: C_3  and  N_4
REMARK    4  A    between atoms: N_4  and  C_5
REMARK    5  A    between atoms: N_4  and  C_17
REMARK    6  A    between atoms: C_5  and  C_6
REMARK    7  A    between atoms: N_11  and  C_12
REMARK    8  A    between atoms: C_12  and  C_13
REMARK    9  A    between atoms: C_14  and  C_16
REMARK                            x       y       z     vdW  Elec       q    Type
REMARK                         _______ _______ _______ _____ _____    ______ ____
ROOT
ATOM      1  N   UNL     1       0.530  -1.680  -1.396  0.00  0.00    +0.385 N 
ATOM      2  H   UNL     1       1.001  -1.829  -0.516  0.00  0.00    -0.081 HD
ENDROOT
BRANCH   1   3
ATOM      3  C   UNL     1       1.312  -2.288  -2.480  0.00  0.00    -0.063 C 
ATOM      4  C   UNL     1       2.707  -1.653  -2.529  0.00  0.00    -0.010 C 
ATOM      5  C   UNL     1       3.407  -2.127  -3.801  0.00  0.00    +0.034 C 
ATOM      6  C   UNL     1       3.347  -3.628  -3.911  0.00  0.00    -0.044 A 
ATOM      7  C   UNL     1       4.237  -4.249  -4.778  0.00  0.00    +0.004 A 
ATOM      8  C   UNL     1       4.229  -5.620  -4.928  0.00  0.00    +0.000 A 
ATOM      9  C   UNL     1       3.326  -6.383  -4.211  0.00  0.00    +0.000 A 
ATOM     10  C   UNL     1       2.443  -5.769  -3.348  0.00  0.00    +0.004 A 
ATOM     11  C   UNL     1       2.453  -4.388  -3.192  0.00  0.00    -0.046 A 
ATOM     12  C   UNL     1       1.471  -3.785  -2.222  0.00  0.00    +0.020 C 
ENDBRANCH   1   3
BRANCH   1  13
ATOM     13  C   UNL     1       0.394  -0.237  -1.640  0.00  0.00    -0.078 C 
BRANCH  13  15
ATOM     14  C   UNL     1      -0.402   1.491  -3.259  0.00  0.00    +0.002 C 
ATOM     15  C   UNL     1      -0.207  -0.009  -3.028  0.00  0.00    -0.022 C 
ENDBRANCH  13  15
ENDBRANCH   1  13
BRANCH   1  16
ATOM     16  C   UNL     1      -0.803  -2.296  -1.348  0.00  0.00    -0.021 C 
BRANCH  16  17
ATOM     17  C   UNL     1      -1.562  -1.760  -0.161  0.00  0.00    +0.034 A 
ATOM     18  C   UNL     1      -2.416  -0.714  -0.280  0.00  0.00    +0.070 A 
ATOM     19  S   UNL     1      -2.985  -0.556   1.405  0.00  0.00    -0.060 S 
ATOM     20  C   UNL     1      -2.091  -1.817   2.071  0.00  0.00    +0.167 A 
ATOM     21  N   UNL     1      -1.429  -2.293   1.039  0.00  0.00    -0.231 NA
ATOM     22  N   UNL     1      -2.064  -2.253   3.391  0.00  0.00    -0.251 N 
ATOM     23  C   UNL     1      -1.204  -3.222   3.763  0.00  0.00    +0.218 C 
ATOM     24  O   UNL     1      -0.392  -3.649   2.970  0.00  0.00    -0.276 OA
ATOM     25  C   UNL     1      -1.252  -3.775   5.164  0.00  0.00    +0.110 C 
BRANCH  22  26
ATOM     26  C   UNL     1      -2.969  -1.659   4.378  0.00  0.00    +0.112 C 
ATOM     27  C   UNL     1      -4.223  -2.527   4.506  0.00  0.00    +0.025 C 
ENDBRANCH  22  26
ENDBRANCH  16  17
ENDBRANCH   1  16
TORSDOF 6
