REMARK  Name = ZINC43549296
REMARK  14 active torsions:
REMARK  status: ('A' for Active; 'I' for Inactive)
REMARK    1  A    between atoms: C_1  and  C_2
REMARK    2  A    between atoms: C_7  and  C_9
REMARK    3  A    between atoms: C_9  and  O_10
REMARK    4  A    between atoms: O_10  and  C_11
REMARK    5  A    between atoms: C_11  and  C_13
REMARK    6  A    between atoms: C_13  and  C_14
REMARK    7  A    between atoms: C_13  and  C_15
REMARK    8  A    between atoms: C_13  and  C_16
REMARK    9  A    between atoms: C_18  and  C_40
REMARK   10  A    between atoms: C_21  and  O_39
REMARK   11  A    between atoms: C_23  and  C_27
REMARK   12  A    between atoms: C_27  and  C_29
REMARK   13  A    between atoms: C_27  and  C_30
REMARK   14  A    between atoms: N_35  and  C_38
REMARK                            x       y       z     vdW  Elec       q    Type
REMARK                         _______ _______ _______ _____ _____    ______ ____
ROOT
ATOM      1  C   UNL     1       1.038   1.689  -1.030  0.00  0.00    +0.014 C 
ATOM      2  C   UNL     1       0.572   0.249  -0.809  0.00  0.00    +0.042 C 
ATOM      3  C   UNL     1      -0.942   0.220  -0.678  0.00  0.00    +0.055 A 
ATOM      4  C   UNL     1      -1.540  -0.576   0.248  0.00  0.00    +0.014 A 
ATOM      5  S   UNL     1      -3.260  -0.244  -0.015  0.00  0.00    -0.073 S 
ATOM      6  C   UNL     1      -3.077   0.871  -1.266  0.00  0.00    +0.116 A 
ATOM      7  N   UNL     1      -1.779   0.935  -1.421  0.00  0.00    -0.245 NA
ATOM      8  C   UNL     1      -0.880  -1.486   1.224  0.00  0.00    +0.051 C 
ATOM      9  C   UNL     1       0.587  -1.661   0.824  0.00  0.00    -0.022 C 
ATOM     10  C   UNL     1       1.204  -0.302   0.475  0.00  0.00    +0.033 C 
ATOM     11  C   UNL     1       2.702  -0.522   0.209  0.00  0.00    +0.123 C 
ATOM     12  C   UNL     1       2.855  -1.455  -0.995  0.00  0.00    +0.029 C 
ATOM     13  C   UNL     1       2.193  -2.802  -0.700  0.00  0.00    +0.007 C 
ATOM     14  C   UNL     1       0.710  -2.592  -0.381  0.00  0.00    +0.008 C 
ATOM     15  C   UNL     1       1.362  -2.256   2.001  0.00  0.00    +0.012 C 
ENDROOT
BRANCH  12  16
ATOM     16  C   UNL     1       4.342  -1.675  -1.280  0.00  0.00    +0.078 C 
ATOM     17  C   UNL     1       5.006  -0.332  -1.588  0.00  0.00    +0.017 C 
BRANCH  16  18
ATOM     18  C   UNL     1       4.495  -2.594  -2.465  0.00  0.00    +0.219 C 
ATOM     19  O   UNL     1       3.628  -2.642  -3.311  0.00  0.00    -0.275 OA
ATOM     20  N   UNL     1       5.596  -3.362  -2.584  0.00  0.00    -0.299 N 
ATOM     21  C   UNL     1       6.709  -3.240  -1.630  0.00  0.00    +0.123 C 
ATOM     22  C   UNL     1       7.054  -4.637  -1.104  0.00  0.00    +0.103 C 
ATOM     23  N   UNL     1       7.305  -5.536  -2.238  0.00  0.00    -0.302 NA
ATOM     24  C   UNL     1       6.102  -5.698  -3.066  0.00  0.00    +0.103 C 
ATOM     25  C   UNL     1       5.715  -4.348  -3.669  0.00  0.00    +0.123 C 
ATOM     26  C   UNL     1       7.806  -6.838  -1.778  0.00  0.00    +0.105 C 
ENDBRANCH  16  18
ENDBRANCH  12  16
BRANCH  11  27
ATOM     27  O   UNL     1       3.311  -1.113   1.358  0.00  0.00    -0.391 OA
ATOM     28  H   UNL     1       4.259  -1.280   1.260  0.00  0.00    +0.210 HD
ENDBRANCH  11  27
BRANCH   6  29
ATOM     29  C   UNL     1      -4.148   1.612  -2.025  0.00  0.00    +0.294 C 
BRANCH  29  30
ATOM     30  O   UNL     1      -4.543   0.844  -3.164  0.00  0.00    -0.457 OA
BRANCH  30  31
ATOM     31  C   UNL     1      -5.496   1.368  -3.950  0.00  0.00    +0.313 C 
ATOM     32  O   UNL     1      -5.979   2.442  -3.681  0.00  0.00    -0.250 OA
BRANCH  31  33
ATOM     33  C   UNL     1      -5.963   0.616  -5.170  0.00  0.00    +0.059 C 
ATOM     34  C   UNL     1      -7.046   1.427  -5.885  0.00  0.00    +0.022 C 
ATOM     35  C   UNL     1      -4.782   0.396  -6.117  0.00  0.00    +0.022 C 
ATOM     36  C   UNL     1      -6.537  -0.738  -4.746  0.00  0.00    +0.022 C 
ENDBRANCH  31  33
ENDBRANCH  30  31
ENDBRANCH  29  30
ENDBRANCH   6  29
TORSDOF 7
