REMARK  Name = ZINC46567714
REMARK  11 active torsions:
REMARK  status: ('A' for Active; 'I' for Inactive)
REMARK    1  A    between atoms: C_1  and  C_2
REMARK    2  A    between atoms: C_2  and  C_3
REMARK    3  A    between atoms: C_3  and  C_4
REMARK    4  A    between atoms: C_4  and  C_5
REMARK    5  A    between atoms: C_7  and  C_25
REMARK    6  A    between atoms: C_8  and  C_10
REMARK    7  A    between atoms: N_12  and  C_13
REMARK    8  A    between atoms: C_15  and  S_21
REMARK    9  A    between atoms: C_17  and  C_20
REMARK   10  A    between atoms: C_18  and  C_19
REMARK   11  A    between atoms: S_21  and  N_24
REMARK                            x       y       z     vdW  Elec       q    Type
REMARK                         _______ _______ _______ _____ _____    ______ ____
ROOT
ATOM      1  C   UNL     1       2.503  -3.793  -6.217  0.00  0.00    +0.257 C 
ATOM      2  O   UNL     1       3.620  -4.096  -6.594  0.00  0.00    -0.269 OA
ATOM      3  N   UNL     1       1.459  -3.878  -7.066  0.00  0.00    -0.281 N 
ATOM      4  H   UNL     1       0.559  -3.715  -6.745  0.00  0.00    +0.155 HD
ENDROOT
BRANCH   3   5
ATOM      5  C   UNL     1       1.675  -4.203  -8.409  0.00  0.00    +0.039 A 
ATOM      6  C   UNL     1       2.905  -3.940  -9.000  0.00  0.00    +0.052 A 
ATOM      7  C   UNL     1       3.115  -4.262 -10.326  0.00  0.00    +0.107 A 
ATOM      8  C   UNL     1       2.102  -4.845 -11.066  0.00  0.00    +0.032 A 
ATOM      9  C   UNL     1       0.877  -5.108 -10.482  0.00  0.00    -0.044 A 
ATOM     10  C   UNL     1       0.663  -4.794  -9.154  0.00  0.00    -0.026 A 
ATOM     11  C   UNL     1      -0.670  -5.086  -8.515  0.00  0.00    +0.046 C 
ATOM     12  C   UNL     1      -0.223  -5.743 -11.292  0.00  0.00    +0.044 C 
BRANCH   7  13
ATOM     13  S   UNL     1       4.674  -3.929 -11.076  0.00  0.00    +0.056 S 
ATOM     14  O   UNL     1       4.438  -3.824 -12.474  0.00  0.00    -0.153 OA
ATOM     15  O   UNL     1       5.271  -2.882 -10.324  0.00  0.00    -0.153 OA
BRANCH  13  16
ATOM     16  N   UNL     1       5.620  -5.270 -10.856  0.00  0.00    -0.204 NA
ATOM     17  H   UNL     1       5.267  -6.040 -10.382  0.00  0.00    +0.144 HD
ATOM     18  H   UNL     1       6.526  -5.286 -11.200  0.00  0.00    +0.144 HD
ENDBRANCH  13  16
ENDBRANCH   7  13
ENDBRANCH   3   5
BRANCH   1  22
ATOM     19  C   UNL     1       1.449  -2.479  -2.515  0.00  0.00    +0.079 A 
ATOM     20  N   UNL     1       2.726  -2.743  -2.675  0.00  0.00    -0.248 NA
ATOM     21  C   UNL     1       3.201  -3.174  -3.817  0.00  0.00    +0.058 A 
ATOM     22  C   UNL     1       2.292  -3.335  -4.840  0.00  0.00    +0.097 A 
ATOM     23  S   UNL     1       0.786  -2.837  -4.020  0.00  0.00    -0.067 S 
ATOM     24  C   UNL     1       4.665  -3.476  -4.003  0.00  0.00    +0.067 C 
BRANCH  19  25
ATOM     25  C   UNL     1       0.745  -1.982  -1.279  0.00  0.00    +0.063 C 
BRANCH  25  26
ATOM     26  C   UNL     1       0.730  -0.452  -1.282  0.00  0.00    +0.006 C 
BRANCH  26  28
ATOM     27  C   UNL     1      -0.001   1.583  -0.030  0.00  0.00    +0.004 C 
ATOM     28  C   UNL     1       0.015   0.053  -0.027  0.00  0.00    -0.003 C 
ENDBRANCH  26  28
ENDBRANCH  25  26
ENDBRANCH  19  25
ENDBRANCH   1  22
TORSDOF 7
