REMARK  Name = ZINC22188011
REMARK  5 active torsions:
REMARK  status: ('A' for Active; 'I' for Inactive)
REMARK    1  A    between atoms: C_1  and  C_2
REMARK    2  A    between atoms: C_5  and  N_8
REMARK    3  A    between atoms: C_12  and  S_13
REMARK    4  A    between atoms: S_13  and  C_14
REMARK    5  A    between atoms: C_14  and  C_15
REMARK                            x       y       z     vdW  Elec       q    Type
REMARK                         _______ _______ _______ _____ _____    ______ ____
ROOT
ATOM      1  N   UNL     1      -6.264   7.839  -0.070  0.00  0.00    -0.259 N 
ATOM      2  C   UNL     1      -7.615   8.054  -0.011  0.00  0.00    +0.225 A 
ATOM      3  N   UNL     1      -8.200   6.901   0.201  0.00  0.00    -0.112 NA
ATOM      4  N   UNL     1      -7.205   5.917   0.277  0.00  0.00    -0.120 NA
ATOM      5  C   UNL     1      -6.043   6.501   0.117  0.00  0.00    +0.198 A 
ATOM      6  N   UNL     1      -8.253   9.280  -0.153  0.00  0.00    -0.295 N 
ATOM      7  C   UNL     1      -9.034   9.609   1.048  0.00  0.00    +0.136 C 
ATOM      8  C   UNL     1      -9.670  10.991   0.873  0.00  0.00    +0.179 C 
ATOM      9  O   UNL     1     -10.472  10.995  -0.312  0.00  0.00    -0.377 OA
ATOM     10  C   UNL     1      -9.743  10.678  -1.501  0.00  0.00    +0.179 C 
ATOM     11  C   UNL     1      -9.107   9.294  -1.350  0.00  0.00    +0.136 C 
ENDROOT
BRANCH   1  16
ATOM     12  C   UNL     1      -2.287  11.795  -0.934  0.00  0.00    +0.044 C 
ATOM     13  C   UNL     1      -3.343  10.745  -0.705  0.00  0.00    -0.050 A 
ATOM     14  C   UNL     1      -3.563   9.768  -1.658  0.00  0.00    +0.005 A 
ATOM     15  C   UNL     1      -4.530   8.804  -1.450  0.00  0.00    +0.026 A 
ATOM     16  C   UNL     1      -5.281   8.816  -0.283  0.00  0.00    +0.052 A 
ATOM     17  C   UNL     1      -5.062   9.802   0.670  0.00  0.00    +0.026 A 
ATOM     18  C   UNL     1      -4.090  10.760   0.459  0.00  0.00    +0.005 A 
ENDBRANCH   1  16
BRANCH   5  19
ATOM     19  S   UNL     1      -4.472   5.703   0.131  0.00  0.00    -0.078 S 
BRANCH  19  20
ATOM     20  C   UNL     1      -4.869   3.957   0.420  0.00  0.00    +0.151 C 
BRANCH  20  21
ATOM     21  C   UNL     1      -3.596   3.151   0.455  0.00  0.00    +0.121 A 
ATOM     22  N   UNL     1      -3.687   1.811   0.663  0.00  0.00    -0.310 N 
ATOM     23  H   UNL     1      -4.672   1.341   0.801  0.00  0.00    +0.170 HD
ATOM     24  C   UNL     1      -2.573   1.043   0.704  0.00  0.00    +0.259 A 
ATOM     25  O   UNL     1      -2.640  -0.158   0.890  0.00  0.00    -0.267 OA
ATOM     26  C   UNL     1      -1.280   1.716   0.509  0.00  0.00    +0.066 A 
ATOM     27  C   UNL     1      -0.075   1.017   0.538  0.00  0.00    +0.035 A 
ATOM     28  C   UNL     1       1.110   1.699   0.356  0.00  0.00    +0.042 A 
ATOM     29  C   UNL     1       1.109   3.073   0.149  0.00  0.00    +0.022 A 
ATOM     30  C   UNL     1      -0.071   3.782   0.122  0.00  0.00    +0.030 A 
ATOM     31  C   UNL     1      -1.284   3.113   0.305  0.00  0.00    +0.078 A 
ATOM     32  N   UNL     1      -2.469   3.772   0.286  0.00  0.00    -0.233 NA
ATOM     33 CL   UNL     1       2.614   0.834   0.385  0.00  0.00    -0.084 Cl
ENDBRANCH  20  21
ENDBRANCH  19  20
ENDBRANCH   5  19
TORSDOF 4
