REMARK  Name = ZINC12193934
REMARK  6 active torsions:
REMARK  status: ('A' for Active; 'I' for Inactive)
REMARK    1  A    between atoms: C_1  and  C_2
REMARK    2  A    between atoms: C_7  and  C_8
REMARK    3  A    between atoms: C_22  and  C_23
REMARK    4  A    between atoms: C_22  and  N_55
REMARK    5  A    between atoms: C_26  and  N_28
REMARK    6  A    between atoms: C_29  and  C_31
REMARK                            x       y       z     vdW  Elec       q    Type
REMARK                         _______ _______ _______ _____ _____    ______ ____
ROOT
ATOM      1  C   UNL     1      -5.761   3.425   7.234  0.00  0.00    +0.011 C 
ATOM      2  C   UNL     1      -7.228   3.309   6.891  0.00  0.00    +0.011 A 
ATOM      3  C   UNL     1      -7.677   3.119   5.630  0.00  0.00    -0.022 A 
ATOM      4  C   UNL     1      -9.120   3.062   5.694  0.00  0.00    +0.003 A 
ATOM      5  C   UNL     1     -10.110   2.886   4.721  0.00  0.00    +0.010 A 
ATOM      6  C   UNL     1     -11.412   2.883   5.154  0.00  0.00    +0.001 A 
ATOM      7  C   UNL     1     -11.745   3.045   6.489  0.00  0.00    +0.002 A 
ATOM      8  C   UNL     1     -10.787   3.220   7.473  0.00  0.00    +0.026 A 
ATOM      9  C   UNL     1      -9.456   3.228   7.063  0.00  0.00    +0.047 A 
ATOM     10  N   UNL     1      -8.287   3.375   7.754  0.00  0.00    -0.359 N 
ATOM     11  H   UNL     1      -8.219   3.507   8.713  0.00  0.00    +0.166 HD
ATOM     12  C   UNL     1      -6.768   2.995   4.433  0.00  0.00    +0.019 C 
ATOM     13  C   UNL     1      -5.345   2.727   4.944  0.00  0.00    -0.072 C 
ATOM     14  N   UNL     1      -5.019   3.726   5.986  0.00  0.00    +0.391 N 
ATOM     15  H   UNL     1      -5.295   4.657   5.652  0.00  0.00    -0.080 HD
ENDROOT
BRANCH   1  22
ATOM     16  C   UNL     1      -6.068   2.957  10.068  0.00  0.00    +0.044 C 
ATOM     17  C   UNL     1      -5.699   4.329   9.567  0.00  0.00    -0.048 A 
ATOM     18  C   UNL     1      -5.503   5.363  10.463  0.00  0.00    +0.003 A 
ATOM     19  C   UNL     1      -5.170   6.623  10.003  0.00  0.00    +0.000 A 
ATOM     20  C   UNL     1      -5.029   6.848   8.646  0.00  0.00    +0.000 A 
ATOM     21  C   UNL     1      -5.220   5.813   7.750  0.00  0.00    +0.002 A 
ATOM     22  C   UNL     1      -5.552   4.553   8.211  0.00  0.00    -0.052 A 
ENDBRANCH   1  22
BRANCH  14  23
ATOM     23  C   UNL     1      -3.566   3.722   6.251  0.00  0.00    -0.034 C 
BRANCH  23  24
ATOM     24  C   UNL     1      -2.825   3.756   4.939  0.00  0.00    -0.025 A 
ATOM     25  C   UNL     1      -2.427   4.829   4.213  0.00  0.00    +0.011 A 
ATOM     26  C   UNL     1      -1.748   4.623   3.026  0.00  0.00    +0.031 A 
ATOM     27  C   UNL     1      -1.511   3.345   2.619  0.00  0.00    +0.072 A 
ATOM     28  S   UNL     1      -2.247   2.395   3.940  0.00  0.00    -0.080 S 
BRANCH  27  29
ATOM     29  N   UNL     1      -0.857   2.894   1.470  0.00  0.00    -0.280 N 
ATOM     30  C   UNL     1      -0.718   1.572   1.248  0.00  0.00    +0.214 C 
ATOM     31  O   UNL     1      -1.161   0.773   2.046  0.00  0.00    -0.276 OA
ATOM     32  C   UNL     1      -0.013   1.086   0.008  0.00  0.00    +0.109 C 
ATOM     33  H   UNL     1      -0.503   3.533   0.831  0.00  0.00    +0.155 HD
ENDBRANCH  27  29
ENDBRANCH  23  24
ENDBRANCH  14  23
TORSDOF 4
