REMARK  Name = ZINC39198092
REMARK  14 active torsions:
REMARK  status: ('A' for Active; 'I' for Inactive)
REMARK    1  A    between atoms: C_1  and  C_2
REMARK    2  A    between atoms: C_2  and  C_4
REMARK    3  A    between atoms: C_2  and  C_9
REMARK    4  A    between atoms: C_4  and  S_5
REMARK    5  A    between atoms: S_5  and  C_6
REMARK    6  A    between atoms: C_6  and  C_8
REMARK    7  A    between atoms: C_15  and  C_17
REMARK    8  A    between atoms: C_22  and  C_25
REMARK    9  A    between atoms: C_25  and  C_26
REMARK   10  A    between atoms: C_26  and  C_27
REMARK   11  A    between atoms: C_27  and  C_28
REMARK   12  A    between atoms: N_31  and  C_34
REMARK   13  A    between atoms: C_34  and  C_35
REMARK   14  A    between atoms: C_35  and  O_36
REMARK                            x       y       z     vdW  Elec       q    Type
REMARK                         _______ _______ _______ _____ _____    ______ ____
ROOT
ATOM      1  C   UNL     1       3.181  -1.903   2.130  0.00  0.00    +0.236 C 
ATOM      2  O   UNL     1       2.546  -2.518   1.298  0.00  0.00    -0.274 OA
ATOM      3  N   UNL     1       4.084  -2.545   2.897  0.00  0.00    -0.300 N 
ATOM      4  C   UNL     1       4.778  -1.840   3.984  0.00  0.00    +0.108 C 
ATOM      5  C   UNL     1       6.289  -2.017   3.800  0.00  0.00    +0.022 C 
ATOM      6  C   UNL     1       6.617  -3.509   3.708  0.00  0.00    -0.008 C 
ATOM      7  C   UNL     1       5.909  -4.115   2.494  0.00  0.00    +0.022 C 
ATOM      8  C   UNL     1       4.390  -3.963   2.667  0.00  0.00    +0.108 C 
ENDROOT
BRANCH   1  15
ATOM      9  C   UNL     1       0.456  -0.501   2.194  0.00  0.00    +0.220 C 
ATOM     10  O   UNL     1       0.401  -1.224   3.166  0.00  0.00    -0.275 OA
ATOM     11  N   UNL     1       1.647  -0.046   1.759  0.00  0.00    -0.290 N 
ATOM     12  C   UNL     1       1.850   0.917   0.661  0.00  0.00    +0.108 C 
ATOM     13  C   UNL     1       3.226   1.567   0.954  0.00  0.00    +0.021 C 
ATOM     14  C   UNL     1       4.027   0.361   1.513  0.00  0.00    +0.033 C 
ATOM     15  C   UNL     1       2.959  -0.423   2.304  0.00  0.00    +0.162 C 
BRANCH   9  17
ATOM     16  C   UNL     1      -1.379   1.165   2.095  0.00  0.00    +0.018 C 
ATOM     17  C   UNL     1      -0.809  -0.112   1.472  0.00  0.00    +0.082 C 
BRANCH  17  18
ATOM     18  C   UNL     1      -1.834  -1.240   1.595  0.00  0.00    +0.089 C 
BRANCH  18  19
ATOM     19  S   UNL     1      -3.300  -0.836   0.605  0.00  0.00    -0.088 S 
BRANCH  19  20
ATOM     20  C   UNL     1      -4.309  -2.134   0.833  0.00  0.00    +0.186 C 
ATOM     21  O   UNL     1      -3.963  -3.054   1.544  0.00  0.00    -0.286 OA
ATOM     22  C   UNL     1      -5.656  -2.169   0.158  0.00  0.00    +0.099 C 
ENDBRANCH  19  20
ENDBRANCH  18  19
ENDBRANCH  17  18
ENDBRANCH   9  17
ENDBRANCH   1  15
BRANCH   6  23
ATOM     23  C   UNL     1       8.129  -3.690   3.559  0.00  0.00    +0.003 C 
BRANCH  23  24
ATOM     24  C   UNL     1       8.469  -5.181   3.593  0.00  0.00    +0.001 C 
BRANCH  24  25
ATOM     25  C   UNL     1       9.981  -5.363   3.444  0.00  0.00    +0.003 C 
BRANCH  25  26
ATOM     26  C   UNL     1      10.322  -6.854   3.478  0.00  0.00    -0.014 C 
ATOM     27  C   UNL     1       9.988  -7.425   4.859  0.00  0.00    -0.015 C 
ATOM     28  C   UNL     1      10.405  -8.896   4.911  0.00  0.00    -0.078 C 
ATOM     29  N   UNL     1      11.848  -9.009   4.669  0.00  0.00    +0.381 N 
ATOM     30  C   UNL     1      12.165  -8.530   3.318  0.00  0.00    -0.078 C 
ATOM     31  C   UNL     1      11.816  -7.045   3.204  0.00  0.00    -0.015 C 
ATOM     32  H   UNL     1      12.347  -8.453   5.347  0.00  0.00    -0.082 HD
BRANCH  29  33
ATOM     33  C   UNL     1      12.256 -10.414   4.797  0.00  0.00    -0.051 C 
BRANCH  33  34
ATOM     34  C   UNL     1      13.777 -10.517   4.668  0.00  0.00    +0.137 C 
BRANCH  34  35
ATOM     35  O   UNL     1      14.395  -9.843   5.766  0.00  0.00    -0.397 OA
ATOM     36  H   UNL     1      15.362  -9.868   5.749  0.00  0.00    +0.209 HD
ENDBRANCH  34  35
ENDBRANCH  33  34
ENDBRANCH  29  33
ENDBRANCH  25  26
ENDBRANCH  24  25
ENDBRANCH  23  24
ENDBRANCH   6  23
TORSDOF 12
