REMARK  Name = ZINC39440843
REMARK  6 active torsions:
REMARK  status: ('A' for Active; 'I' for Inactive)
REMARK    1  A    between atoms: C_1  and  C_2
REMARK    2  A    between atoms: C_4  and  C_15
REMARK    3  A    between atoms: C_5  and  C_14
REMARK    4  A    between atoms: N_7  and  C_8
REMARK    5  A    between atoms: N_22  and  C_23
REMARK    6  A    between atoms: C_23  and  C_24
REMARK                            x       y       z     vdW  Elec       q    Type
REMARK                         _______ _______ _______ _____ _____    ______ ____
ROOT
ATOM      1  C   UNL     1       0.364  -0.275  -2.653  0.00  0.00    +0.050 C 
ATOM      2  C   UNL     1       0.490   1.189  -2.963  0.00  0.00    +0.204 C 
ATOM      3  O   UNL     1       1.448   1.795  -2.531  0.00  0.00    -0.277 OA
ATOM      4  N   UNL     1      -0.411   1.852  -3.697  0.00  0.00    -0.318 N 
ATOM      5  C   UNL     1      -1.609   1.214  -4.237  0.00  0.00    +0.085 C 
ATOM      6  C   UNL     1      -1.442  -0.307  -4.221  0.00  0.00    -0.058 C 
ATOM      7  N   UNL     1      -1.018  -0.719  -2.874  0.00  0.00    +0.396 N 
ATOM      8  H   UNL     1      -0.263   2.793  -3.878  0.00  0.00    +0.149 HD
ATOM      9  H   UNL     1      -1.622  -0.298  -2.184  0.00  0.00    -0.080 HD
ENDROOT
BRANCH   1  12
ATOM     10  C   UNL     1      -0.019   1.526   0.010  0.00  0.00    +0.034 C 
ATOM     11  C   UNL     1       0.002  -0.004   0.002  0.00  0.00    +0.117 C 
ATOM     12  C   UNL     1       0.742  -0.515  -1.214  0.00  0.00    -0.035 C 
ATOM     13  C   UNL     1       1.776  -1.208  -0.786  0.00  0.00    +0.019 C 
ATOM     14  N   UNL     1       1.841  -1.238   0.593  0.00  0.00    -0.268 N 
ATOM     15  N   UNL     1       0.773  -0.514   1.148  0.00  0.00    -0.247 N 
ATOM     16  C   UNL     1       2.770  -1.887  -1.693  0.00  0.00    +0.062 C 
ATOM     17  H   UNL     1       2.526  -1.695   1.106  0.00  0.00    +0.170 HD
BRANCH  15  18
ATOM     18  C   UNL     1       0.499  -0.317   2.504  0.00  0.00    +0.048 A 
ATOM     19  C   UNL     1      -0.609   0.428   2.889  0.00  0.00    +0.025 A 
ATOM     20  C   UNL     1      -0.877   0.620   4.230  0.00  0.00    +0.002 A 
ATOM     21  C   UNL     1      -0.044   0.074   5.189  0.00  0.00    +0.000 A 
ATOM     22  C   UNL     1       1.060  -0.667   4.809  0.00  0.00    +0.002 A 
ATOM     23  C   UNL     1       1.331  -0.869   3.470  0.00  0.00    +0.025 A 
ENDBRANCH  15  18
ENDBRANCH   1  12
BRANCH   7  24
ATOM     24  C   UNL     1      -1.088  -2.182  -2.765  0.00  0.00    -0.002 C 
BRANCH  24  25
ATOM     25  C   UNL     1      -2.525  -2.626  -2.870  0.00  0.00    +0.094 A 
ATOM     26  N   UNL     1      -2.797  -3.954  -2.787  0.00  0.00    -0.312 N 
ATOM     27  H   UNL     1      -2.072  -4.586  -2.662  0.00  0.00    +0.170 HD
ATOM     28  C   UNL     1      -4.071  -4.403  -2.874  0.00  0.00    +0.259 A 
ATOM     29  O   UNL     1      -4.329  -5.591  -2.801  0.00  0.00    -0.267 OA
ATOM     30  C   UNL     1      -5.130  -3.402  -3.062  0.00  0.00    +0.065 A 
ATOM     31  C   UNL     1      -6.473  -3.760  -3.164  0.00  0.00    +0.017 A 
ATOM     32  C   UNL     1      -7.426  -2.781  -3.340  0.00  0.00    +0.021 A 
ATOM     33  C   UNL     1      -7.058  -1.443  -3.415  0.00  0.00    +0.043 A 
ATOM     34  C   UNL     1      -5.735  -1.068  -3.315  0.00  0.00    +0.048 A 
ATOM     35  C   UNL     1      -4.752  -2.042  -3.137  0.00  0.00    +0.079 A 
ATOM     36  N   UNL     1      -3.439  -1.718  -3.030  0.00  0.00    -0.236 NA
ATOM     37 CL   UNL     1      -8.279  -0.229  -3.637  0.00  0.00    -0.083 Cl
ENDBRANCH  24  25
ENDBRANCH   7  24
TORSDOF 4
