REMARK  Name = ZINC08812219
REMARK  12 active torsions:
REMARK  status: ('A' for Active; 'I' for Inactive)
REMARK    1  A    between atoms: C_1  and  C_2
REMARK    2  A    between atoms: C_2  and  C_3
REMARK    3  A    between atoms: N_7  and  C_16
REMARK    4  A    between atoms: C_10  and  C_15
REMARK    5  A    between atoms: C_16  and  C_17
REMARK    6  A    between atoms: N_19  and  C_20
REMARK    7  A    between atoms: C_20  and  C_21
REMARK    8  A    between atoms: C_26  and  C_27
REMARK    9  A    between atoms: C_26  and  N_72
REMARK   10  A    between atoms: C_32  and  O_33
REMARK   11  A    between atoms: O_33  and  C_34
REMARK   12  A    between atoms: C_34  and  C_35
REMARK                            x       y       z     vdW  Elec       q    Type
REMARK                         _______ _______ _______ _____ _____    ______ ____
ROOT
ATOM      1  C   UNL     1      -3.117   4.164  -6.608  0.00  0.00    +0.231 C 
ATOM      2  O   UNL     1      -3.912   3.647  -7.363  0.00  0.00    -0.274 OA
ATOM      3  N   UNL     1      -3.022   3.737  -5.333  0.00  0.00    -0.314 N 
ATOM      4  H   UNL     1      -2.386   4.151  -4.729  0.00  0.00    +0.149 HD
ENDROOT
BRANCH   1   5
ATOM      5  C   UNL     1      -2.234   5.284  -7.095  0.00  0.00    +0.209 C 
BRANCH   5   9
ATOM      6  C   UNL     1      -3.664   6.836 -10.290  0.00  0.00    +0.259 C 
ATOM      7  C   UNL     1      -3.471   6.463  -8.841  0.00  0.00    +0.261 C 
ATOM      8  O   UNL     1      -4.161   6.973  -7.984  0.00  0.00    -0.271 OA
ATOM      9  N   UNL     1      -2.527   5.560  -8.504  0.00  0.00    -0.256 N 
ATOM     10  C   UNL     1      -1.827   4.893  -9.518  0.00  0.00    +0.079 A 
ATOM     11  C   UNL     1      -0.703   4.139  -9.221  0.00  0.00    +0.030 A 
ATOM     12  C   UNL     1      -0.019   3.494 -10.234  0.00  0.00    -0.048 A 
ATOM     13  C   UNL     1      -0.456   3.595 -11.542  0.00  0.00    +0.007 A 
ATOM     14  C   UNL     1      -1.583   4.337 -11.845  0.00  0.00    +0.048 A 
ATOM     15  C   UNL     1      -2.277   4.982 -10.834  0.00  0.00    +0.143 A 
ATOM     16  O   UNL     1      -3.395   5.703 -11.118  0.00  0.00    -0.478 OA
ATOM     17  C   UNL     1       1.206   2.678  -9.912  0.00  0.00    +0.044 C 
BRANCH   6  19
ATOM     18  C   UNL     1      -2.987   8.435 -12.086  0.00  0.00    +0.008 C 
ATOM     19  C   UNL     1      -2.707   7.972 -10.655  0.00  0.00    +0.051 C 
ENDBRANCH   6  19
ENDBRANCH   5   9
ENDBRANCH   1   5
BRANCH   3  20
ATOM     20  C   UNL     1      -3.880   2.648  -4.860  0.00  0.00    +0.107 C 
BRANCH  20  21
ATOM     21  C   UNL     1      -3.574   2.360  -3.389  0.00  0.00    +0.003 C 
ATOM     22  C   UNL     1      -4.554   1.310  -2.858  0.00  0.00    -0.014 C 
ATOM     23  C   UNL     1      -4.205   0.982  -1.405  0.00  0.00    -0.078 C 
ATOM     24  C   UNL     1      -1.866   1.483  -1.793  0.00  0.00    -0.078 C 
ATOM     25  C   UNL     1      -2.145   1.826  -3.258  0.00  0.00    -0.014 C 
ATOM     26  N   UNL     1      -2.826   0.450  -1.351  0.00  0.00    +0.382 N 
ATOM     27  H   UNL     1      -2.757  -0.360  -1.978  0.00  0.00    -0.081 HD
BRANCH  26  28
ATOM     28  C   UNL     1      -2.505   0.019   0.025  0.00  0.00    -0.039 C 
BRANCH  28  29
ATOM     29  C   UNL     1      -1.189  -0.715   0.010  0.00  0.00    -0.022 A 
ATOM     30  C   UNL     1      -1.167  -2.096   0.002  0.00  0.00    +0.005 A 
ATOM     31  C   UNL     1       0.040  -2.770  -0.013  0.00  0.00    +0.000 A 
ATOM     32  C   UNL     1       1.228  -2.064  -0.021  0.00  0.00    +0.004 A 
ATOM     33  C   UNL     1       1.212  -0.682  -0.019  0.00  0.00    +0.046 A 
ATOM     34  C   UNL     1       0.002  -0.004   0.002  0.00  0.00    +0.122 A 
BRANCH  34  35
ATOM     35  O   UNL     1      -0.016   1.355   0.009  0.00  0.00    -0.492 OA
BRANCH  35  36
ATOM     36  C   UNL     1       1.248   2.021   0.001  0.00  0.00    +0.225 C 
ATOM     37  C   UNL     1       1.027   3.535   0.011  0.00  0.00    +0.048 C 
ENDBRANCH  35  36
ENDBRANCH  34  35
ENDBRANCH  28  29
ENDBRANCH  26  28
ENDBRANCH  20  21
ENDBRANCH   3  20
TORSDOF 9
