REMARK  Name = ZINC61827736
REMARK  8 active torsions:
REMARK  status: ('A' for Active; 'I' for Inactive)
REMARK    1  A    between atoms: C_1  and  C_2
REMARK    2  A    between atoms: C_2  and  C_3
REMARK    3  A    between atoms: C_12  and  C_14
REMARK    4  A    between atoms: C_14  and  C_15
REMARK    5  A    between atoms: C_15  and  C_16
REMARK    6  A    between atoms: C_15  and  C_17
REMARK    7  A    between atoms: C_15  and  C_18
REMARK    8  A    between atoms: C_18  and  C_19
REMARK                            x       y       z     vdW  Elec       q    Type
REMARK                         _______ _______ _______ _____ _____    ______ ____
ROOT
ATOM      1  C   UNL     1       0.765  -0.382  -1.267  0.00  0.00    +0.077 C 
ATOM      2  C   UNL     1       0.893  -1.917  -1.366  0.00  0.00    +0.024 C 
ATOM      3  C   UNL     1       0.711  -2.183  -2.884  0.00  0.00    +0.021 C 
ATOM      4  C   UNL     1      -0.335  -1.106  -3.265  0.00  0.00    +0.110 C 
ATOM      5  N   UNL     1       0.025   0.075  -2.453  0.00  0.00    -0.282 N 
ATOM      6  C   UNL     1      -0.275   1.356  -2.746  0.00  0.00    +0.309 C 
ATOM      7  O   UNL     1       0.152   2.255  -2.049  0.00  0.00    -0.252 OA
ATOM      8  N   UNL     1      -1.048   1.639  -3.813  0.00  0.00    -0.240 N 
ATOM      9  C   UNL     1      -1.348   2.920  -4.106  0.00  0.00    +0.221 C 
ATOM     10  O   UNL     1      -0.922   3.817  -3.411  0.00  0.00    -0.275 OA
ATOM     11  H   UNL     1      -1.389   0.922  -4.369  0.00  0.00    +0.159 HD
ENDROOT
BRANCH   1  13
ATOM     12  C   UNL     1       0.838  -0.362   1.230  0.00  0.00    +0.006 C 
ATOM     13  C   UNL     1      -0.002  -0.005   0.002  0.00  0.00    +0.019 C 
ENDBRANCH   1  13
BRANCH   9  14
ATOM     14  C   UNL     1      -2.213   3.237  -5.299  0.00  0.00    +0.103 C 
BRANCH  14  15
ATOM     15  C   UNL     1      -2.398   4.752  -5.406  0.00  0.00    -0.016 C 
ATOM     16  C   UNL     1      -3.071   5.275  -4.135  0.00  0.00    +0.012 C 
ATOM     17  C   UNL     1      -1.033   5.422  -5.573  0.00  0.00    +0.012 C 
BRANCH  15  18
ATOM     18  C   UNL     1      -3.276   5.074  -6.617  0.00  0.00    +0.132 C 
BRANCH  18  19
ATOM     19  C   UNL     1      -3.459   6.566  -6.722  0.00  0.00    +0.357 C 
ATOM     20  O   UNL     1      -2.935   7.304  -5.905  0.00  0.00    -0.246 OA
ATOM     21  O   UNL     1      -4.130   7.036  -7.625  0.00  0.00    -0.246 OA
ENDBRANCH  18  19
ENDBRANCH  15  18
ENDBRANCH  14  15
ENDBRANCH   9  14
TORSDOF 5
