REMARK  Name = ZINC39578868
REMARK  9 active torsions:
REMARK  status: ('A' for Active; 'I' for Inactive)
REMARK    1  A    between atoms: C_1  and  C_2
REMARK    2  A    between atoms: C_2  and  N_3
REMARK    3  A    between atoms: N_3  and  C_4
REMARK    4  A    between atoms: N_3  and  S_6
REMARK    5  A    between atoms: C_4  and  C_5
REMARK    6  A    between atoms: S_6  and  C_9
REMARK    7  A    between atoms: C_14  and  C_17
REMARK    8  A    between atoms: C_18  and  C_19
REMARK    9  A    between atoms: N_30  and  C_31
REMARK                            x       y       z     vdW  Elec       q    Type
REMARK                         _______ _______ _______ _____ _____    ______ ____
ROOT
ATOM      1  C   UNL     1       2.873   2.852  -6.317  0.00  0.00    +0.009 C 
ATOM      2  C   UNL     1       3.466   3.626  -7.217  0.00  0.00    +0.016 C 
ENDROOT
BRANCH   2   3
ATOM      3  C   UNL     1       2.732   4.812  -7.790  0.00  0.00    +0.190 C 
ATOM      4  N   UNL     1       2.489   4.589  -9.219  0.00  0.00    -0.322 N 
ATOM      5  C   UNL     1       3.540   4.760 -10.113  0.00  0.00    +0.041 A 
ATOM      6  C   UNL     1       3.608   4.055 -11.303  0.00  0.00    +0.024 A 
ATOM      7  C   UNL     1       4.668   4.268 -12.164  0.00  0.00    +0.002 A 
ATOM      8  C   UNL     1       5.662   5.180 -11.846  0.00  0.00    +0.001 A 
ATOM      9  C   UNL     1       5.612   5.887 -10.663  0.00  0.00    +0.015 A 
ATOM     10  C   UNL     1       4.551   5.679  -9.783  0.00  0.00    +0.058 A 
ATOM     11  C   UNL     1       4.465   6.392  -8.496  0.00  0.00    +0.254 C 
ATOM     12  O   UNL     1       5.225   7.309  -8.251  0.00  0.00    -0.270 OA
ATOM     13  N   UNL     1       3.538   6.018  -7.598  0.00  0.00    -0.245 N 
ATOM     14  H   UNL     1       1.610   4.326  -9.536  0.00  0.00    +0.148 HD
BRANCH  13  15
ATOM     15  C   UNL     1       3.342   6.800  -6.455  0.00  0.00    +0.039 A 
ATOM     16  C   UNL     1       4.351   6.915  -5.508  0.00  0.00    +0.023 A 
ATOM     17  C   UNL     1       4.155   7.688  -4.381  0.00  0.00    +0.002 A 
ATOM     18  C   UNL     1       2.954   8.348  -4.194  0.00  0.00    +0.000 A 
ATOM     19  C   UNL     1       1.946   8.236  -5.135  0.00  0.00    +0.002 A 
ATOM     20  C   UNL     1       2.139   7.469  -6.267  0.00  0.00    +0.023 A 
ENDBRANCH  13  15
ENDBRANCH   2   3
BRANCH   1  26
ATOM     21  C   UNL     1      -1.170   0.342  -6.927  0.00  0.00    +0.087 C 
ATOM     22  C   UNL     1      -2.180   1.041  -6.388  0.00  0.00    +0.026 C 
ATOM     23  C   UNL     1      -1.995   2.284  -5.773  0.00  0.00    +0.029 C 
ATOM     24  C   UNL     1      -0.752   2.897  -5.668  0.00  0.00    +0.068 C 
ATOM     25  C   UNL     1       0.394   2.259  -6.198  0.00  0.00    -0.008 C 
ATOM     26  C   UNL     1       1.464   3.091  -5.950  0.00  0.00    -0.002 C 
ATOM     27  C   UNL     1       0.944   4.220  -5.272  0.00  0.00    +0.119 C 
ATOM     28  N   UNL     1      -0.349   4.074  -5.125  0.00  0.00    -0.255 NA
ATOM     29  C   UNL     1       0.231   0.916  -6.863  0.00  0.00    +0.094 C 
BRANCH  21  30
ATOM     30  S   UNL     1      -1.465  -1.218  -7.689  0.00  0.00    +0.057 S 
ATOM     31  O   UNL     1      -0.625  -1.277  -8.833  0.00  0.00    -0.153 OA
ATOM     32  O   UNL     1      -2.876  -1.370  -7.771  0.00  0.00    -0.153 OA
BRANCH  30  33
ATOM     33  N   UNL     1      -0.924  -2.384  -6.644  0.00  0.00    -0.177 NA
BRANCH  33  35
ATOM     34  C   UNL     1      -1.657  -2.197  -4.318  0.00  0.00    +0.022 C 
ATOM     35  C   UNL     1      -1.832  -2.946  -5.641  0.00  0.00    +0.106 C 
ENDBRANCH  33  35
BRANCH  33  36
ATOM     36  C   UNL     1       0.462  -2.852  -6.723  0.00  0.00    +0.106 C 
ATOM     37  C   UNL     1       0.525  -4.114  -7.586  0.00  0.00    +0.022 C 
ENDBRANCH  33  36
ENDBRANCH  30  33
ENDBRANCH  21  30
ENDBRANCH   1  26
TORSDOF 7
