REMARK  Name = ZINC40270221
REMARK  3 active torsions:
REMARK  status: ('A' for Active; 'I' for Inactive)
REMARK    1  A    between atoms: C_1  and  C_2
REMARK    2  A    between atoms: C_5  and  C_9
REMARK    3  A    between atoms: C_9  and  C_11
REMARK                            x       y       z     vdW  Elec       q    Type
REMARK                         _______ _______ _______ _____ _____    ______ ____
ROOT
ATOM      1  C   UNL     1      -1.161  -4.800   0.689  0.00  0.00    -0.023 A 
ATOM      2  C   UNL     1      -1.378  -4.471   2.016  0.00  0.00    +0.007 A 
ATOM      3  C   UNL     1      -2.493  -4.945   2.678  0.00  0.00    +0.028 A 
ATOM      4  C   UNL     1      -3.400  -5.755   2.011  0.00  0.00    +0.067 A 
ATOM      5  C   UNL     1      -3.181  -6.087   0.672  0.00  0.00    +0.067 A 
ATOM      6  C   UNL     1      -2.061  -5.601   0.014  0.00  0.00    +0.033 A 
ATOM      7  N   UNL     1      -4.244  -6.897   0.280  0.00  0.00    -0.306 N 
ATOM      8  H   UNL     1      -4.367  -7.285  -0.601  0.00  0.00    +0.170 HD
ATOM      9  C   UNL     1      -5.070  -7.051   1.331  0.00  0.00    +0.325 A 
ATOM     10  O   UNL     1      -6.097  -7.704   1.326  0.00  0.00    -0.247 OA
ATOM     11  N   UNL     1      -4.588  -6.374   2.390  0.00  0.00    -0.306 N 
ATOM     12  H   UNL     1      -4.998  -6.325   3.268  0.00  0.00    +0.170 HD
ENDROOT
BRANCH   1  13
ATOM     13  C   UNL     1       0.059  -4.277  -0.024  0.00  0.00    +0.140 C 
ATOM     14 CL   UNL     1       1.534  -4.688   0.928  0.00  0.00    -0.112 Cl
BRANCH  13  19
ATOM     15  C   UNL     1      -0.339   1.464  -0.568  0.00  0.00    +0.047 C 
ATOM     16  C   UNL     1      -0.236  -0.033  -0.427  0.00  0.00    -0.015 A 
ATOM     17  C   UNL     1      -0.089  -0.601   0.825  0.00  0.00    +0.006 A 
ATOM     18  C   UNL     1       0.006  -1.974   0.955  0.00  0.00    +0.006 A 
ATOM     19  C   UNL     1      -0.046  -2.780  -0.167  0.00  0.00    -0.023 A 
ATOM     20  C   UNL     1      -0.193  -2.215  -1.419  0.00  0.00    +0.044 A 
ATOM     21  C   UNL     1      -0.293  -0.840  -1.550  0.00  0.00    +0.127 A 
ATOM     22  F   UNL     1      -0.442  -0.286  -2.773  0.00  0.00    -0.205 F 
ENDBRANCH  13  19
ENDBRANCH   1  13
TORSDOF 2
