REMARK  Name = ZINC57536821
REMARK  3 active torsions:
REMARK  status: ('A' for Active; 'I' for Inactive)
REMARK    1  A    between atoms: C_1  and  C_2
REMARK    2  A    between atoms: N_4  and  C_5
REMARK    3  A    between atoms: C_15  and  C_18
REMARK                            x       y       z     vdW  Elec       q    Type
REMARK                         _______ _______ _______ _____ _____    ______ ____
ROOT
ATOM      1  C   UNL     1      -0.070   1.587   0.657  0.00  0.00    +0.110 C 
ATOM      2  C   UNL     1      -0.012   0.081   0.637  0.00  0.00    +0.223 C 
ATOM      3  O   UNL     1       1.058  -0.485   0.709  0.00  0.00    -0.275 OA
ATOM      4  N   UNL     1      -1.149  -0.636   0.541  0.00  0.00    -0.216 N 
ATOM      5  C   UNL     1      -2.364   0.010   0.347  0.00  0.00    +0.172 A 
ATOM      6  N   UNL     1      -2.600   1.294   0.183  0.00  0.00    -0.225 NA
ATOM      7  C   UNL     1      -3.865   1.694   0.011  0.00  0.00    +0.074 A 
ATOM      8  C   UNL     1      -4.864   0.737   0.015  0.00  0.00    +0.076 A 
ATOM      9  S   UNL     1      -4.002  -0.689   0.250  0.00  0.00    -0.059 S 
ENDROOT
BRANCH   7  10
ATOM     10  C   UNL     1      -4.185   3.107  -0.175  0.00  0.00    +0.042 C 
ATOM     11  C   UNL     1      -3.451   3.869  -1.059  0.00  0.00    +0.048 C 
ATOM     12  C   UNL     1      -3.557   5.327  -1.296  0.00  0.00    +0.008 A 
ATOM     13  C   UNL     1      -4.360   6.325  -0.754  0.00  0.00    +0.010 A 
ATOM     14  C   UNL     1      -4.221   7.627  -1.190  0.00  0.00    +0.001 A 
ATOM     15  C   UNL     1      -3.286   7.937  -2.163  0.00  0.00    +0.002 A 
ATOM     16  C   UNL     1      -2.485   6.954  -2.707  0.00  0.00    +0.024 A 
ATOM     17  C   UNL     1      -2.610   5.636  -2.280  0.00  0.00    +0.042 A 
ATOM     18  N   UNL     1      -1.943   4.476  -2.654  0.00  0.00    -0.281 N 
ATOM     19  C   UNL     1      -2.391   3.411  -1.967  0.00  0.00    +0.249 C 
ATOM     20  O   UNL     1      -1.990   2.266  -2.080  0.00  0.00    -0.270 OA
ATOM     21  H   UNL     1      -1.241   4.440  -3.322  0.00  0.00    +0.155 HD
ENDBRANCH   7  10
BRANCH   4  22
ATOM     22  C   UNL     1      -1.106  -2.035   0.635  0.00  0.00    +0.078 A 
ATOM     23  C   UNL     1      -1.239  -2.653   1.871  0.00  0.00    +0.029 A 
ATOM     24  C   UNL     1      -1.197  -4.030   1.962  0.00  0.00    +0.040 A 
ATOM     25  C   UNL     1      -1.021  -4.797   0.822  0.00  0.00    +0.126 A 
ATOM     26  C   UNL     1      -0.887  -4.184  -0.413  0.00  0.00    +0.078 A 
ATOM     27  C   UNL     1      -0.935  -2.805  -0.510  0.00  0.00    +0.148 A 
ATOM     28  F   UNL     1      -0.810  -2.207  -1.715  0.00  0.00    -0.203 F 
ATOM     29  F   UNL     1      -0.979  -6.144   0.914  0.00  0.00    -0.205 F 
ENDBRANCH   4  22
TORSDOF 2
