REMARK  Name = ZINC08668401
REMARK  11 active torsions:
REMARK  status: ('A' for Active; 'I' for Inactive)
REMARK    1  A    between atoms: C_1  and  C_2
REMARK    2  A    between atoms: C_3  and  C_32
REMARK    3  A    between atoms: C_4  and  C_31
REMARK    4  A    between atoms: C_7  and  C_8
REMARK    5  A    between atoms: C_8  and  C_10
REMARK    6  A    between atoms: C_10  and  O_11
REMARK    7  A    between atoms: O_11  and  C_12
REMARK    8  A    between atoms: C_12  and  C_14
REMARK    9  A    between atoms: N_23  and  C_25
REMARK   10  A    between atoms: C_32  and  O_34
REMARK   11  A    between atoms: O_34  and  C_35
REMARK                            x       y       z     vdW  Elec       q    Type
REMARK                         _______ _______ _______ _____ _____    ______ ____
ROOT
ATOM      1  C   UNL     1       2.332   4.386  -0.270  0.00  0.00    +0.360 C 
ATOM      2  O   UNL     1       3.420   3.848  -0.295  0.00  0.00    -0.243 OA
ENDROOT
BRANCH   1   3
ATOM      3  C   UNL     1       1.110   3.574  -0.123  0.00  0.00    +0.176 A 
ATOM      4  C   UNL     1       1.199   2.109  -0.004  0.00  0.00    +0.021 A 
ATOM      5  C   UNL     1       2.409   1.424  -0.026  0.00  0.00    +0.011 A 
ATOM      6  C   UNL     1       2.411   0.050   0.090  0.00  0.00    +0.001 A 
ATOM      7  C   UNL     1       1.222  -0.654   0.226  0.00  0.00    +0.001 A 
ATOM      8  C   UNL     1       0.011   0.006   0.250  0.00  0.00    +0.014 A 
ATOM      9  C   UNL     1      -0.012   1.392   0.135  0.00  0.00    +0.051 A 
ATOM     10  C   UNL     1      -1.257   2.173   0.144  0.00  0.00    +0.280 A 
ATOM     11  O   UNL     1      -2.336   1.622   0.256  0.00  0.00    -0.265 OA
ATOM     12  N   UNL     1      -1.175   3.514   0.030  0.00  0.00    -0.196 N 
ATOM     13  N   UNL     1      -0.070   4.147  -0.095  0.00  0.00    -0.156 NA
BRANCH  12  14
ATOM     14  C   UNL     1      -2.363   4.253   0.045  0.00  0.00    +0.069 A 
ATOM     15  C   UNL     1      -2.596   5.215  -0.930  0.00  0.00    +0.028 A 
ATOM     16  C   UNL     1      -3.772   5.939  -0.917  0.00  0.00    +0.002 A 
ATOM     17  C   UNL     1      -4.712   5.715   0.073  0.00  0.00    +0.000 A 
ATOM     18  C   UNL     1      -4.481   4.762   1.048  0.00  0.00    +0.002 A 
ATOM     19  C   UNL     1      -3.309   4.031   1.037  0.00  0.00    +0.028 A 
ENDBRANCH  12  14
ENDBRANCH   1   3
BRANCH   1  20
ATOM     20  O   UNL     1       2.240   5.727  -0.378  0.00  0.00    -0.452 OA
BRANCH  20  21
ATOM     21  C   UNL     1       3.484   6.463  -0.520  0.00  0.00    +0.313 C 
BRANCH  21  22
ATOM     22  C   UNL     1       3.186   7.936  -0.626  0.00  0.00    +0.217 C 
ATOM     23  O   UNL     1       2.037   8.328  -0.585  0.00  0.00    -0.287 OA
BRANCH  22  30
ATOM     24  C   UNL     1       2.827  11.014  -0.876  0.00  0.00    +0.047 C 
ATOM     25  C   UNL     1       4.114  10.231  -0.885  0.00  0.00    -0.008 A 
ATOM     26  C   UNL     1       5.418  10.757  -1.008  0.00  0.00    +0.083 A 
ATOM     27  C   UNL     1       6.296   9.687  -0.975  0.00  0.00    +0.028 A 
ATOM     28  N   UNL     1       5.589   8.556  -0.833  0.00  0.00    -0.355 N 
ATOM     29  H   UNL     1       5.964   7.663  -0.782  0.00  0.00    +0.166 HD
ATOM     30  C   UNL     1       4.245   8.864  -0.772  0.00  0.00    +0.090 A 
ATOM     31  C   UNL     1       7.796   9.778  -1.080  0.00  0.00    +0.064 C 
BRANCH  26  32
ATOM     32  C   UNL     1       5.777  12.178  -1.151  0.00  0.00    +0.341 C 
ATOM     33  O   UNL     1       5.858  12.676  -2.257  0.00  0.00    -0.245 OA
BRANCH  32  34
ATOM     34  O   UNL     1       6.016  12.927  -0.057  0.00  0.00    -0.464 OA
ATOM     35  C   UNL     1       6.365  14.319  -0.273  0.00  0.00    +0.280 C 
ENDBRANCH  32  34
ENDBRANCH  26  32
ENDBRANCH  22  30
ENDBRANCH  21  22
ENDBRANCH  20  21
ENDBRANCH   1  20
TORSDOF 8
