REMARK  Name = ZINC01630730
REMARK  11 active torsions:
REMARK  status: ('A' for Active; 'I' for Inactive)
REMARK    1  A    between atoms: C_1  and  C_2
REMARK    2  A    between atoms: C_4  and  C_22
REMARK    3  A    between atoms: C_4  and  C_23
REMARK    4  A    between atoms: C_10  and  O_11
REMARK    5  A    between atoms: C_14  and  C_20
REMARK    6  A    between atoms: C_15  and  O_18
REMARK    7  A    between atoms: O_18  and  C_19
REMARK    8  A    between atoms: C_23  and  C_24
REMARK    9  A    between atoms: C_24  and  C_25
REMARK   10  A    between atoms: C_26  and  C_27
REMARK   11  A    between atoms: C_26  and  C_28
REMARK                            x       y       z     vdW  Elec       q    Type
REMARK                         _______ _______ _______ _____ _____    ______ ____
ROOT
ATOM      1  C   UNL     1       1.907  -0.004  -7.263  0.00  0.00    +0.053 C 
ATOM      2  C   UNL     1       2.434  -0.243  -5.846  0.00  0.00    +0.181 C 
ATOM      3  C   UNL     1       1.471   0.356  -4.795  0.00  0.00    +0.037 C 
ATOM      4  C   UNL     1       2.060   1.738  -4.582  0.00  0.00    +0.046 A 
ATOM      5  C   UNL     1       3.339   1.722  -5.116  0.00  0.00    +0.129 A 
ATOM      6  C   UNL     1       4.118   2.885  -5.067  0.00  0.00    +0.058 A 
ATOM      7  C   UNL     1       3.616   4.038  -4.484  0.00  0.00    +0.043 A 
ATOM      8  C   UNL     1       2.318   4.045  -3.937  0.00  0.00    +0.075 A 
ATOM      9  C   UNL     1       1.543   2.883  -3.992  0.00  0.00    +0.136 A 
ATOM     10  C   UNL     1       1.796   5.274  -3.317  0.00  0.00    +0.197 C 
ATOM     11  O   UNL     1       0.676   5.288  -2.842  0.00  0.00    -0.287 OA
ATOM     12  C   UNL     1       2.626   6.483  -3.272  0.00  0.00    +0.042 C 
ATOM     13  C   UNL     1       3.870   6.488  -3.793  0.00  0.00    +0.174 C 
ATOM     14  C   UNL     1       4.430   5.272  -4.425  0.00  0.00    +0.229 C 
ATOM     15  O   UNL     1       5.551   5.287  -4.893  0.00  0.00    -0.283 OA
ATOM     16  C   UNL     1       2.082   7.736  -2.635  0.00  0.00    +0.052 C 
ATOM     17  O   UNL     1       3.647   0.496  -5.621  0.00  0.00    -0.488 OA
ATOM     18  C   UNL     1       0.047   0.447  -5.346  0.00  0.00    +0.020 C 
ENDROOT
BRANCH   9  19
ATOM     19  O   UNL     1       0.292   2.875  -3.470  0.00  0.00    -0.506 OA
ATOM     20  H   UNL     1       0.262   2.686  -2.522  0.00  0.00    +0.292 HD
ENDBRANCH   9  19
BRANCH  13  21
ATOM     21  O   UNL     1       4.614   7.618  -3.738  0.00  0.00    -0.491 OA
ATOM     22  C   UNL     1       5.780   7.587  -2.912  0.00  0.00    +0.277 C 
ENDBRANCH  13  21
BRANCH   3  23
ATOM     23  C   UNL     1       1.501  -0.457  -3.499  0.00  0.00    +0.019 C 
BRANCH  23  24
ATOM     24  C   UNL     1       0.859  -1.824  -3.739  0.00  0.00    +0.028 C 
BRANCH  24  25
ATOM     25  C   UNL     1       0.956  -2.652  -2.484  0.00  0.00    -0.028 C 
ATOM     26  C   UNL     1      -0.124  -3.180  -1.962  0.00  0.00    -0.080 C 
ATOM     27  C   UNL     1      -1.445  -3.052  -2.676  0.00  0.00    +0.038 C 
ATOM     28  C   UNL     1      -0.045  -3.915  -0.649  0.00  0.00    +0.038 C 
ENDBRANCH  24  25
ENDBRANCH  23  24
ENDBRANCH   3  23
TORSDOF 5
