REMARK  Name = ZINC23588386
REMARK  10 active torsions:
REMARK  status: ('A' for Active; 'I' for Inactive)
REMARK    1  A    between atoms: C_1  and  C_2
REMARK    2  A    between atoms: C_5  and  N_9
REMARK    3  A    between atoms: C_13  and  S_14
REMARK    4  A    between atoms: S_14  and  C_15
REMARK    5  A    between atoms: C_15  and  C_16
REMARK    6  A    between atoms: C_16  and  C_18
REMARK    7  A    between atoms: C_19  and  N_34
REMARK    8  A    between atoms: N_20  and  C_27
REMARK    9  A    between atoms: N_23  and  C_26
REMARK   10  A    between atoms: C_27  and  C_28
REMARK                            x       y       z     vdW  Elec       q    Type
REMARK                         _______ _______ _______ _____ _____    ______ ____
ROOT
ATOM      1  C   UNL     1       6.737   3.010  -4.613  0.00  0.00    +0.120 A 
ATOM      2  C   UNL     1       7.004   3.800  -5.744  0.00  0.00    +0.116 A 
ATOM      3  N   UNL     1       8.228   3.704  -6.343  0.00  0.00    -0.277 N 
ATOM      4  C   UNL     1       9.171   2.872  -5.873  0.00  0.00    +0.333 A 
ATOM      5  O   UNL     1      10.244   2.823  -6.443  0.00  0.00    -0.246 OA
ATOM      6  N   UNL     1       8.973   2.093  -4.798  0.00  0.00    -0.263 N 
ATOM      7  C   UNL     1       7.801   2.119  -4.131  0.00  0.00    +0.269 A 
ATOM      8  O   UNL     1       7.626   1.415  -3.153  0.00  0.00    -0.267 OA
ATOM      9  C   UNL     1      10.047   1.209  -4.338  0.00  0.00    +0.157 C 
ENDROOT
BRANCH   2  10
ATOM     10  N   UNL     1       6.059   4.648  -6.234  0.00  0.00    -0.344 N 
ATOM     11  H   UNL     1       6.278   5.263  -7.119  0.00  0.00    +0.144 HD
ATOM     12  H   UNL     1       5.077   4.719  -5.744  0.00  0.00    +0.144 HD
ENDBRANCH   2  10
BRANCH   1  13
ATOM     13  C   UNL     1       5.489   3.074  -3.958  0.00  0.00    +0.182 C 
ATOM     14  O   UNL     1       4.664   3.896  -4.302  0.00  0.00    -0.291 OA
BRANCH  13  15
ATOM     15  C   UNL     1       5.179   2.122  -2.831  0.00  0.00    +0.157 C 
BRANCH  15  16
ATOM     16  S   UNL     1       3.514   2.453  -2.202  0.00  0.00    -0.078 S 
BRANCH  16  21
ATOM     17  N   UNL     1       2.359   1.010  -0.098  0.00  0.00    -0.277 N 
ATOM     18  C   UNL     1       2.738  -0.029   0.709  0.00  0.00    +0.230 A 
ATOM     19  N   UNL     1       3.945  -0.372   0.358  0.00  0.00    -0.137 NA
ATOM     20  N   UNL     1       4.353   0.372  -0.607  0.00  0.00    -0.122 NA
ATOM     21  C   UNL     1       3.419   1.235  -0.933  0.00  0.00    +0.196 A 
BRANCH  17  26
ATOM     22  C   UNL     1      -2.591   3.788  -0.014  0.00  0.00    +0.045 C 
ATOM     23  C   UNL     1      -1.277   3.051  -0.036  0.00  0.00    -0.032 A 
ATOM     24  C   UNL     1      -1.262   1.669  -0.080  0.00  0.00    +0.007 A 
ATOM     25  C   UNL     1      -0.059   0.991  -0.095  0.00  0.00    +0.026 A 
ATOM     26  C   UNL     1       1.136   1.697  -0.078  0.00  0.00    +0.051 A 
ATOM     27  C   UNL     1       1.119   3.084  -0.040  0.00  0.00    +0.046 A 
ATOM     28  C   UNL     1      -0.088   3.759  -0.019  0.00  0.00    +0.046 A 
ATOM     29 CL   UNL     1      -0.112   5.494   0.027  0.00  0.00    -0.083 Cl
ENDBRANCH  17  26
ENDBRANCH  16  21
ENDBRANCH  15  16
ENDBRANCH  13  15
ENDBRANCH   1  13
BRANCH   3  30
ATOM     30  C   UNL     1       8.516   4.523  -7.523  0.00  0.00    +0.163 C 
BRANCH  30  31
ATOM     31  C   UNL     1       9.108   5.839  -7.088  0.00  0.00    -0.028 A 
ATOM     32  C   UNL     1       8.282   6.918  -6.833  0.00  0.00    +0.005 A 
ATOM     33  C   UNL     1       8.825   8.123  -6.429  0.00  0.00    +0.000 A 
ATOM     34  C   UNL     1      10.194   8.253  -6.291  0.00  0.00    +0.000 A 
ATOM     35  C   UNL     1      11.020   7.176  -6.551  0.00  0.00    +0.000 A 
ATOM     36  C   UNL     1      10.477   5.968  -6.949  0.00  0.00    +0.005 A 
ENDBRANCH  30  31
ENDBRANCH   3  30
TORSDOF 8
