REMARK  Name = ZINC39521754
REMARK  4 active torsions:
REMARK  status: ('A' for Active; 'I' for Inactive)
REMARK    1  A    between atoms: C_1  and  O_2
REMARK    2  A    between atoms: O_2  and  C_3
REMARK    3  A    between atoms: N_9  and  O_10
REMARK    4  A    between atoms: O_10  and  C_11
REMARK                            x       y       z     vdW  Elec       q    Type
REMARK                         _______ _______ _______ _____ _____    ______ ____
ROOT
ATOM      1  C   UNL     1       0.550  -0.571  -1.190  0.00  0.00    +0.213 C 
ATOM      2  C   UNL     1       0.637  -2.092  -1.037  0.00  0.00    +0.050 C 
ATOM      3  C   UNL     1       1.206  -2.696  -2.324  0.00  0.00    +0.006 C 
ATOM      4  C   UNL     1       0.316  -2.297  -3.504  0.00  0.00    +0.025 C 
ATOM      5  C   UNL     1       0.238  -0.771  -3.584  0.00  0.00    +0.051 C 
ATOM      6  N   UNL     1      -0.313  -0.241  -2.331  0.00  0.00    -0.154 NA
ATOM      7  C   UNL     1       1.640  -0.201  -3.809  0.00  0.00    +0.025 C 
ATOM      8  C   UNL     1       2.213  -0.756  -5.114  0.00  0.00    +0.003 C 
ATOM      9  C   UNL     1       1.307  -0.355  -6.280  0.00  0.00    +0.015 C 
ATOM     10  C   UNL     1      -0.095  -0.924  -6.056  0.00  0.00    +0.058 C 
ATOM     11  C   UNL     1      -0.668  -0.369  -4.750  0.00  0.00    +0.039 C 
ATOM     12 BR   UNL     1      -1.260  -0.408  -7.554  0.00  0.00    -0.088 Br
ENDROOT
BRANCH   1  14
ATOM     13  C   UNL     1       0.242   1.398   0.142  0.00  0.00    +0.196 C 
ATOM     14  O   UNL     1       0.002  -0.004   0.002  0.00  0.00    -0.363 OA
ENDBRANCH   1  14
BRANCH   6  15
ATOM     15  O   UNL     1      -0.530   1.203  -2.423  0.00  0.00    -0.297 OA
ATOM     16  C   UNL     1      -1.890   1.600  -2.236  0.00  0.00    +0.221 C 
ENDBRANCH   6  15
TORSDOF 2
