REMARK  Name = ZINC37258362
REMARK  6 active torsions:
REMARK  status: ('A' for Active; 'I' for Inactive)
REMARK    1  A    between atoms: C_1  and  C_2
REMARK    2  A    between atoms: C_4  and  S_10
REMARK    3  A    between atoms: C_6  and  C_7
REMARK    4  A    between atoms: S_10  and  N_13
REMARK    5  A    between atoms: N_13  and  C_14
REMARK    6  A    between atoms: C_14  and  C_15
REMARK                            x       y       z     vdW  Elec       q    Type
REMARK                         _______ _______ _______ _____ _____    ______ ____
ROOT
ATOM      1  S   UNL     1       0.033  -3.231  -2.437  0.00  0.00    +0.065 S 
ATOM      2  O   UNL     1      -0.498  -4.448  -1.932  0.00  0.00    -0.153 OA
ATOM      3  O   UNL     1      -0.533  -2.557  -3.553  0.00  0.00    -0.153 OA
ENDROOT
BRANCH   1   7
ATOM      4  C   UNL     1      -0.018   1.503   0.010  0.00  0.00    +0.045 C 
ATOM      5  C   UNL     1       0.002  -0.004   0.002  0.00  0.00    -0.027 A 
ATOM      6  C   UNL     1       0.006  -0.728  -1.164  0.00  0.00    +0.040 A 
ATOM      7  C   UNL     1       0.025  -2.084  -1.099  0.00  0.00    +0.143 A 
ATOM      8  S   UNL     1       0.037  -2.418   0.547  0.00  0.00    -0.062 S 
ATOM      9  C   UNL     1       0.024  -0.750   1.175  0.00  0.00    +0.105 A 
BRANCH   9  10
ATOM     10  C   UNL     1       0.031  -0.301   2.519  0.00  0.00    +0.393 C 
ATOM     11  O   UNL     1       0.017   0.899   2.764  0.00  0.00    -0.240 OA
ATOM     12  O   UNL     1       0.051  -1.113   3.436  0.00  0.00    -0.240 OA
ENDBRANCH   9  10
ENDBRANCH   1   7
BRANCH   1  13
ATOM     13  N   UNL     1       1.617  -3.528  -2.817  0.00  0.00    -0.189 NA
ATOM     14  H   UNL     1       1.968  -3.259  -3.681  0.00  0.00    +0.148 HD
BRANCH  13  15
ATOM     15  C   UNL     1       2.490  -4.197  -1.849  0.00  0.00    +0.109 C 
BRANCH  15  16
ATOM     16  C   UNL     1       3.757  -4.683  -2.555  0.00  0.00    +0.005 C 
ATOM     17  C   UNL     1       3.411  -5.818  -3.540  0.00  0.00    +0.005 C 
ATOM     18  C   UNL     1       4.612  -6.791  -3.436  0.00  0.00    +0.000 C 
ATOM     19  C   UNL     1       4.954  -6.750  -1.925  0.00  0.00    +0.000 C 
ATOM     20  C   UNL     1       4.738  -5.276  -1.528  0.00  0.00    +0.005 C 
ENDBRANCH  15  16
ENDBRANCH  13  15
ENDBRANCH   1  13
TORSDOF 5
