REMARK  Name = ZINC14625038
REMARK  4 active torsions:
REMARK  status: ('A' for Active; 'I' for Inactive)
REMARK    1  A    between atoms: N_7  and  C_11
REMARK    2  A    between atoms: C_11  and  C_12
REMARK    3  A    between atoms: C_17  and  C_25
REMARK    4  A    between atoms: C_18  and  C_20
REMARK                            x       y       z     vdW  Elec       q    Type
REMARK                         _______ _______ _______ _____ _____    ______ ____
ROOT
ATOM      1  C   UNL     1      -0.439   1.460   1.344  0.00  0.00    +0.239 C 
ATOM      2  O   UNL     1      -1.278   2.315   1.157  0.00  0.00    -0.273 OA
ATOM      3  N   UNL     1      -0.169   1.043   2.597  0.00  0.00    -0.263 N 
ATOM      4  C   UNL     1      -0.851   1.593   3.673  0.00  0.00    +0.166 A 
ATOM      5  N   UNL     1      -1.783   2.526   3.677  0.00  0.00    -0.223 NA
ATOM      6  C   UNL     1      -2.343   2.943   4.801  0.00  0.00    +0.095 A 
ATOM      7  C   UNL     1      -1.920   2.380   6.006  0.00  0.00    +0.056 A 
ATOM      8  S   UNL     1      -0.689   1.226   5.415  0.00  0.00    -0.051 S 
ATOM      9  H   UNL     1       0.503   0.359   2.746  0.00  0.00    +0.157 HD
ENDROOT
BRANCH   7  10
ATOM     10  C   UNL     1      -2.363   2.657   7.379  0.00  0.00    +0.028 A 
ATOM     11  C   UNL     1      -1.853   2.179   8.573  0.00  0.00    +0.017 A 
ATOM     12  C   UNL     1      -2.446   2.589   9.747  0.00  0.00    +0.008 A 
ATOM     13  C   UNL     1      -3.502   3.440   9.696  0.00  0.00    +0.046 A 
ATOM     14  S   UNL     1      -3.694   3.705   7.941  0.00  0.00    -0.096 S 
ENDBRANCH   7  10
BRANCH   6  15
ATOM     15  C   UNL     1      -3.388   3.984   4.782  0.00  0.00    +0.039 A 
ATOM     16  C   UNL     1      -3.521   5.090   5.581  0.00  0.00    +0.018 A 
ATOM     17  C   UNL     1      -4.592   5.932   5.372  0.00  0.00    +0.008 A 
ATOM     18  C   UNL     1      -5.484   5.637   4.393  0.00  0.00    +0.046 A 
ATOM     19  S   UNL     1      -4.815   4.126   3.718  0.00  0.00    -0.095 S 
ENDBRANCH   6  15
BRANCH   1  20
ATOM     20  C   UNL     1       0.302   0.863   0.175  0.00  0.00    +0.224 C 
BRANCH  20  27
ATOM     21  C   UNL     1      -3.057  -0.237  -2.743  0.00  0.00    +0.002 A 
ATOM     22  C   UNL     1      -3.152   0.641  -3.808  0.00  0.00    +0.004 A 
ATOM     23  C   UNL     1      -2.291   1.717  -3.905  0.00  0.00    +0.048 A 
ATOM     24  C   UNL     1      -1.319   1.913  -2.937  0.00  0.00    +0.157 A 
ATOM     25  C   UNL     1      -1.221   1.026  -1.865  0.00  0.00    +0.091 A 
ATOM     26  C   UNL     1      -2.094  -0.047  -1.771  0.00  0.00    +0.030 A 
ATOM     27  N   UNL     1      -0.170   1.478  -1.068  0.00  0.00    -0.265 N 
ATOM     28  C   UNL     1       0.337   2.581  -1.653  0.00  0.00    +0.422 A 
ATOM     29  O   UNL     1       1.271   3.235  -1.230  0.00  0.00    -0.223 OA
ATOM     30  O   UNL     1      -0.349   2.847  -2.776  0.00  0.00    -0.407 OA
ENDBRANCH  20  27
ENDBRANCH   1  20
TORSDOF 4
