REMARK  Name = ZINC22868642
REMARK  12 active torsions:
REMARK  status: ('A' for Active; 'I' for Inactive)
REMARK    1  A    between atoms: C_1  and  C_2
REMARK    2  A    between atoms: C_2  and  O_3
REMARK    3  A    between atoms: O_3  and  C_4
REMARK    4  A    between atoms: C_4  and  C_6
REMARK    5  A    between atoms: C_7  and  C_19
REMARK    6  A    between atoms: C_12  and  C_14
REMARK    7  A    between atoms: C_19  and  O_20
REMARK    8  A    between atoms: O_20  and  C_21
REMARK    9  A    between atoms: C_21  and  C_23
REMARK   10  A    between atoms: C_28  and  S_29
REMARK   11  A    between atoms: S_29  and  C_30
REMARK   12  A    between atoms: C_30  and  C_31
REMARK                            x       y       z     vdW  Elec       q    Type
REMARK                         _______ _______ _______ _____ _____    ______ ____
ROOT
ATOM      1  C   UNL     1       3.949  -3.101  -1.157  0.00  0.00    +0.084 C 
ATOM      2  C   UNL     1       3.800  -2.432   0.006  0.00  0.00    +0.061 C 
ATOM      3  N   UNL     1       3.336  -3.061   1.126  0.00  0.00    -0.269 N 
ATOM      4  C   UNL     1       2.989  -4.353   1.162  0.00  0.00    +0.305 C 
ATOM      5  O   UNL     1       2.580  -4.824   2.206  0.00  0.00    -0.252 OA
ATOM      6  N   UNL     1       3.083  -5.152   0.080  0.00  0.00    -0.285 N 
ATOM      7  C   UNL     1       3.579  -4.570  -1.178  0.00  0.00    +0.179 C 
ATOM      8  H   UNL     1       3.229  -2.501   2.067  0.00  0.00    +0.156 HD
ATOM      9  H   UNL     1       2.800  -6.214   0.122  0.00  0.00    +0.151 HD
ENDROOT
BRANCH   7  10
ATOM     10  C   UNL     1       2.518  -4.767  -2.231  0.00  0.00    +0.130 A 
ATOM     11  C   UNL     1       2.722  -5.236  -3.475  0.00  0.00    +0.047 A 
ATOM     12  C   UNL     1       1.462  -5.256  -4.116  0.00  0.00    +0.041 A 
ATOM     13  C   UNL     1       0.564  -4.798  -3.225  0.00  0.00    +0.195 A 
ATOM     14  O   UNL     1       1.209  -4.508  -2.083  0.00  0.00    -0.466 OA
ENDBRANCH   7  10
BRANCH   1  15
ATOM     15  C   UNL     1       4.435  -2.452  -2.317  0.00  0.00    +0.339 C 
ATOM     16  O   UNL     1       5.595  -2.598  -2.655  0.00  0.00    -0.245 OA
BRANCH  15  17
ATOM     17  O   UNL     1       3.612  -1.672  -3.048  0.00  0.00    -0.462 OA
BRANCH  17  19
ATOM     18  C   UNL     1       3.093  -0.211  -4.902  0.00  0.00    +0.048 C 
ATOM     19  C   UNL     1       4.169  -1.048  -4.206  0.00  0.00    +0.229 C 
ENDBRANCH  17  19
ENDBRANCH  15  17
ENDBRANCH   1  15
BRANCH   2  20
ATOM     20  C   UNL     1       4.157  -0.969   0.071  0.00  0.00    +0.283 C 
BRANCH  20  21
ATOM     21  O   UNL     1       2.959  -0.190   0.329  0.00  0.00    -0.455 OA
BRANCH  21  22
ATOM     22  C   UNL     1       3.107   1.147   0.418  0.00  0.00    +0.341 C 
ATOM     23  O   UNL     1       4.206   1.647   0.283  0.00  0.00    -0.245 OA
BRANCH  22  24
ATOM     24  C   UNL     1       1.936   2.001   0.677  0.00  0.00    +0.072 A 
ATOM     25  C   UNL     1       0.669   1.431   0.833  0.00  0.00    +0.016 A 
ATOM     26  C   UNL     1      -0.423   2.236   1.070  0.00  0.00    +0.001 A 
ATOM     27  C   UNL     1      -0.272   3.611   1.166  0.00  0.00    +0.001 A 
ATOM     28  C   UNL     1       0.970   4.190   1.015  0.00  0.00    +0.015 A 
ATOM     29  C   UNL     1       2.084   3.395   0.770  0.00  0.00    +0.022 A 
BRANCH  29  30
ATOM     30  S   UNL     1       3.673   4.132   0.577  0.00  0.00    -0.118 S 
BRANCH  30  31
ATOM     31  C   UNL     1       3.239   5.876   0.792  0.00  0.00    +0.130 C 
BRANCH  31  32
ATOM     32  C   UNL     1       4.479   6.722   0.663  0.00  0.00    +0.059 A 
ATOM     33  C   UNL     1       5.233   7.021   1.752  0.00  0.00    +0.070 A 
ATOM     34  S   UNL     1       6.519   8.008   1.001  0.00  0.00    -0.084 S 
ATOM     35  C   UNL     1       5.934   7.932  -0.633  0.00  0.00    +0.156 A 
ATOM     36  N   UNL     1       4.856   7.194  -0.507  0.00  0.00    -0.252 NA
ENDBRANCH  31  32
ENDBRANCH  30  31
ENDBRANCH  29  30
ENDBRANCH  22  24
ENDBRANCH  21  22
ENDBRANCH  20  21
ENDBRANCH   2  20
TORSDOF 11
