REMARK  Name = ZINC18382598
REMARK  13 active torsions:
REMARK  status: ('A' for Active; 'I' for Inactive)
REMARK    1  A    between atoms: C_1  and  C_2
REMARK    2  A    between atoms: C_3  and  C_12
REMARK    3  A    between atoms: C_4  and  C_11
REMARK    4  A    between atoms: N_5  and  C_7
REMARK    5  A    between atoms: C_7  and  C_8
REMARK    6  A    between atoms: C_8  and  C_9
REMARK    7  A    between atoms: C_8  and  C_10
REMARK    8  A    between atoms: C_12  and  C_13
REMARK    9  A    between atoms: C_13  and  C_14
REMARK   10  A    between atoms: C_14  and  O_16
REMARK   11  A    between atoms: O_16  and  C_17
REMARK   12  A    between atoms: C_17  and  C_18
REMARK   13  A    between atoms: C_18  and  C_20
REMARK                            x       y       z     vdW  Elec       q    Type
REMARK                         _______ _______ _______ _____ _____    ______ ____
ROOT
ATOM      1  C   UNL     1       1.417   0.313  -4.487  0.00  0.00    +0.308 C 
ATOM      2  O   UNL     1       0.365   0.489  -5.055  0.00  0.00    -0.251 OA
ENDROOT
BRANCH   1   3
ATOM      3  C   UNL     1       1.431  -0.162  -3.057  0.00  0.00    +0.125 C 
BRANCH   3   4
ATOM      4  C   UNL     1      -0.006  -0.343  -2.566  0.00  0.00    +0.050 C 
BRANCH   4   7
ATOM      5  C   UNL     1      -0.018   1.503   0.010  0.00  0.00    +0.068 C 
ATOM      6  C   UNL     1       0.002  -0.004   0.002  0.00  0.00    +0.063 A 
ATOM      7  C   UNL     1       0.008  -0.818  -1.135  0.00  0.00    -0.004 A 
ATOM      8  C   UNL     1       0.028  -2.107  -0.725  0.00  0.00    +0.040 A 
ATOM      9  N   UNL     1       0.034  -2.109   0.625  0.00  0.00    -0.268 N 
ATOM     10  N   UNL     1       0.023  -0.777   1.058  0.00  0.00    -0.176 NA
ATOM     11  C   UNL     1       0.040  -3.323  -1.615  0.00  0.00    +0.065 C 
BRANCH   9  12
ATOM     12  C   UNL     1       0.055  -3.295   1.485  0.00  0.00    +0.146 C 
BRANCH  12  13
ATOM     13  C   UNL     1       1.504  -3.688   1.777  0.00  0.00    +0.004 C 
ATOM     14  C   UNL     1       2.177  -2.583   2.595  0.00  0.00    +0.009 C 
ATOM     15  C   UNL     1       1.528  -4.995   2.571  0.00  0.00    +0.009 C 
ENDBRANCH  12  13
ENDBRANCH   9  12
ENDBRANCH   4   7
ENDBRANCH   3   4
ENDBRANCH   1   3
BRANCH   1  16
ATOM     16  O   UNL     1       2.573   0.541  -5.130  0.00  0.00    -0.457 OA
BRANCH  16  17
ATOM     17  C   UNL     1       2.485   0.989  -6.484  0.00  0.00    +0.311 C 
BRANCH  17  18
ATOM     18  C   UNL     1       3.872   1.190  -7.038  0.00  0.00    +0.200 C 
ATOM     19  O   UNL     1       4.841   0.971  -6.342  0.00  0.00    -0.288 OA
BRANCH  18  20
ATOM     20  C   UNL     1       4.051   1.652  -8.421  0.00  0.00    +0.025 A 
ATOM     21  C   UNL     1       2.934   1.911  -9.225  0.00  0.00    +0.015 A 
ATOM     22  C   UNL     1       3.105   2.344 -10.520  0.00  0.00    +0.050 A 
ATOM     23  C   UNL     1       4.383   2.525 -11.035  0.00  0.00    +0.166 A 
ATOM     24  C   UNL     1       5.501   2.268 -10.240  0.00  0.00    +0.167 A 
ATOM     25  C   UNL     1       5.339   1.839  -8.938  0.00  0.00    +0.061 A 
ATOM     26  O   UNL     1       6.625   2.520 -10.974  0.00  0.00    -0.453 OA
ATOM     27  C   UNL     1       6.189   2.539 -12.346  0.00  0.00    +0.466 C 
ATOM     28  O   UNL     1       4.809   2.937 -12.263  0.00  0.00    -0.453 OA
ENDBRANCH  18  20
ENDBRANCH  17  18
ENDBRANCH  16  17
ENDBRANCH   1  16
TORSDOF 9
