REMARK  Name = ZINC33959120
REMARK  12 active torsions:
REMARK  status: ('A' for Active; 'I' for Inactive)
REMARK    1  A    between atoms: C_1  and  C_2
REMARK    2  A    between atoms: C_4  and  C_33
REMARK    3  A    between atoms: C_5  and  C_9
REMARK    4  A    between atoms: C_6  and  C_8
REMARK    5  A    between atoms: C_10  and  C_20
REMARK    6  A    between atoms: N_12  and  C_14
REMARK    7  A    between atoms: N_21  and  N_22
REMARK    8  A    between atoms: N_22  and  C_23
REMARK    9  A    between atoms: C_24  and  C_31
REMARK   10  A    between atoms: C_26  and  C_28
REMARK   11  A    between atoms: C_28  and  C_29
REMARK   12  A    between atoms: C_28  and  C_30
REMARK                            x       y       z     vdW  Elec       q    Type
REMARK                         _______ _______ _______ _____ _____    ______ ____
ROOT
ATOM      1  C   UNL     1       0.326  -4.201  -0.429  0.00  0.00    +0.102 A 
ATOM      2  C   UNL     1       0.296  -5.256   0.587  0.00  0.00    +0.040 A 
ATOM      3  C   UNL     1       0.460  -6.442  -0.074  0.00  0.00    +0.124 A 
ATOM      4  N   UNL     1       0.584  -6.172  -1.391  0.00  0.00    -0.239 N 
ATOM      5  N   UNL     1       0.494  -4.791  -1.593  0.00  0.00    -0.166 NA
ENDROOT
BRANCH   1  10
ATOM      6  C   UNL     1      -0.213   1.456   0.496  0.00  0.00    +0.044 C 
ATOM      7  C   UNL     1      -0.072  -0.024   0.255  0.00  0.00    -0.050 A 
ATOM      8  C   UNL     1      -0.993  -0.684  -0.539  0.00  0.00    +0.007 A 
ATOM      9  C   UNL     1      -0.869  -2.039  -0.765  0.00  0.00    -0.041 A 
ATOM     10  C   UNL     1       0.187  -2.745  -0.191  0.00  0.00    +0.009 A 
ATOM     11  C   UNL     1       1.113  -2.075   0.609  0.00  0.00    -0.041 A 
ATOM     12  C   UNL     1       0.981  -0.718   0.823  0.00  0.00    +0.007 A 
ATOM     13  C   UNL     1       2.257  -2.830   1.233  0.00  0.00    +0.044 C 
ATOM     14  C   UNL     1      -1.874  -2.756  -1.630  0.00  0.00    +0.044 C 
ENDBRANCH   1  10
BRANCH   4  15
ATOM     15  C   UNL     1       0.769  -7.126  -2.399  0.00  0.00    +0.065 A 
ATOM     16  C   UNL     1       0.832  -8.476  -2.076  0.00  0.00    +0.028 A 
ATOM     17  C   UNL     1       1.013  -9.415  -3.073  0.00  0.00    +0.002 A 
ATOM     18  C   UNL     1       1.133  -9.012  -4.390  0.00  0.00    +0.000 A 
ATOM     19  C   UNL     1       1.070  -7.670  -4.715  0.00  0.00    +0.002 A 
ATOM     20  C   UNL     1       0.883  -6.726  -3.724  0.00  0.00    +0.028 A 
ENDBRANCH   4  15
BRANCH   2  21
ATOM     21  C   UNL     1       0.123  -5.075   2.040  0.00  0.00    +0.142 C 
ATOM     22  N   UNL     1      -0.030  -3.884   2.532  0.00  0.00    -0.187 NA
BRANCH  22  23
ATOM     23  N   UNL     1      -0.241  -3.715   3.907  0.00  0.00    -0.205 N 
ATOM     24  H   UNL     1      -0.196  -4.480   4.502  0.00  0.00    +0.177 HD
BRANCH  23  25
ATOM     25  C   UNL     1      -0.513  -2.463   4.413  0.00  0.00    +0.244 A 
ATOM     26  C   UNL     1      -0.599  -2.111   5.751  0.00  0.00    +0.202 A 
ATOM     27  N   UNL     1      -0.883  -0.779   5.788  0.00  0.00    -0.200 NA
ATOM     28  C   UNL     1      -0.968  -0.338   4.570  0.00  0.00    +0.202 A 
ATOM     29  O   UNL     1      -0.742  -1.340   3.707  0.00  0.00    -0.423 OA
BRANCH  28  30
ATOM     30  C   UNL     1      -1.270   1.087   4.184  0.00  0.00    +0.069 C 
ATOM     31  C   UNL     1      -2.637   1.488   4.742  0.00  0.00    +0.017 C 
ATOM     32  C   UNL     1      -0.194   2.010   4.760  0.00  0.00    +0.017 C 
ENDBRANCH  28  30
BRANCH  26  33
ATOM     33  C   UNL     1      -0.422  -2.979   6.876  0.00  0.00    +0.124 C 
ATOM     34  N   UNL     1      -0.282  -3.668   7.769  0.00  0.00    -0.189 NA
ENDBRANCH  26  33
ENDBRANCH  23  25
ENDBRANCH  22  23
ENDBRANCH   2  21
TORSDOF 7
