REMARK  Name = ZINC44783896
REMARK  9 active torsions:
REMARK  status: ('A' for Active; 'I' for Inactive)
REMARK    1  A    between atoms: C_1  and  C_2
REMARK    2  A    between atoms: C_2  and  C_3
REMARK    3  A    between atoms: C_3  and  C_4
REMARK    4  A    between atoms: C_3  and  C_6
REMARK    5  A    between atoms: C_3  and  C_10
REMARK    6  A    between atoms: C_4  and  C_5
REMARK    7  A    between atoms: N_7  and  O_8
REMARK    8  A    between atoms: N_12  and  C_13
REMARK    9  A    between atoms: C_18  and  C_19
REMARK                            x       y       z     vdW  Elec       q    Type
REMARK                         _______ _______ _______ _____ _____    ______ ____
ROOT
ATOM      1  C   UNL     1       0.911  -0.536   1.229  0.00  0.00    +0.105 C 
ENDROOT
BRANCH   1   2
ATOM      2  C   UNL     1       2.319  -0.028   1.058  0.00  0.00    +0.147 C 
ATOM      3  N   UNL     1       2.599   0.789   0.098  0.00  0.00    -0.076 NA
ATOM      4  N   UNL     1       3.308  -0.433   1.927  0.00  0.00    -0.343 N 
ATOM      5  H   UNL     1       3.087  -0.999   2.684  0.00  0.00    +0.144 HD
ATOM      6  H   UNL     1       4.225  -0.154   1.782  0.00  0.00    +0.144 HD
BRANCH   3   7
ATOM      7  O   UNL     1       3.922   1.268  -0.062  0.00  0.00    -0.408 OA
ATOM      8  H   UNL     1       4.034   1.873  -0.808  0.00  0.00    +0.328 HD
ENDBRANCH   3   7
ENDBRANCH   1   2
BRANCH   1   9
ATOM      9  C   UNL     1       0.445  -0.264   2.636  0.00  0.00    +0.231 C 
ATOM     10  O   UNL     1       1.184   0.289   3.423  0.00  0.00    -0.274 OA
ATOM     11  N   UNL     1      -0.792  -0.635   3.019  0.00  0.00    -0.284 N 
ATOM     12  H   UNL     1      -1.363  -1.127   2.409  0.00  0.00    +0.155 HD
BRANCH  11  13
ATOM     13  C   UNL     1      -1.255  -0.309   4.300  0.00  0.00    +0.036 A 
ATOM     14  C   UNL     1      -0.356  -0.156   5.347  0.00  0.00    +0.024 A 
ATOM     15  C   UNL     1      -0.815   0.166   6.608  0.00  0.00    +0.017 A 
ATOM     16  C   UNL     1      -2.170   0.336   6.830  0.00  0.00    +0.018 A 
ATOM     17  C   UNL     1      -3.068   0.185   5.789  0.00  0.00    +0.020 A 
ATOM     18  C   UNL     1      -2.614  -0.132   4.524  0.00  0.00    -0.028 A 
ATOM     19  C   UNL     1      -3.593  -0.290   3.389  0.00  0.00    +0.046 C 
ATOM     20 BR   UNL     1      -2.795   0.776   8.560  0.00  0.00    -0.050 Br
ENDBRANCH  11  13
ENDBRANCH   1   9
BRANCH   1  22
ATOM     21  C   UNL     1       0.021   1.683   0.504  0.00  0.00    +0.005 C 
ATOM     22  C   UNL     1      -0.012   0.177   0.239  0.00  0.00    +0.020 C 
ENDBRANCH   1  22
BRANCH   1  23
ATOM     23  C   UNL     1       0.877  -2.043   0.963  0.00  0.00    +0.020 C 
ATOM     24  C   UNL     1       1.446  -2.328  -0.429  0.00  0.00    +0.005 C 
ENDBRANCH   1  23
TORSDOF 6
