REMARK  Name = ZINC04947185
REMARK  10 active torsions:
REMARK  status: ('A' for Active; 'I' for Inactive)
REMARK    1  A    between atoms: C_1  and  C_2
REMARK    2  A    between atoms: C_2  and  C_3
REMARK    3  A    between atoms: C_3  and  C_4
REMARK    4  A    between atoms: C_4  and  C_5
REMARK    5  A    between atoms: C_5  and  C_6
REMARK    6  A    between atoms: C_9  and  C_12
REMARK    7  A    between atoms: C_12  and  C_27
REMARK    8  A    between atoms: N_13  and  N_14
REMARK    9  A    between atoms: C_17  and  N_21
REMARK   10  A    between atoms: C_23  and  C_26
REMARK                            x       y       z     vdW  Elec       q    Type
REMARK                         _______ _______ _______ _____ _____    ______ ____
ROOT
ATOM      1  C   UNL     1       0.002  -0.004   0.002  0.00  0.00    +0.063 C 
ATOM      2  N   UNL     1       0.000  -0.647  -1.125  0.00  0.00    -0.186 NA
ATOM      3  C   UNL     1      -0.018   1.503   0.010  0.00  0.00    +0.068 C 
ENDROOT
BRANCH   2   4
ATOM      4  N   UNL     1      -0.021   0.060  -2.335  0.00  0.00    -0.221 N 
ATOM      5  C   UNL     1      -0.023  -0.626  -3.539  0.00  0.00    +0.143 A 
ATOM      6  C   UNL     1      -0.044   0.066  -4.748  0.00  0.00    +0.093 A 
ATOM      7  C   UNL     1      -0.045  -0.668  -5.927  0.00  0.00    +0.159 A 
ATOM      8  N   UNL     1      -0.026  -1.997  -5.861  0.00  0.00    -0.216 NA
ATOM      9  C   UNL     1      -0.007  -2.617  -4.699  0.00  0.00    +0.225 A 
ATOM     10  N   UNL     1       0.001  -1.958  -3.558  0.00  0.00    -0.219 NA
ATOM     11  H   UNL     1      -0.034   1.030  -2.330  0.00  0.00    +0.176 HD
BRANCH   7  12
ATOM     12  N   UNL     1      -0.066  -0.021  -7.165  0.00  0.00    -0.221 N 
ATOM     13  C   UNL     1      -0.070  -0.623  -8.383  0.00  0.00    +0.119 A 
ATOM     14  C   UNL     1      -0.092   0.351  -9.320  0.00  0.00    -0.013 A 
ATOM     15  C   UNL     1      -0.103   1.586  -8.660  0.00  0.00    +0.138 A 
ATOM     16  N   UNL     1      -0.093   1.364  -7.371  0.00  0.00    -0.173 NA
ATOM     17  C   UNL     1      -0.104   0.145 -10.813  0.00  0.00    +0.047 C 
ENDBRANCH   7  12
ENDBRANCH   2   4
BRANCH   1  21
ATOM     18  C   UNL     1       0.066  -2.146   3.666  0.00  0.00    -0.047 A 
ATOM     19  C   UNL     1       0.064  -2.834   2.466  0.00  0.00    +0.004 A 
ATOM     20  C   UNL     1       0.043  -2.145   1.271  0.00  0.00    +0.010 A 
ATOM     21  C   UNL     1       0.024  -0.748   1.275  0.00  0.00    -0.003 A 
ATOM     22  C   UNL     1       0.032  -0.059   2.490  0.00  0.00    +0.010 A 
ATOM     23  C   UNL     1       0.047  -0.762   3.677  0.00  0.00    +0.004 A 
BRANCH  18  24
ATOM     24  C   UNL     1       0.088  -2.906   4.967  0.00  0.00    +0.035 C 
BRANCH  24  25
ATOM     25  C   UNL     1       1.538  -3.144   5.393  0.00  0.00    +0.005 C 
BRANCH  25  26
ATOM     26  C   UNL     1       1.561  -3.916   6.714  0.00  0.00    +0.000 C 
BRANCH  26  28
ATOM     27  C   UNL     1       3.034  -4.926   8.461  0.00  0.00    +0.004 C 
ATOM     28  C   UNL     1       3.011  -4.154   7.141  0.00  0.00    -0.003 C 
ENDBRANCH  26  28
ENDBRANCH  25  26
ENDBRANCH  24  25
ENDBRANCH  18  24
ENDBRANCH   1  21
TORSDOF 7
