REMARK  Name = ZINC38681067
REMARK  15 active torsions:
REMARK  status: ('A' for Active; 'I' for Inactive)
REMARK    1  A    between atoms: C_1  and  C_2
REMARK    2  A    between atoms: C_2  and  C_3
REMARK    3  A    between atoms: C_2  and  O_4
REMARK    4  A    between atoms: O_4  and  C_5
REMARK    5  A    between atoms: C_8  and  C_11
REMARK    6  A    between atoms: C_11  and  O_13
REMARK    7  A    between atoms: O_13  and  C_14
REMARK    8  A    between atoms: C_21  and  N_39
REMARK    9  A    between atoms: C_22  and  C_37
REMARK   10  A    between atoms: C_23  and  C_25
REMARK   11  A    between atoms: C_28  and  O_33
REMARK   12  A    between atoms: C_29  and  O_31
REMARK   13  A    between atoms: O_31  and  C_32
REMARK   14  A    between atoms: O_33  and  C_34
REMARK   15  A    between atoms: C_34  and  C_35
REMARK                            x       y       z     vdW  Elec       q    Type
REMARK                         _______ _______ _______ _____ _____    ______ ____
ROOT
ATOM      1  C   UNL     1      -4.298  -6.994  -3.191  0.00  0.00    +0.135 A 
ATOM      2  C   UNL     1      -3.355  -7.766  -3.854  0.00  0.00    +0.047 A 
ATOM      3  C   UNL     1      -3.742  -8.924  -4.500  0.00  0.00    +0.012 A 
ATOM      4  C   UNL     1      -5.068  -9.318  -4.489  0.00  0.00    +0.008 A 
ATOM      5  C   UNL     1      -6.014  -8.551  -3.828  0.00  0.00    +0.138 A 
ATOM      6  C   UNL     1      -5.625  -7.389  -3.174  0.00  0.00    +0.093 A 
ATOM      7  O   UNL     1      -7.318  -8.921  -3.807  0.00  0.00    -0.441 OA
ATOM      8  C   UNL     1      -7.783  -9.793  -4.716  0.00  0.00    +0.199 C 
ATOM      9  C   UNL     1      -6.957 -10.611  -5.412  0.00  0.00    +0.098 C 
ATOM     10  C   UNL     1      -5.470 -10.584  -5.199  0.00  0.00    +0.098 C 
ENDROOT
BRANCH  10  11
ATOM     11  C   UNL     1      -5.063 -11.773  -4.368  0.00  0.00    -0.031 A 
ATOM     12  C   UNL     1      -5.574 -11.931  -3.093  0.00  0.00    +0.008 A 
ATOM     13  C   UNL     1      -5.204 -13.020  -2.326  0.00  0.00    +0.050 A 
ATOM     14  C   UNL     1      -4.319 -13.957  -2.836  0.00  0.00    +0.162 A 
ATOM     15  C   UNL     1      -3.805 -13.799  -4.119  0.00  0.00    +0.162 A 
ATOM     16  C   UNL     1      -4.184 -12.707  -4.884  0.00  0.00    +0.054 A 
BRANCH  15  17
ATOM     17  O   UNL     1      -2.936 -14.716  -4.623  0.00  0.00    -0.491 OA
ATOM     18  C   UNL     1      -2.449 -14.488  -5.947  0.00  0.00    +0.277 C 
ENDBRANCH  15  17
BRANCH  14  19
ATOM     19  O   UNL     1      -3.954 -15.029  -2.083  0.00  0.00    -0.484 OA
BRANCH  19  20
ATOM     20  C   UNL     1      -4.521 -15.127  -0.774  0.00  0.00    +0.256 C 
BRANCH  20  21
ATOM     21  C   UNL     1      -4.004 -16.368  -0.094  0.00  0.00    +0.006 C 
ATOM     22  C   UNL     1      -3.599 -16.313   1.150  0.00  0.00    +0.007 C 
ENDBRANCH  20  21
ENDBRANCH  19  20
ENDBRANCH  14  19
ENDBRANCH  10  11
BRANCH   8  23
ATOM     23  N   UNL     1      -9.134  -9.858  -4.947  0.00  0.00    -0.328 N 
ATOM     24  H   UNL     1      -9.738  -9.279  -4.457  0.00  0.00    +0.145 HD
ATOM     25  H   UNL     1      -9.485 -10.483  -5.601  0.00  0.00    +0.145 HD
ENDBRANCH   8  23
BRANCH   9  26
ATOM     26  C   UNL     1      -7.513 -11.519  -6.370  0.00  0.00    +0.101 C 
ATOM     27  N   UNL     1      -7.954 -12.239  -7.130  0.00  0.00    -0.191 NA
ENDBRANCH   9  26
BRANCH   1  28
ATOM     28  O   UNL     1      -3.918  -5.854  -2.555  0.00  0.00    -0.422 OA
BRANCH  28  29
ATOM     29  C   UNL     1      -4.022  -5.815  -1.212  0.00  0.00    +0.344 C 
ATOM     30  O   UNL     1      -4.355  -6.810  -0.599  0.00  0.00    -0.245 OA
BRANCH  29  34
ATOM     31  C   UNL     1      -3.183  -2.216   0.878  0.00  0.00    +0.121 A 
ATOM     32  C   UNL     1      -3.565  -3.353   1.581  0.00  0.00    +0.046 A 
ATOM     33  C   UNL     1      -3.838  -4.522   0.907  0.00  0.00    +0.018 A 
ATOM     34  C   UNL     1      -3.731  -4.565  -0.486  0.00  0.00    +0.060 A 
ATOM     35  C   UNL     1      -3.347  -3.419  -1.189  0.00  0.00    +0.018 A 
ATOM     36  C   UNL     1      -3.082  -2.253  -0.508  0.00  0.00    +0.046 A 
BRANCH  31  37
ATOM     37  O   UNL     1      -2.915  -1.066   1.546  0.00  0.00    -0.489 OA
BRANCH  37  39
ATOM     38  C   UNL     1      -3.202   1.333   1.490  0.00  0.00    +0.051 C 
ATOM     39  C   UNL     1      -2.669   0.100   0.757  0.00  0.00    +0.167 C 
ATOM     40  C   UNL     1      -1.164   0.253   0.529  0.00  0.00    +0.051 C 
ENDBRANCH  37  39
ENDBRANCH  31  37
ENDBRANCH  29  34
ENDBRANCH  28  29
ENDBRANCH   1  28
TORSDOF 12
