REMARK  Name = ZINC12367939
REMARK  8 active torsions:
REMARK  status: ('A' for Active; 'I' for Inactive)
REMARK    1  A    between atoms: C_4  and  C_7
REMARK    2  A    between atoms: C_10  and  C_13
REMARK    3  A    between atoms: C_13  and  C_15
REMARK    4  A    between atoms: C_15  and  C_26
REMARK    5  A    between atoms: C_16  and  C_17
REMARK    6  A    between atoms: C_21  and  N_23
REMARK    7  A    between atoms: C_26  and  C_28
REMARK    8  A    between atoms: C_31  and  N_34
REMARK                            x       y       z     vdW  Elec       q    Type
REMARK                         _______ _______ _______ _____ _____    ______ ____
ROOT
ATOM      1  C   UNL     1      -1.325   6.054  -0.022  0.00  0.00    +0.070 C 
ATOM      2  C   UNL     1      -0.113   5.395  -0.025  0.00  0.00    +0.023 C 
ENDROOT
BRANCH   2   3
ATOM      3  C   UNL     1      -0.072   3.938  -0.181  0.00  0.00    -0.022 A 
ATOM      4  C   UNL     1      -1.067   3.279  -0.916  0.00  0.00    +0.008 A 
ATOM      5  C   UNL     1      -1.017   1.910  -1.062  0.00  0.00    +0.003 A 
ATOM      6  C   UNL     1       0.006   1.184  -0.477  0.00  0.00    +0.033 A 
ATOM      7  C   UNL     1       0.993   1.826   0.252  0.00  0.00    +0.127 A 
ATOM      8  C   UNL     1       0.963   3.196   0.404  0.00  0.00    +0.040 A 
BRANCH   7   9
ATOM      9  N   UNL     1       2.085   1.040   0.868  0.00  0.00    +0.056 N 
ATOM     10  O   UNL     1       2.114  -0.171   0.735  0.00  0.00    -0.126 OA
ATOM     11  O   UNL     1       2.954   1.603   1.509  0.00  0.00    -0.126 OA
ENDBRANCH   7   9
ENDBRANCH   2   3
BRANCH   1  12
ATOM     12  C   UNL     1      -2.579   5.287  -0.024  0.00  0.00    +0.197 C 
ATOM     13  O   UNL     1      -2.821   4.514   0.884  0.00  0.00    -0.287 OA
BRANCH  12  17
ATOM     14  C   UNL     1      -5.361   5.769  -3.201  0.00  0.00    -0.018 A 
ATOM     15  C   UNL     1      -5.697   4.991  -2.092  0.00  0.00    +0.009 A 
ATOM     16  C   UNL     1      -4.797   4.834  -1.063  0.00  0.00    +0.012 A 
ATOM     17  C   UNL     1      -3.546   5.454  -1.128  0.00  0.00    +0.022 A 
ATOM     18  C   UNL     1      -3.212   6.237  -2.237  0.00  0.00    +0.012 A 
ATOM     19  C   UNL     1      -4.112   6.389  -3.267  0.00  0.00    +0.009 A 
BRANCH  14  23
ATOM     20  C   UNL     1      -8.143   6.251  -6.379  0.00  0.00    +0.000 A 
ATOM     21  C   UNL     1      -6.865   6.768  -6.498  0.00  0.00    +0.001 A 
ATOM     22  C   UNL     1      -5.958   6.615  -5.469  0.00  0.00    +0.008 A 
ATOM     23  C   UNL     1      -6.331   5.938  -4.309  0.00  0.00    -0.018 A 
ATOM     24  C   UNL     1      -7.618   5.414  -4.198  0.00  0.00    +0.008 A 
ATOM     25  C   UNL     1      -8.519   5.578  -5.231  0.00  0.00    +0.001 A 
ENDBRANCH  14  23
ENDBRANCH  12  17
ENDBRANCH   1  12
BRANCH   1  26
ATOM     26  C   UNL     1      -1.362   7.525  -0.017  0.00  0.00    +0.197 C 
ATOM     27  O   UNL     1      -0.937   8.148  -0.973  0.00  0.00    -0.287 OA
BRANCH  26  28
ATOM     28  C   UNL     1      -1.914   8.245   1.146  0.00  0.00    +0.022 A 
ATOM     29  C   UNL     1      -2.296   7.538   2.291  0.00  0.00    +0.013 A 
ATOM     30  C   UNL     1      -2.804   8.211   3.372  0.00  0.00    +0.023 A 
ATOM     31  C   UNL     1      -2.950   9.595   3.327  0.00  0.00    +0.025 A 
ATOM     32  C   UNL     1      -2.575  10.301   2.187  0.00  0.00    +0.023 A 
ATOM     33  C   UNL     1      -2.062   9.635   1.104  0.00  0.00    +0.013 A 
BRANCH  31  34
ATOM     34  N   UNL     1      -3.470  10.274   4.423  0.00  0.00    -0.358 N 
ATOM     35  H   UNL     1      -3.640  11.227   4.368  0.00  0.00    +0.142 HD
ATOM     36  H   UNL     1      -3.663   9.793   5.244  0.00  0.00    +0.142 HD
ENDBRANCH  31  34
ENDBRANCH  26  28
ENDBRANCH   1  26
TORSDOF 8
