REMARK  Name = ZINC19862517
REMARK  6 active torsions:
REMARK  status: ('A' for Active; 'I' for Inactive)
REMARK    1  A    between atoms: C_14  and  C_15
REMARK    2  A    between atoms: N_16  and  N_17
REMARK    3  A    between atoms: C_18  and  C_20
REMARK    4  A    between atoms: C_20  and  N_21
REMARK    5  A    between atoms: N_24  and  C_27
REMARK    6  A    between atoms: C_27  and  C_28
REMARK                            x       y       z     vdW  Elec       q    Type
REMARK                         _______ _______ _______ _____ _____    ______ ____
ROOT
ATOM      1  N   UNL     1       1.473   2.179  -1.231  0.00  0.00    -0.209 N 
ATOM      2  C   UNL     1       2.575   2.911  -1.490  0.00  0.00    +0.216 C 
ATOM      3  O   UNL     1       3.601   2.362  -1.833  0.00  0.00    -0.276 OA
ATOM      4  H   UNL     1       0.569   2.667  -0.838  0.00  0.00    +0.177 HD
ENDROOT
BRANCH   1   6
ATOM      5  C   UNL     1       0.385   0.108  -1.318  0.00  0.00    +0.139 C 
ATOM      6  N   UNL     1       1.480   0.797  -1.462  0.00  0.00    -0.188 NA
BRANCH   5  20
ATOM      7  C   UNL     1      -3.217  -0.168   2.291  0.00  0.00    +0.001 A 
ATOM      8  C   UNL     1      -2.010  -0.824   2.052  0.00  0.00    +0.001 A 
ATOM      9  C   UNL     1      -1.238  -0.527   0.972  0.00  0.00    +0.009 A 
ATOM     10  C   UNL     1      -1.660   0.463   0.068  0.00  0.00    -0.009 A 
ATOM     11  C   UNL     1      -2.925   1.157   0.319  0.00  0.00    -0.017 A 
ATOM     12  C   UNL     1      -3.675   0.806   1.463  0.00  0.00    +0.008 A 
ATOM     13  C   UNL     1      -3.376   2.141  -0.561  0.00  0.00    +0.017 A 
ATOM     14  C   UNL     1      -2.618   2.472  -1.685  0.00  0.00    -0.017 A 
ATOM     15  C   UNL     1      -3.054   3.463  -2.590  0.00  0.00    +0.008 A 
ATOM     16  C   UNL     1      -2.292   3.761  -3.675  0.00  0.00    +0.001 A 
ATOM     17  C   UNL     1      -1.084   3.112  -3.921  0.00  0.00    +0.001 A 
ATOM     18  C   UNL     1      -0.609   2.147  -3.088  0.00  0.00    +0.009 A 
ATOM     19  C   UNL     1      -1.348   1.790  -1.947  0.00  0.00    -0.009 A 
ATOM     20  C   UNL     1      -0.885   0.795  -1.062  0.00  0.00    +0.010 A 
ENDBRANCH   5  20
ENDBRANCH   1   6
BRANCH   2  21
ATOM     21  C   UNL     1       2.532   4.411  -1.354  0.00  0.00    +0.020 C 
BRANCH  21  22
ATOM     22  N   UNL     1       3.881   4.959  -1.554  0.00  0.00    +0.387 N 
ATOM     23  C   UNL     1       4.785   4.539  -0.474  0.00  0.00    -0.063 C 
ATOM     24  C   UNL     1       6.194   5.063  -0.760  0.00  0.00    +0.066 C 
ATOM     25  N   UNL     1       6.156   6.528  -0.871  0.00  0.00    -0.302 NA
ATOM     26  C   UNL     1       5.252   6.948  -1.950  0.00  0.00    +0.066 C 
ATOM     27  C   UNL     1       3.843   6.424  -1.664  0.00  0.00    -0.063 C 
ATOM     28  H   UNL     1       4.271   4.557  -2.500  0.00  0.00    -0.081 HD
BRANCH  25  29
ATOM     29  C   UNL     1       7.504   7.076  -1.070  0.00  0.00    +0.120 C 
BRANCH  29  30
ATOM     30  C   UNL     1       8.421   6.559   0.009  0.00  0.00    -0.015 A 
ATOM     31  C   UNL     1       9.290   5.519  -0.263  0.00  0.00    +0.006 A 
ATOM     32  C   UNL     1      10.135   5.048   0.725  0.00  0.00    +0.000 A 
ATOM     33  C   UNL     1      10.104   5.611   1.988  0.00  0.00    +0.001 A 
ATOM     34  C   UNL     1       9.231   6.647   2.262  0.00  0.00    +0.020 A 
ATOM     35  C   UNL     1       8.389   7.122   1.272  0.00  0.00    +0.045 A 
ATOM     36 CL   UNL     1       7.293   8.424   1.615  0.00  0.00    -0.083 Cl
ENDBRANCH  29  30
ENDBRANCH  25  29
ENDBRANCH  21  22
ENDBRANCH   2  21
TORSDOF 6
