REMARK  Name = ZINC39760075
REMARK  10 active torsions:
REMARK  status: ('A' for Active; 'I' for Inactive)
REMARK    1  A    between atoms: C_1  and  C_2
REMARK    2  A    between atoms: C_2  and  C_4
REMARK    3  A    between atoms: C_2  and  N_25
REMARK    4  A    between atoms: C_7  and  S_10
REMARK    5  A    between atoms: N_8  and  C_9
REMARK    6  A    between atoms: S_10  and  C_11
REMARK    7  A    between atoms: C_11  and  C_13
REMARK    8  A    between atoms: C_11  and  C_14
REMARK    9  A    between atoms: N_16  and  C_17
REMARK   10  A    between atoms: C_26  and  C_28
REMARK                            x       y       z     vdW  Elec       q    Type
REMARK                         _______ _______ _______ _____ _____    ______ ____
ROOT
ATOM      1  C   UNL     1       0.700  -0.545  -1.215  0.00  0.00    +0.154 A 
ATOM      2  N   UNL     1       0.220  -0.536  -2.426  0.00  0.00    -0.132 NA
ATOM      3  N   UNL     1       1.087  -1.010  -3.248  0.00  0.00    -0.122 NA
ATOM      4  C   UNL     1       2.177  -1.351  -2.599  0.00  0.00    +0.192 A 
ATOM      5  N   UNL     1       1.965  -1.060  -1.282  0.00  0.00    -0.308 N 
ATOM      6  C   UNL     1       2.899  -1.260  -0.171  0.00  0.00    +0.152 C 
ENDROOT
BRANCH   1   8
ATOM      7  C   UNL     1      -0.035   1.459   0.048  0.00  0.00    +0.036 C 
ATOM      8  C   UNL     1      -0.006  -0.071   0.029  0.00  0.00    +0.138 C 
BRANCH   8   9
ATOM      9  N   UNL     1      -1.378  -0.585   0.038  0.00  0.00    -0.302 N 
ATOM     10  C   UNL     1      -2.032  -0.740   1.207  0.00  0.00    +0.245 C 
ATOM     11  O   UNL     1      -1.483  -0.453   2.253  0.00  0.00    -0.270 OA
ATOM     12  H   UNL     1      -1.815  -0.815  -0.796  0.00  0.00    +0.150 HD
BRANCH  10  13
ATOM     13  C   UNL     1      -3.415  -1.259   1.216  0.00  0.00    +0.037 A 
ATOM     14  C   UNL     1      -4.046  -1.595   0.016  0.00  0.00    +0.014 A 
ATOM     15  C   UNL     1      -5.337  -2.080   0.031  0.00  0.00    +0.021 A 
ATOM     16  C   UNL     1      -6.008  -2.233   1.233  0.00  0.00    +0.041 A 
ATOM     17  C   UNL     1      -5.388  -1.901   2.426  0.00  0.00    +0.021 A 
ATOM     18  C   UNL     1      -4.095  -1.421   2.425  0.00  0.00    +0.014 A 
ATOM     19 CL   UNL     1      -7.634  -2.842   1.244  0.00  0.00    -0.084 Cl
ENDBRANCH  10  13
ENDBRANCH   8   9
ENDBRANCH   1   8
BRANCH   4  20
ATOM     20  S   UNL     1       3.638  -2.045  -3.297  0.00  0.00    -0.074 S 
BRANCH  20  21
ATOM     21  C   UNL     1       3.265  -2.163  -5.068  0.00  0.00    +0.137 C 
ATOM     22  C   UNL     1       3.091  -0.758  -5.648  0.00  0.00    +0.029 C 
BRANCH  21  23
ATOM     23  C   UNL     1       4.398  -2.862  -5.775  0.00  0.00    +0.230 C 
ATOM     24  O   UNL     1       5.492  -2.920  -5.256  0.00  0.00    -0.274 OA
ATOM     25  N   UNL     1       4.195  -3.422  -6.984  0.00  0.00    -0.282 N 
ATOM     26  H   UNL     1       3.305  -3.432  -7.371  0.00  0.00    +0.155 HD
BRANCH  25  27
ATOM     27  C   UNL     1       5.269  -3.989  -7.683  0.00  0.00    +0.069 A 
ATOM     28  C   UNL     1       6.288  -4.629  -6.991  0.00  0.00    +0.029 A 
ATOM     29  C   UNL     1       7.346  -5.188  -7.681  0.00  0.00    +0.040 A 
ATOM     30  C   UNL     1       7.392  -5.111  -9.063  0.00  0.00    +0.126 A 
ATOM     31  C   UNL     1       6.377  -4.473  -9.757  0.00  0.00    +0.078 A 
ATOM     32  C   UNL     1       5.313  -3.917  -9.070  0.00  0.00    +0.147 A 
ATOM     33  F   UNL     1       4.319  -3.300  -9.747  0.00  0.00    -0.203 F 
ATOM     34  F   UNL     1       8.428  -5.658  -9.735  0.00  0.00    -0.205 F 
ENDBRANCH  25  27
ENDBRANCH  21  23
ENDBRANCH  20  21
ENDBRANCH   4  20
TORSDOF 7
