REMARK  Name = ZINC01586960
REMARK  10 active torsions:
REMARK  status: ('A' for Active; 'I' for Inactive)
REMARK    1  A    between atoms: C_1  and  O_2
REMARK    2  A    between atoms: O_2  and  C_3
REMARK    3  A    between atoms: C_5  and  C_13
REMARK    4  A    between atoms: C_7  and  O_11
REMARK    5  A    between atoms: C_8  and  O_9
REMARK    6  A    between atoms: O_9  and  C_10
REMARK    7  A    between atoms: O_11  and  C_12
REMARK    8  A    between atoms: C_13  and  C_15
REMARK    9  A    between atoms: C_13  and  N_56
REMARK   10  A    between atoms: C_20  and  O_21
REMARK                            x       y       z     vdW  Elec       q    Type
REMARK                         _______ _______ _______ _____ _____    ______ ____
ROOT
ATOM      1  C   UNL     1       0.211   6.048  -0.479  0.00  0.00    -0.003 C 
ENDROOT
BRANCH   1   2
ATOM      2  C   UNL     1       1.479   6.710  -0.006  0.00  0.00    -0.012 A 
ATOM      3  C   UNL     1       1.420   7.921   0.659  0.00  0.00    +0.055 A 
ATOM      4  C   UNL     1       2.583   8.532   1.095  0.00  0.00    +0.167 A 
ATOM      5  C   UNL     1       3.816   7.925   0.864  0.00  0.00    +0.170 A 
ATOM      6  C   UNL     1       3.873   6.711   0.199  0.00  0.00    +0.095 A 
ATOM      7  C   UNL     1       2.704   6.101  -0.232  0.00  0.00    +0.122 A 
ATOM      8  O   UNL     1       4.797   8.717   1.385  0.00  0.00    -0.452 OA
ATOM      9  C   UNL     1       4.189  10.008   1.574  0.00  0.00    +0.466 C 
ATOM     10  O   UNL     1       2.794   9.706   1.761  0.00  0.00    -0.453 OA
BRANCH   7  11
ATOM     11  O   UNL     1       2.760   4.908  -0.881  0.00  0.00    -0.506 OA
ATOM     12  H   UNL     1       2.844   4.986  -1.842  0.00  0.00    +0.292 HD
ENDBRANCH   7  11
ENDBRANCH   1   2
BRANCH   1  18
ATOM     13  C   UNL     1      -2.116   6.454  -1.007  0.00  0.00    -0.078 C 
ATOM     14  C   UNL     1      -3.188   7.542  -1.106  0.00  0.00    -0.019 C 
ATOM     15  C   UNL     1      -2.810   8.524  -2.219  0.00  0.00    -0.004 C 
ATOM     16  C   UNL     1      -1.430   9.116  -1.919  0.00  0.00    -0.019 C 
ATOM     17  C   UNL     1      -0.409   7.982  -1.796  0.00  0.00    -0.078 C 
ATOM     18  N   UNL     1      -0.818   7.087  -0.693  0.00  0.00    +0.387 N 
ATOM     19  H   UNL     1      -0.916   7.640   0.166  0.00  0.00    -0.080 HD
ENDBRANCH   1  18
BRANCH   1  22
ATOM     20  C   UNL     1      -0.597   2.833   1.337  0.00  0.00    +0.165 A 
ATOM     21  C   UNL     1      -0.151   3.723   0.371  0.00  0.00    +0.052 A 
ATOM     22  C   UNL     1      -0.275   5.085   0.573  0.00  0.00    -0.049 A 
ATOM     23  C   UNL     1      -0.844   5.566   1.738  0.00  0.00    +0.052 A 
ATOM     24  C   UNL     1      -1.293   4.683   2.708  0.00  0.00    +0.165 A 
ATOM     25  C   UNL     1      -1.175   3.313   2.507  0.00  0.00    +0.204 A 
BRANCH  20  27
ATOM     26  C   UNL     1       0.123   1.073  -0.090  0.00  0.00    +0.277 C 
ATOM     27  O   UNL     1      -0.475   1.494   1.137  0.00  0.00    -0.491 OA
ENDBRANCH  20  27
BRANCH  25  28
ATOM     28  O   UNL     1      -1.619   2.443   3.454  0.00  0.00    -0.488 OA
ATOM     29  C   UNL     1      -0.686   2.050   4.463  0.00  0.00    +0.277 C 
ENDBRANCH  25  28
BRANCH  24  30
ATOM     30  O   UNL     1      -1.852   5.157   3.854  0.00  0.00    -0.491 OA
ATOM     31  C   UNL     1      -1.947   6.576   3.990  0.00  0.00    +0.277 C 
ENDBRANCH  24  30
ENDBRANCH   1  22
TORSDOF 7
