REMARK  Name = ZINC12687754
REMARK  10 active torsions:
REMARK  status: ('A' for Active; 'I' for Inactive)
REMARK    1  A    between atoms: C_1  and  O_2
REMARK    2  A    between atoms: O_2  and  C_3
REMARK    3  A    between atoms: C_6  and  C_9
REMARK    4  A    between atoms: C_9  and  C_11
REMARK    5  A    between atoms: C_9  and  N_63
REMARK    6  A    between atoms: C_11  and  N_12
REMARK    7  A    between atoms: C_13  and  C_15
REMARK    8  A    between atoms: C_15  and  S_16
REMARK    9  A    between atoms: S_16  and  C_17
REMARK   10  A    between atoms: C_20  and  C_22
REMARK                            x       y       z     vdW  Elec       q    Type
REMARK                         _______ _______ _______ _____ _____    ______ ____
ROOT
ATOM      1  N   UNL     1      -0.364  -2.039  -1.396  0.00  0.00    -0.316 N 
ATOM      2  C   UNL     1      -0.701  -2.722  -2.508  0.00  0.00    +0.223 C 
ATOM      3  O   UNL     1      -0.934  -2.127  -3.538  0.00  0.00    -0.275 OA
ATOM      4  H   UNL     1      -0.177  -2.515  -0.572  0.00  0.00    +0.149 HD
ENDROOT
BRANCH   1   5
ATOM      5  C   UNL     1      -0.281  -0.577  -1.432  0.00  0.00    +0.093 C 
BRANCH   5   6
ATOM      6  C   UNL     1      -0.050  -0.044  -0.017  0.00  0.00    -0.020 C 
BRANCH   6  12
ATOM      7  C   UNL     1      -0.911  -1.641   1.585  0.00  0.00    -0.078 C 
ATOM      8  C   UNL     1      -2.054  -1.911   2.567  0.00  0.00    -0.019 C 
ATOM      9  C   UNL     1      -3.366  -2.047   1.791  0.00  0.00    -0.004 C 
ATOM     10  C   UNL     1      -3.607  -0.769   0.982  0.00  0.00    -0.019 C 
ATOM     11  C   UNL     1      -2.420  -0.533   0.046  0.00  0.00    -0.078 C 
ATOM     12  N   UNL     1      -1.192  -0.386   0.856  0.00  0.00    +0.385 N 
ATOM     13  H   UNL     1      -1.330   0.370   1.536  0.00  0.00    -0.081 HD
ENDBRANCH   6  12
BRANCH   6  17
ATOM     14  C   UNL     1       0.331   4.211  -0.142  0.00  0.00    +0.120 A 
ATOM     15  C   UNL     1       1.457   3.417   0.021  0.00  0.00    +0.046 A 
ATOM     16  C   UNL     1       1.331   2.042   0.061  0.00  0.00    +0.005 A 
ATOM     17  C   UNL     1       0.085   1.457  -0.061  0.00  0.00    -0.059 A 
ATOM     18  C   UNL     1      -1.038   2.245  -0.228  0.00  0.00    +0.005 A 
ATOM     19  C   UNL     1      -0.919   3.621  -0.263  0.00  0.00    +0.046 A 
BRANCH  14  21
ATOM     20  C   UNL     1      -0.749   6.318  -0.352  0.00  0.00    +0.277 C 
ATOM     21  O   UNL     1       0.453   5.564  -0.182  0.00  0.00    -0.495 OA
ENDBRANCH  14  21
ENDBRANCH   6  17
ENDBRANCH   5   6
ENDBRANCH   1   5
BRANCH   2  22
ATOM     22  C   UNL     1      -0.786  -4.226  -2.470  0.00  0.00    +0.174 C 
BRANCH  22  23
ATOM     23  S   UNL     1      -1.256  -4.845  -4.105  0.00  0.00    -0.056 S 
BRANCH  23  24
ATOM     24  C   UNL     1      -1.280  -6.577  -3.782  0.00  0.00    +0.278 A 
ATOM     25  N   UNL     1      -1.009  -7.157  -2.636  0.00  0.00    -0.101 NA
ATOM     26  N   UNL     1      -1.128  -8.432  -2.763  0.00  0.00    -0.106 NA
ATOM     27  C   UNL     1      -1.471  -8.717  -3.995  0.00  0.00    +0.249 A 
ATOM     28  O   UNL     1      -1.575  -7.549  -4.667  0.00  0.00    -0.411 OA
BRANCH  27  29
ATOM     29  C   UNL     1      -1.701 -10.067  -4.549  0.00  0.00    +0.042 A 
ATOM     30  C   UNL     1      -2.069 -10.222  -5.887  0.00  0.00    +0.017 A 
ATOM     31  C   UNL     1      -2.278 -11.483  -6.403  0.00  0.00    +0.050 A 
ATOM     32  C   UNL     1      -2.135 -12.601  -5.594  0.00  0.00    +0.166 A 
ATOM     33  C   UNL     1      -1.774 -12.454  -4.256  0.00  0.00    +0.167 A 
ATOM     34  C   UNL     1      -1.557 -11.192  -3.734  0.00  0.00    +0.062 A 
ATOM     35  O   UNL     1      -1.701 -13.691  -3.685  0.00  0.00    -0.453 OA
ATOM     36  C   UNL     1      -1.620 -14.618  -4.784  0.00  0.00    +0.466 C 
ATOM     37  O   UNL     1      -2.288 -13.932  -5.859  0.00  0.00    -0.453 OA
ENDBRANCH  27  29
ENDBRANCH  23  24
ENDBRANCH  22  23
ENDBRANCH   2  22
TORSDOF 9
