REMARK  Name = ZINC20220335
REMARK  6 active torsions:
REMARK  status: ('A' for Active; 'I' for Inactive)
REMARK    1  A    between atoms: C_1  and  N_2
REMARK    2  A    between atoms: C_5  and  C_21
REMARK    3  A    between atoms: N_9  and  C_10
REMARK    4  A    between atoms: C_14  and  C_16
REMARK    5  A    between atoms: C_21  and  C_22
REMARK    6  A    between atoms: N_24  and  C_25
REMARK                            x       y       z     vdW  Elec       q    Type
REMARK                         _______ _______ _______ _____ _____    ______ ____
ROOT
ATOM      1  C   UNL     1      -2.439  -0.333   0.039  0.00  0.00    +0.140 C 
ATOM      2  N   UNL     1      -1.081  -0.881   0.013  0.00  0.00    -0.253 N 
ATOM      3  C   UNL     1      -0.923  -2.193   0.004  0.00  0.00    +0.235 C 
ATOM      4  O   UNL     1      -1.866  -2.956   0.016  0.00  0.00    -0.274 OA
ATOM      5  C   UNL     1       0.514  -2.687  -0.015  0.00  0.00    +0.149 C 
ATOM      6  S   UNL     1       1.413  -1.086  -0.025  0.00  0.00    -0.077 S 
ATOM      7  C   UNL     1      -0.012  -0.009  -0.005  0.00  0.00    +0.164 C 
ATOM      8  N   UNL     1      -0.037   1.303  -0.003  0.00  0.00    -0.226 NA
ENDROOT
BRANCH   8   9
ATOM      9  C   UNL     1       1.136   2.010  -0.018  0.00  0.00    +0.067 A 
ATOM     10  C   UNL     1       2.187   1.642   0.826  0.00  0.00    +0.029 A 
ATOM     11  C   UNL     1       3.368   2.354   0.802  0.00  0.00    +0.022 A 
ATOM     12  C   UNL     1       3.509   3.439  -0.047  0.00  0.00    +0.053 A 
ATOM     13  C   UNL     1       2.469   3.812  -0.882  0.00  0.00    +0.075 A 
ATOM     14  C   UNL     1       1.285   3.104  -0.872  0.00  0.00    +0.041 A 
ATOM     15 CL   UNL     1       4.996   4.335  -0.066  0.00  0.00    -0.083 Cl
BRANCH  13  16
ATOM     16  C   UNL     1       2.631   4.994  -1.803  0.00  0.00    +0.419 C 
ATOM     17  F   UNL     1       1.456   5.174  -2.541  0.00  0.00    -0.166 F 
ATOM     18  F   UNL     1       2.888   6.142  -1.047  0.00  0.00    -0.166 F 
ATOM     19  F   UNL     1       3.699   4.762  -2.676  0.00  0.00    -0.166 F 
ENDBRANCH  13  16
ENDBRANCH   8   9
BRANCH   5  20
ATOM     20  C   UNL     1       0.806  -3.495  -1.282  0.00  0.00    +0.120 C 
BRANCH  20  21
ATOM     21  C   UNL     1       2.255  -3.910  -1.289  0.00  0.00    +0.219 C 
ATOM     22  O   UNL     1       2.982  -3.591  -0.372  0.00  0.00    -0.275 OA
ATOM     23  N   UNL     1       2.743  -4.635  -2.315  0.00  0.00    -0.285 N 
ATOM     24  H   UNL     1       2.068  -4.989  -3.108  0.00  0.00    +0.155 HD
BRANCH  23  25
ATOM     25  C   UNL     1       4.108  -4.938  -2.371  0.00  0.00    +0.033 A 
ATOM     26  C   UNL     1       4.757  -5.002  -3.597  0.00  0.00    +0.025 A 
ATOM     27  C   UNL     1       6.105  -5.296  -3.649  0.00  0.00    +0.022 A 
ATOM     28  C   UNL     1       6.808  -5.539  -2.482  0.00  0.00    +0.041 A 
ATOM     29  C   UNL     1       6.162  -5.481  -1.259  0.00  0.00    +0.022 A 
ATOM     30  C   UNL     1       4.815  -5.182  -1.201  0.00  0.00    +0.025 A 
ATOM     31 CL   UNL     1       8.501  -5.915  -2.551  0.00  0.00    -0.084 Cl
ENDBRANCH  23  25
ENDBRANCH  20  21
ENDBRANCH   5  20
TORSDOF 5
