REMARK  Name = ZINC59076301
REMARK  15 active torsions:
REMARK  status: ('A' for Active; 'I' for Inactive)
REMARK    1  A    between atoms: C_1  and  C_2
REMARK    2  A    between atoms: C_5  and  S_8
REMARK    3  A    between atoms: S_8  and  N_11
REMARK    4  A    between atoms: N_14  and  C_15
REMARK    5  A    between atoms: N_14  and  C_24
REMARK    6  A    between atoms: C_15  and  C_16
REMARK    7  A    between atoms: C_19  and  O_22
REMARK    8  A    between atoms: O_22  and  C_23
REMARK    9  A    between atoms: C_24  and  C_25
REMARK   10  A    between atoms: C_28  and  O_35
REMARK   11  A    between atoms: C_29  and  O_33
REMARK   12  A    between atoms: C_30  and  O_31
REMARK   13  A    between atoms: O_31  and  C_32
REMARK   14  A    between atoms: O_33  and  C_34
REMARK   15  A    between atoms: O_35  and  C_36
REMARK                            x       y       z     vdW  Elec       q    Type
REMARK                         _______ _______ _______ _____ _____    ______ ____
ROOT
ATOM      1  N   UNL     1       1.651  -4.999  -0.034  0.00  0.00    -0.072 NA
ATOM      2  C   UNL     1       1.956  -6.264  -0.043  0.00  0.00    +0.355 C 
ATOM      3  O   UNL     1       0.976  -7.195  -0.042  0.00  0.00    -0.246 OA
ATOM      4  N   UNL     1       3.273  -6.653  -0.052  0.00  0.00    -0.272 N 
ENDROOT
BRANCH   1   5
ATOM      5  S   UNL     1       0.063  -4.530  -0.023  0.00  0.00    +0.103 S 
ATOM      6  O   UNL     1      -0.476  -4.950   1.223  0.00  0.00    -0.146 OA
ATOM      7  O   UNL     1      -0.490  -4.937  -1.267  0.00  0.00    -0.146 OA
BRANCH   5  12
ATOM      8  C   UNL     1      -0.018   1.503   0.010  0.00  0.00    +0.044 C 
ATOM      9  C   UNL     1       0.002  -0.004   0.002  0.00  0.00    -0.050 A 
ATOM     10  C   UNL     1       0.006  -0.689  -1.199  0.00  0.00    +0.005 A 
ATOM     11  C   UNL     1       0.025  -2.071  -1.206  0.00  0.00    +0.029 A 
ATOM     12  C   UNL     1       0.040  -2.768  -0.013  0.00  0.00    +0.113 A 
ATOM     13  C   UNL     1       0.037  -2.084   1.188  0.00  0.00    +0.029 A 
ATOM     14  C   UNL     1       0.023  -0.702   1.195  0.00  0.00    +0.005 A 
ENDBRANCH   5  12
ENDBRANCH   1   5
BRANCH   4  15
ATOM     15  C   UNL     1       3.616  -8.078  -0.062  0.00  0.00    +0.145 C 
BRANCH  15  16
ATOM     16  C   UNL     1       3.725  -8.558  -1.486  0.00  0.00    -0.030 A 
ATOM     17  C   UNL     1       2.610  -9.054  -2.135  0.00  0.00    +0.009 A 
ATOM     18  C   UNL     1       2.708  -9.495  -3.440  0.00  0.00    +0.046 A 
ATOM     19  C   UNL     1       3.927  -9.441  -4.100  0.00  0.00    +0.120 A 
ATOM     20  C   UNL     1       5.045  -8.943  -3.447  0.00  0.00    +0.046 A 
ATOM     21  C   UNL     1       4.940  -8.498  -2.143  0.00  0.00    +0.009 A 
BRANCH  19  22
ATOM     22  O   UNL     1       4.026  -9.875  -5.384  0.00  0.00    -0.495 OA
ATOM     23  C   UNL     1       5.312  -9.790  -6.000  0.00  0.00    +0.277 C 
ENDBRANCH  19  22
ENDBRANCH  15  16
ENDBRANCH   4  15
BRANCH   4  24
ATOM     24  C   UNL     1       4.335  -5.644  -0.053  0.00  0.00    +0.149 C 
BRANCH  24  25
ATOM     25  C   UNL     1       4.707  -5.306   1.368  0.00  0.00    +0.015 A 
ATOM     26  C   UNL     1       4.202  -4.163   1.960  0.00  0.00    +0.012 A 
ATOM     27  C   UNL     1       4.540  -3.848   3.263  0.00  0.00    +0.050 A 
ATOM     28  C   UNL     1       5.388  -4.678   3.981  0.00  0.00    +0.165 A 
ATOM     29  C   UNL     1       5.897  -5.828   3.389  0.00  0.00    +0.204 A 
ATOM     30  C   UNL     1       5.550  -6.144   2.081  0.00  0.00    +0.170 A 
BRANCH  30  31
ATOM     31  O   UNL     1       6.042  -7.270   1.499  0.00  0.00    -0.491 OA
ATOM     32  C   UNL     1       7.283  -7.151   0.802  0.00  0.00    +0.277 C 
ENDBRANCH  30  31
BRANCH  29  33
ATOM     33  O   UNL     1       6.729  -6.645   4.091  0.00  0.00    -0.488 OA
ATOM     34  C   UNL     1       6.122  -7.696   4.846  0.00  0.00    +0.277 C 
ENDBRANCH  29  33
BRANCH  28  35
ATOM     35  O   UNL     1       5.720  -4.367   5.263  0.00  0.00    -0.491 OA
ATOM     36  C   UNL     1       5.160  -3.170   5.806  0.00  0.00    +0.277 C 
ENDBRANCH  28  35
ENDBRANCH  24  25
ENDBRANCH   4  24
TORSDOF 10
