REMARK  Name = ZINC52445633
REMARK  9 active torsions:
REMARK  status: ('A' for Active; 'I' for Inactive)
REMARK    1  A    between atoms: C_1  and  C_2
REMARK    2  A    between atoms: C_3  and  C_25
REMARK    3  A    between atoms: C_5  and  N_22
REMARK    4  A    between atoms: C_6  and  N_11
REMARK    5  A    between atoms: C_7  and  N_8
REMARK    6  A    between atoms: N_11  and  C_12
REMARK    7  A    between atoms: C_12  and  C_13
REMARK    8  A    between atoms: C_13  and  C_14
REMARK    9  A    between atoms: C_25  and  O_26
REMARK                            x       y       z     vdW  Elec       q    Type
REMARK                         _______ _______ _______ _____ _____    ______ ____
ROOT
ATOM      1  C   UNL     1      -0.568   1.404  -0.070  0.00  0.00    +0.046 C 
ATOM      2  C   UNL     1      -0.198  -0.057  -0.094  0.00  0.00    -0.013 A 
ATOM      3  C   UNL     1       0.168  -0.657  -1.285  0.00  0.00    -0.015 A 
ATOM      4  C   UNL     1       0.508  -1.997  -1.312  0.00  0.00    +0.041 A 
ATOM      5  C   UNL     1       0.485  -2.740  -0.148  0.00  0.00    +0.149 A 
ATOM      6  C   UNL     1       0.119  -2.140   1.050  0.00  0.00    +0.089 A 
ATOM      7  C   UNL     1      -0.218  -0.793   1.074  0.00  0.00    +0.152 A 
ENDROOT
BRANCH   7   8
ATOM      8  N   UNL     1      -0.603  -0.148   2.349  0.00  0.00    +0.059 N 
ATOM      9  O   UNL     1      -1.762  -0.135   2.695  0.00  0.00    -0.126 OA
ATOM     10  O   UNL     1       0.240   0.367   3.046  0.00  0.00    -0.126 OA
ENDBRANCH   7   8
BRANCH   5  11
ATOM     11  N   UNL     1       0.850  -4.175  -0.177  0.00  0.00    +0.058 N 
ATOM     12  O   UNL     1       1.060  -4.723  -1.233  0.00  0.00    -0.126 OA
ATOM     13  O   UNL     1       0.936  -4.798   0.856  0.00  0.00    -0.126 OA
ENDBRANCH   5  11
BRANCH   6  14
ATOM     14  N   UNL     1       0.094  -2.889   2.229  0.00  0.00    -0.340 N 
ATOM     15  H   UNL     1      -0.057  -3.846   2.193  0.00  0.00    +0.146 HD
BRANCH  14  16
ATOM     16  C   UNL     1       0.295  -2.228   3.521  0.00  0.00    +0.106 C 
BRANCH  16  17
ATOM     17  C   UNL     1       0.396  -3.284   4.624  0.00  0.00    +0.059 C 
BRANCH  17  18
ATOM     18  C   UNL     1       0.603  -2.604   5.953  0.00  0.00    +0.024 A 
ATOM     19  C   UNL     1       1.885  -2.339   6.403  0.00  0.00    +0.129 A 
ATOM     20  C   UNL     1       2.074  -1.715   7.624  0.00  0.00    +0.039 A 
ATOM     21  C   UNL     1       0.984  -1.356   8.393  0.00  0.00    +0.006 A 
ATOM     22  C   UNL     1      -0.296  -1.620   7.946  0.00  0.00    +0.039 A 
ATOM     23  C   UNL     1      -0.488  -2.239   6.722  0.00  0.00    +0.129 A 
ATOM     24  F   UNL     1      -1.740  -2.492   6.281  0.00  0.00    -0.205 F 
ATOM     25  F   UNL     1       2.951  -2.691   5.651  0.00  0.00    -0.205 F 
ENDBRANCH  17  18
ENDBRANCH  16  17
ENDBRANCH  14  16
ENDBRANCH   6  14
BRANCH   3  26
ATOM     26  C   UNL     1       0.194   0.150  -2.557  0.00  0.00    +0.191 C 
BRANCH  26  27
ATOM     27  O   UNL     1       0.599  -0.685  -3.644  0.00  0.00    -0.390 OA
ATOM     28  H   UNL     1       0.638  -0.231  -4.496  0.00  0.00    +0.210 HD
ENDBRANCH  26  27
ENDBRANCH   3  26
TORSDOF 8
