REMARK  Name = ZINC12486919
REMARK  9 active torsions:
REMARK  status: ('A' for Active; 'I' for Inactive)
REMARK    1  A    between atoms: C_4  and  C_7
REMARK    2  A    between atoms: C_7  and  C_9
REMARK    3  A    between atoms: C_7  and  N_18
REMARK    4  A    between atoms: N_11  and  C_12
REMARK    5  A    between atoms: C_12  and  C_13
REMARK    6  A    between atoms: N_18  and  C_19
REMARK    7  A    between atoms: C_28  and  C_30
REMARK    8  A    between atoms: C_30  and  N_31
REMARK    9  A    between atoms: C_32  and  C_34
REMARK                            x       y       z     vdW  Elec       q    Type
REMARK                         _______ _______ _______ _____ _____    ______ ____
ROOT
ATOM      1  N   UNL     1      -0.886   1.290  -4.953  0.00  0.00    -0.254 N 
ATOM      2  C   UNL     1      -0.719   2.126  -5.997  0.00  0.00    +0.238 C 
ATOM      3  O   UNL     1      -0.310   3.253  -5.812  0.00  0.00    -0.274 OA
ENDROOT
BRANCH   1   4
ATOM      4  C   UNL     1      -1.272  -0.037  -5.173  0.00  0.00    +0.038 A 
ATOM      5  C   UNL     1      -0.386  -0.932  -5.759  0.00  0.00    +0.024 A 
ATOM      6  C   UNL     1      -0.769  -2.241  -5.968  0.00  0.00    +0.006 A 
ATOM      7  C   UNL     1      -2.039  -2.663  -5.609  0.00  0.00    -0.044 A 
ATOM      8  C   UNL     1      -2.926  -1.773  -5.032  0.00  0.00    -0.042 A 
ATOM      9  C   UNL     1      -2.543  -0.461  -4.814  0.00  0.00    +0.027 A 
ATOM     10  C   UNL     1      -4.234  -2.474  -4.735  0.00  0.00    +0.036 C 
ATOM     11  C   UNL     1      -4.205  -3.761  -5.586  0.00  0.00    +0.009 C 
ATOM     12  C   UNL     1      -2.692  -4.023  -5.739  0.00  0.00    +0.036 C 
ENDBRANCH   1   4
BRANCH   1  13
ATOM     13  C   UNL     1      -0.663   1.770  -3.587  0.00  0.00    +0.197 C 
BRANCH  13  17
ATOM     14  C   UNL     1      -1.837  -1.253  -0.806  0.00  0.00    +0.000 A 
ATOM     15  C   UNL     1      -2.400   0.008  -0.736  0.00  0.00    +0.000 A 
ATOM     16  C   UNL     1      -2.021   0.986  -1.636  0.00  0.00    +0.006 A 
ATOM     17  C   UNL     1      -1.077   0.704  -2.606  0.00  0.00    -0.018 A 
ATOM     18  C   UNL     1      -0.517  -0.558  -2.679  0.00  0.00    +0.006 A 
ATOM     19  C   UNL     1      -0.894  -1.535  -1.776  0.00  0.00    +0.000 A 
ENDBRANCH  13  17
BRANCH  13  20
ATOM     20  C   UNL     1       0.798   2.086  -3.398  0.00  0.00    +0.239 C 
ATOM     21  O   UNL     1       1.577   1.926  -4.314  0.00  0.00    -0.273 OA
ATOM     22  N   UNL     1       1.240   2.547  -2.211  0.00  0.00    -0.306 N 
ATOM     23  H   UNL     1       0.618   2.675  -1.478  0.00  0.00    +0.149 HD
BRANCH  22  24
ATOM     24  C   UNL     1       2.661   2.855  -2.027  0.00  0.00    +0.178 C 
BRANCH  24  25
ATOM     25  C   UNL     1       2.890   3.349  -0.622  0.00  0.00    +0.122 A 
ATOM     26  C   UNL     1       3.189   2.583   0.443  0.00  0.00    +0.046 A 
ATOM     27  C   UNL     1       3.317   3.452   1.550  0.00  0.00    +0.041 A 
ATOM     28  C   UNL     1       3.089   4.697   1.097  0.00  0.00    +0.195 A 
ATOM     29  O   UNL     1       2.836   4.630  -0.221  0.00  0.00    -0.466 OA
ENDBRANCH  24  25
ENDBRANCH  22  24
ENDBRANCH  13  20
ENDBRANCH   1  13
BRANCH   2  30
ATOM     30  C   UNL     1      -1.040   1.660  -7.394  0.00  0.00    +0.201 C 
BRANCH  30  31
ATOM     31  N   UNL     1      -0.697   2.715  -8.351  0.00  0.00    -0.300 N 
ATOM     32  C   UNL     1      -0.900   2.521  -9.669  0.00  0.00    +0.280 C 
ATOM     33  O   UNL     1      -1.367   1.469 -10.064  0.00  0.00    -0.267 OA
ATOM     34  H   UNL     1      -0.325   3.553  -8.036  0.00  0.00    +0.150 HD
BRANCH  32  35
ATOM     35  C   UNL     1      -0.557   3.577 -10.627  0.00  0.00    +0.189 A 
ATOM     36  C   UNL     1      -0.710   3.511 -11.982  0.00  0.00    +0.054 A 
ATOM     37  C   UNL     1      -0.258   4.735 -12.499  0.00  0.00    +0.042 A 
ATOM     38  C   UNL     1       0.146   5.485 -11.450  0.00  0.00    +0.196 A 
ATOM     39  O   UNL     1      -0.040   4.785 -10.323  0.00  0.00    -0.458 OA
ENDBRANCH  32  35
ENDBRANCH  30  31
ENDBRANCH   2  30
TORSDOF 9
