REMARK  Name = ZINC40801550
REMARK  8 active torsions:
REMARK  status: ('A' for Active; 'I' for Inactive)
REMARK    1  A    between atoms: C_1  and  C_2
REMARK    2  A    between atoms: C_2  and  O_3
REMARK    3  A    between atoms: O_3  and  C_4
REMARK    4  A    between atoms: C_4  and  C_6
REMARK    5  A    between atoms: C_10  and  N_11
REMARK    6  A    between atoms: C_12  and  C_14
REMARK    7  A    between atoms: C_14  and  C_15
REMARK    8  A    between atoms: C_22  and  C_27
REMARK                            x       y       z     vdW  Elec       q    Type
REMARK                         _______ _______ _______ _____ _____    ______ ____
ROOT
ATOM      1  N   UNL     1      -0.604  -2.455  -3.925  0.00  0.00    -0.279 N 
ATOM      2  C   UNL     1      -1.119  -2.783  -5.126  0.00  0.00    +0.222 C 
ATOM      3  O   UNL     1      -0.397  -3.225  -5.995  0.00  0.00    -0.275 OA
ATOM      4  H   UNL     1      -1.181  -2.102  -3.230  0.00  0.00    +0.155 HD
ENDROOT
BRANCH   1   9
ATOM      5  C   UNL     1       1.449  -2.344  -2.516  0.00  0.00    +0.091 A 
ATOM      6  C   UNL     1       2.876  -2.619  -2.515  0.00  0.00    -0.021 A 
ATOM      7  C   UNL     1       3.343  -3.117  -3.680  0.00  0.00    -0.004 A 
ATOM      8  S   UNL     1       1.922  -3.212  -4.730  0.00  0.00    -0.077 S 
ATOM      9  C   UNL     1       0.750  -2.624  -3.681  0.00  0.00    +0.086 A 
ATOM     10  C   UNL     1       4.757  -3.498  -3.993  0.00  0.00    +0.043 C 
ATOM     11  C   UNL     1       5.669  -2.887  -2.920  0.00  0.00    +0.005 C 
ATOM     12  C   UNL     1       5.082  -3.191  -1.538  0.00  0.00    +0.005 C 
ATOM     13  C   UNL     1       3.799  -2.383  -1.329  0.00  0.00    +0.037 C 
BRANCH   5  14
ATOM     14  C   UNL     1       0.776  -1.800  -1.335  0.00  0.00    +0.342 C 
ATOM     15  O   UNL     1       0.312  -2.552  -0.499  0.00  0.00    -0.245 OA
BRANCH  14  16
ATOM     16  O   UNL     1       0.671  -0.465  -1.174  0.00  0.00    -0.461 OA
BRANCH  16  18
ATOM     17  C   UNL     1      -0.019   1.526   0.010  0.00  0.00    +0.048 C 
ATOM     18  C   UNL     1       0.002  -0.004   0.002  0.00  0.00    +0.229 C 
ENDBRANCH  16  18
ENDBRANCH  14  16
ENDBRANCH   5  14
ENDBRANCH   1   9
BRANCH   2  19
ATOM     19  C   UNL     1      -2.591  -2.599  -5.391  0.00  0.00    +0.150 C 
BRANCH  19  20
ATOM     20  C   UNL     1      -2.912  -3.043  -6.819  0.00  0.00    +0.268 C 
ATOM     21  C   UNL     1      -4.401  -2.978  -7.043  0.00  0.00    +0.259 C 
ATOM     22  O   UNL     1      -5.089  -3.959  -6.854  0.00  0.00    -0.271 OA
ATOM     23  N   UNL     1      -4.966  -1.823  -7.454  0.00  0.00    -0.280 N 
ATOM     24  C   UNL     1      -4.142  -0.740  -7.788  0.00  0.00    +0.076 A 
ATOM     25  C   UNL     1      -4.683   0.520  -7.992  0.00  0.00    +0.030 A 
ATOM     26  C   UNL     1      -3.855   1.581  -8.308  0.00  0.00    -0.048 A 
ATOM     27  C   UNL     1      -2.490   1.389  -8.419  0.00  0.00    +0.007 A 
ATOM     28  C   UNL     1      -1.945   0.134  -8.222  0.00  0.00    +0.048 A 
ATOM     29  C   UNL     1      -2.768  -0.935  -7.912  0.00  0.00    +0.143 A 
ATOM     30  O   UNL     1      -2.248  -2.180  -7.746  0.00  0.00    -0.477 OA
ATOM     31  C   UNL     1      -4.442   2.951  -8.531  0.00  0.00    +0.044 C 
ATOM     32  H   UNL     1      -5.931  -1.744  -7.517  0.00  0.00    +0.155 HD
ENDBRANCH  19  20
ENDBRANCH   2  19
TORSDOF 6
