REMARK  Name = ZINC07736281
REMARK  7 active torsions:
REMARK  status: ('A' for Active; 'I' for Inactive)
REMARK    1  A    between atoms: C_1  and  C_2
REMARK    2  A    between atoms: C_5  and  C_9
REMARK    3  A    between atoms: C_7  and  C_8
REMARK    4  A    between atoms: C_12  and  S_14
REMARK    5  A    between atoms: S_14  and  C_15
REMARK    6  A    between atoms: C_15  and  C_17
REMARK    7  A    between atoms: C_15  and  C_18
REMARK                            x       y       z     vdW  Elec       q    Type
REMARK                         _______ _______ _______ _____ _____    ______ ____
ROOT
ATOM      1  C   UNL     1      -3.319   2.867   1.862  0.00  0.00    +0.139 C 
ATOM      2  C   UNL     1      -3.009   1.844   2.957  0.00  0.00    +0.029 C 
ENDROOT
BRANCH   1   3
ATOM      3  C   UNL     1      -2.086   3.684   1.574  0.00  0.00    +0.233 C 
ATOM      4  O   UNL     1      -1.925   4.753   2.125  0.00  0.00    -0.274 OA
ATOM      5  N   UNL     1      -1.163   3.228   0.706  0.00  0.00    -0.260 N 
ATOM      6  C   UNL     1      -1.335   1.935   0.019  0.00  0.00    +0.209 C 
ATOM      7  C   UNL     1      -0.014   1.209   0.009  0.00  0.00    +0.235 C 
ATOM      8  O   UNL     1       0.002  -0.004   0.002  0.00  0.00    -0.274 OA
ATOM      9  N   UNL     1       1.147   1.890   0.001  0.00  0.00    -0.283 N 
ATOM     10  C   UNL     1       1.157   3.288   0.058  0.00  0.00    +0.055 A 
ATOM     11  C   UNL     1      -0.006   3.970   0.421  0.00  0.00    +0.058 A 
ATOM     12  C   UNL     1      -0.009   5.351   0.488  0.00  0.00    +0.025 A 
ATOM     13  C   UNL     1       1.144   6.056   0.190  0.00  0.00    +0.002 A 
ATOM     14  C   UNL     1       2.295   5.383  -0.173  0.00  0.00    +0.002 A 
ATOM     15  C   UNL     1       2.306   4.001  -0.240  0.00  0.00    +0.025 A 
ATOM     16  H   UNL     1       1.987   1.406  -0.044  0.00  0.00    +0.155 HD
ENDBRANCH   1   3
BRANCH   1  17
ATOM     17  S   UNL     1      -4.651   3.960   2.418  0.00  0.00    -0.053 S 
BRANCH  17  21
ATOM     18  C   UNL     1      -7.905   1.893   2.851  0.00  0.00    +0.249 A 
ATOM     19  N   UNL     1      -7.056   0.977   2.454  0.00  0.00    -0.106 NA
ATOM     20  N   UNL     1      -5.904   1.516   2.264  0.00  0.00    -0.101 NA
ATOM     21  C   UNL     1      -5.972   2.799   2.531  0.00  0.00    +0.278 A 
ATOM     22  O   UNL     1      -7.236   3.065   2.913  0.00  0.00    -0.411 OA
BRANCH  18  27
ATOM     23  C   UNL     1     -13.459   1.071   4.113  0.00  0.00    +0.044 C 
ATOM     24  C   UNL     1     -12.004   1.286   3.782  0.00  0.00    -0.047 A 
ATOM     25  C   UNL     1     -11.454   2.551   3.888  0.00  0.00    +0.004 A 
ATOM     26  C   UNL     1     -10.122   2.754   3.593  0.00  0.00    +0.013 A 
ATOM     27  C   UNL     1      -9.331   1.682   3.175  0.00  0.00    +0.039 A 
ATOM     28  C   UNL     1      -9.893   0.408   3.071  0.00  0.00    +0.016 A 
ATOM     29  C   UNL     1     -11.225   0.218   3.375  0.00  0.00    -0.047 A 
ATOM     30  C   UNL     1     -11.833  -1.157   3.264  0.00  0.00    +0.044 C 
ENDBRANCH  18  27
ENDBRANCH  17  21
ENDBRANCH   1  17
TORSDOF 4
