REMARK  Name = ZINC46773101
REMARK  7 active torsions:
REMARK  status: ('A' for Active; 'I' for Inactive)
REMARK    1  A    between atoms: C_4  and  N_11
REMARK    2  A    between atoms: C_5  and  C_7
REMARK    3  A    between atoms: N_11  and  C_12
REMARK    4  A    between atoms: C_12  and  N_14
REMARK    5  A    between atoms: N_14  and  N_15
REMARK    6  A    between atoms: C_16  and  C_18
REMARK    7  A    between atoms: C_21  and  N_24
REMARK                            x       y       z     vdW  Elec       q    Type
REMARK                         _______ _______ _______ _____ _____    ______ ____
ROOT
ATOM      1  N   UNL     1       5.945  -0.623  -0.263  0.00  0.00    -0.245 N 
ATOM      2  H   UNL     1       6.775  -0.128  -0.341  0.00  0.00    +0.172 HD
ENDROOT
BRANCH   1   3
ATOM      3  N   UNL     1       5.961  -2.023  -0.270  0.00  0.00    -0.231 N 
ATOM      4  C   UNL     1       7.130  -2.683  -0.387  0.00  0.00    +0.260 C 
ATOM      5  O   UNL     1       8.171  -2.063  -0.485  0.00  0.00    -0.269 OA
ATOM      6  H   UNL     1       5.130  -2.518  -0.191  0.00  0.00    +0.173 HD
BRANCH   4   7
ATOM      7  C   UNL     1       7.147  -4.159  -0.394  0.00  0.00    +0.038 A 
ATOM      8  C   UNL     1       5.951  -4.874  -0.287  0.00  0.00    +0.015 A 
ATOM      9  C   UNL     1       5.970  -6.250  -0.294  0.00  0.00    +0.024 A 
ATOM     10  C   UNL     1       7.179  -6.930  -0.408  0.00  0.00    +0.040 A 
ATOM     11  C   UNL     1       8.372  -6.221  -0.516  0.00  0.00    +0.024 A 
ATOM     12  C   UNL     1       8.359  -4.845  -0.515  0.00  0.00    +0.015 A 
BRANCH  10  13
ATOM     13  N   UNL     1       7.195  -8.324  -0.415  0.00  0.00    -0.234 N 
ATOM     14  C   UNL     1       8.393  -9.180  -0.523  0.00  0.00    +0.158 C 
ATOM     15  C   UNL     1       7.846 -10.563  -0.096  0.00  0.00    +0.253 C 
ATOM     16  O   UNL     1       6.441 -10.434  -0.389  0.00  0.00    -0.448 OA
ATOM     17  C   UNL     1       6.122  -9.131  -0.318  0.00  0.00    +0.407 C 
ATOM     18  O   UNL     1       4.985  -8.724  -0.184  0.00  0.00    -0.226 OA
ENDBRANCH  10  13
ENDBRANCH   4   7
ENDBRANCH   1   3
BRANCH   1  19
ATOM     19  C   UNL     1       4.775   0.037  -0.146  0.00  0.00    +0.151 C 
ATOM     20  S   UNL     1       4.755   1.749  -0.137  0.00  0.00    -0.017 S 
BRANCH  19  21
ATOM     21  N   UNL     1       3.621  -0.651  -0.036  0.00  0.00    -0.295 N 
ATOM     22  H   UNL     1       3.638  -1.617   0.039  0.00  0.00    +0.154 HD
BRANCH  21  26
ATOM     23  C   UNL     1      -0.018   1.375  -0.021  0.00  0.00    +0.001 A 
ATOM     24  C   UNL     1       0.958   1.718  -0.938  0.00  0.00    +0.002 A 
ATOM     25  C   UNL     1       2.166   1.048  -0.946  0.00  0.00    +0.024 A 
ATOM     26  C   UNL     1       2.399   0.030  -0.031  0.00  0.00    +0.044 A 
ATOM     27  C   UNL     1       1.417  -0.311   0.889  0.00  0.00    +0.076 A 
ATOM     28  C   UNL     1       0.211   0.362   0.892  0.00  0.00    +0.014 A 
BRANCH  27  29
ATOM     29  C   UNL     1       1.666  -1.416   1.884  0.00  0.00    +0.419 C 
ATOM     30  F   UNL     1       0.539  -1.574   2.697  0.00  0.00    -0.166 F 
ATOM     31  F   UNL     1       1.918  -2.611   1.200  0.00  0.00    -0.166 F 
ATOM     32  F   UNL     1       2.772  -1.090   2.676  0.00  0.00    -0.166 F 
ENDBRANCH  27  29
ENDBRANCH  21  26
ENDBRANCH  19  21
ENDBRANCH   1  19
TORSDOF 7
