REMARK  Name = ZINC09505634
REMARK  11 active torsions:
REMARK  status: ('A' for Active; 'I' for Inactive)
REMARK    1  A    between atoms: C_1  and  C_2
REMARK    2  A    between atoms: C_5  and  C_33
REMARK    3  A    between atoms: N_11  and  C_12
REMARK    4  A    between atoms: C_12  and  C_13
REMARK    5  A    between atoms: C_13  and  C_14
REMARK    6  A    between atoms: C_14  and  N_63
REMARK    7  A    between atoms: C_15  and  N_63
REMARK    8  A    between atoms: C_16  and  N_63
REMARK    9  A    between atoms: C_17  and  C_19
REMARK   10  A    between atoms: N_24  and  S_25
REMARK   11  A    between atoms: S_25  and  C_28
REMARK                            x       y       z     vdW  Elec       q    Type
REMARK                         _______ _______ _______ _____ _____    ______ ____
ROOT
ATOM      1  C   UNL     1      -0.615   1.691  -0.907  0.00  0.00    +0.046 C 
ATOM      2  C   UNL     1       0.861   1.765  -1.207  0.00  0.00    -0.024 A 
ATOM      3  C   UNL     1       1.427   2.970  -1.532  0.00  0.00    +0.006 A 
ATOM      4  C   UNL     1       2.781   3.084  -1.809  0.00  0.00    +0.005 A 
ATOM      5  C   UNL     1       3.579   1.955  -1.762  0.00  0.00    -0.035 A 
ATOM      6  C   UNL     1       3.020   0.743  -1.442  0.00  0.00    +0.044 A 
ATOM      7  C   UNL     1       1.644   0.590  -1.154  0.00  0.00    +0.083 A 
ATOM      8  N   UNL     1       1.246  -0.666  -0.856  0.00  0.00    -0.224 NA
ATOM      9  C   UNL     1       2.075  -1.683  -0.834  0.00  0.00    +0.168 A 
ATOM     10  S   UNL     1       3.631  -0.916  -1.265  0.00  0.00    -0.052 S 
ATOM     11  N   UNL     1       1.812  -3.013  -0.549  0.00  0.00    -0.249 N 
ATOM     12  C   UNL     1       0.558  -3.401  -0.243  0.00  0.00    +0.240 C 
ATOM     13  O   UNL     1      -0.356  -2.607  -0.312  0.00  0.00    -0.273 OA
ATOM     14  C   UNL     1       5.053   2.055  -2.059  0.00  0.00    +0.045 C 
ENDROOT
BRANCH  12  15
ATOM     15  C   UNL     1       0.292  -4.822   0.184  0.00  0.00    +0.166 C 
ATOM     16  C   UNL     1      -0.366  -5.618  -0.971  0.00  0.00    +0.031 C 
ATOM     17  C   UNL     1      -1.103  -6.741  -0.194  0.00  0.00    +0.019 C 
ATOM     18  C   UNL     1      -1.565  -6.025   1.093  0.00  0.00    +0.110 C 
ATOM     19  N   UNL     1      -0.695  -4.852   1.278  0.00  0.00    -0.164 NA
BRANCH  19  20
ATOM     20  S   UNL     1      -0.807  -3.750   2.508  0.00  0.00    +0.068 S 
ATOM     21  O   UNL     1      -1.209  -4.471   3.665  0.00  0.00    -0.152 OA
ATOM     22  O   UNL     1       0.383  -2.975   2.469  0.00  0.00    -0.152 OA
BRANCH  20  23
ATOM     23  C   UNL     1      -2.132  -2.658   2.111  0.00  0.00    +0.143 A 
ATOM     24  C   UNL     1      -3.464  -2.831   2.290  0.00  0.00    +0.036 A 
ATOM     25  C   UNL     1      -4.329  -1.826   1.901  0.00  0.00    +0.010 A 
ATOM     26  C   UNL     1      -3.821  -0.700   1.343  0.00  0.00    +0.047 A 
ATOM     27  S   UNL     1      -2.068  -1.039   1.360  0.00  0.00    -0.077 S 
ENDBRANCH  20  23
ENDBRANCH  19  20
ENDBRANCH  12  15
BRANCH  11  28
ATOM     28  C   UNL     1       2.897  -3.998  -0.581  0.00  0.00    +0.114 C 
BRANCH  28  29
ATOM     29  C   UNL     1       3.568  -4.062   0.792  0.00  0.00    +0.001 C 
BRANCH  29  30
ATOM     30  C   UNL     1       4.700  -5.090   0.759  0.00  0.00    -0.078 C 
BRANCH  30  33
ATOM     31  C   UNL     1       6.274  -6.286   2.157  0.00  0.00    -0.097 C 
ATOM     32  C   UNL     1       6.028  -3.889   2.389  0.00  0.00    -0.097 C 
ATOM     33  N   UNL     1       5.324  -5.155   2.097  0.00  0.00    +0.376 N 
ATOM     34  H   UNL     1       4.590  -5.299   2.800  0.00  0.00    -0.083 HD
ENDBRANCH  30  33
ENDBRANCH  29  30
ENDBRANCH  28  29
ENDBRANCH  11  28
TORSDOF 7
