REMARK  Name = ZINC15707753
REMARK  12 active torsions:
REMARK  status: ('A' for Active; 'I' for Inactive)
REMARK    1  A    between atoms: C_1  and  O_2
REMARK    2  A    between atoms: O_2  and  C_3
REMARK    3  A    between atoms: C_6  and  C_9
REMARK    4  A    between atoms: C_9  and  N_10
REMARK    5  A    between atoms: C_11  and  C_13
REMARK    6  A    between atoms: C_13  and  C_14
REMARK    7  A    between atoms: C_14  and  C_15
REMARK    8  A    between atoms: C_24  and  N_27
REMARK    9  A    between atoms: N_27  and  C_28
REMARK   10  A    between atoms: C_28  and  N_30
REMARK   11  A    between atoms: N_30  and  C_31
REMARK   12  A    between atoms: C_31  and  C_32
REMARK                            x       y       z     vdW  Elec       q    Type
REMARK                         _______ _______ _______ _____ _____    ______ ____
ROOT
ATOM      1  C   UNL     1       2.677   5.149  -2.957  0.00  0.00    -0.050 C 
ATOM      2  C   UNL     1       4.177   5.186  -3.281  0.00  0.00    +0.089 C 
ATOM      3  N   UNL     1       4.998   5.203  -2.077  0.00  0.00    -0.318 N 
ATOM      4  C   UNL     1       4.533   4.994  -0.830  0.00  0.00    +0.200 C 
ATOM      5  O   UNL     1       5.299   4.917   0.107  0.00  0.00    -0.278 OA
ATOM      6  C   UNL     1       3.061   4.858  -0.618  0.00  0.00    +0.021 C 
ATOM      7  C   UNL     1       1.126   3.882  -1.447  0.00  0.00    -0.055 C 
ATOM      8  C   UNL     1       1.311   3.285  -0.024  0.00  0.00    +0.054 C 
ATOM      9  C   UNL     1       2.636   3.903   0.498  0.00  0.00    +0.014 C 
ATOM     10  H   UNL     1       5.947   5.377  -2.181  0.00  0.00    +0.149 HD
ATOM     11  N   UNL     1       2.524   4.220  -1.781  0.00  0.00    +0.391 N 
ATOM     12  H   UNL     1       3.039   3.354  -1.980  0.00  0.00    -0.080 HD
ENDROOT
BRANCH   8  13
ATOM     13  N   UNL     1       1.423   1.826  -0.093  0.00  0.00    -0.326 N 
ATOM     14  H   UNL     1       2.296   1.408  -0.145  0.00  0.00    +0.148 HD
BRANCH  13  15
ATOM     15  C   UNL     1       0.311   1.064  -0.085  0.00  0.00    +0.131 C 
ATOM     16  S   UNL     1      -1.232   1.802  -0.002  0.00  0.00    -0.019 S 
BRANCH  15  17
ATOM     17  N   UNL     1       0.413  -0.278  -0.149  0.00  0.00    -0.319 N 
ATOM     18  H   UNL     1       1.287  -0.696  -0.201  0.00  0.00    +0.148 HD
BRANCH  17  19
ATOM     19  C   UNL     1      -0.796  -1.106  -0.141  0.00  0.00    +0.177 C 
BRANCH  19  20
ATOM     20  C   UNL     1      -0.409  -2.560  -0.221  0.00  0.00    +0.122 A 
ATOM     21  C   UNL     1      -0.166  -3.368   0.827  0.00  0.00    +0.046 A 
ATOM     22  C   UNL     1       0.160  -4.638   0.298  0.00  0.00    +0.041 A 
ATOM     23  C   UNL     1       0.097  -4.530  -1.041  0.00  0.00    +0.195 A 
ATOM     24  O   UNL     1      -0.254  -3.271  -1.350  0.00  0.00    -0.466 OA
ENDBRANCH  19  20
ENDBRANCH  17  19
ENDBRANCH  15  17
ENDBRANCH  13  15
ENDBRANCH   8  13
BRANCH   1  25
ATOM     25  C   UNL     1       1.894   4.652  -4.174  0.00  0.00    -0.005 C 
BRANCH  25  26
ATOM     26  C   UNL     1       1.982   5.689  -5.296  0.00  0.00    +0.094 C 
BRANCH  26  28
ATOM     27  N   UNL     1       1.034   6.021  -7.556  0.00  0.00    -0.311 N 
ATOM     28  C   UNL     1       1.113   5.256  -6.449  0.00  0.00    +0.213 C 
ATOM     29  O   UNL     1       0.485   4.221  -6.380  0.00  0.00    -0.276 OA
ATOM     30  H   UNL     1       1.536   6.849  -7.611  0.00  0.00    +0.149 HD
BRANCH  27  31
ATOM     31  C   UNL     1       0.189   5.600  -8.677  0.00  0.00    +0.139 C 
BRANCH  31  35
ATOM     32  C   UNL     1       0.434   8.496 -11.810  0.00  0.00    +0.120 A 
ATOM     33  C   UNL     1       1.323   7.431 -11.777  0.00  0.00    +0.046 A 
ATOM     34  C   UNL     1       1.241   6.496 -10.763  0.00  0.00    +0.009 A 
ATOM     35  C   UNL     1       0.276   6.622  -9.782  0.00  0.00    -0.030 A 
ATOM     36  C   UNL     1      -0.614   7.679  -9.815  0.00  0.00    +0.009 A 
ATOM     37  C   UNL     1      -0.533   8.620 -10.824  0.00  0.00    +0.046 A 
BRANCH  32  39
ATOM     38  C   UNL     1      -0.434  10.488 -12.776  0.00  0.00    +0.277 C 
ATOM     39  O   UNL     1       0.513   9.418 -12.806  0.00  0.00    -0.495 OA
ENDBRANCH  32  39
ENDBRANCH  31  35
ENDBRANCH  27  31
ENDBRANCH  26  28
ENDBRANCH  25  26
ENDBRANCH   1  25
TORSDOF 11
