REMARK  Name = ZINC39988143
REMARK  13 active torsions:
REMARK  status: ('A' for Active; 'I' for Inactive)
REMARK    1  A    between atoms: C_1  and  C_2
REMARK    2  A    between atoms: C_2  and  C_3
REMARK    3  A    between atoms: C_3  and  C_4
REMARK    4  A    between atoms: C_4  and  C_6
REMARK    5  A    between atoms: C_4  and  O_31
REMARK    6  A    between atoms: N_8  and  N_9
REMARK    7  A    between atoms: N_17  and  C_20
REMARK    8  A    between atoms: C_20  and  C_21
REMARK    9  A    between atoms: C_21  and  C_22
REMARK   10  A    between atoms: C_22  and  O_23
REMARK   11  A    between atoms: O_23  and  C_24
REMARK   12  A    between atoms: C_29  and  C_30
REMARK   13  A    between atoms: O_31  and  C_32
REMARK                            x       y       z     vdW  Elec       q    Type
REMARK                         _______ _______ _______ _____ _____    ______ ____
ROOT
ATOM      1  N   UNL     1      -4.634  -3.287   1.581  0.00  0.00    -0.174 NA
ATOM      2  C   UNL     1      -5.286  -3.128   2.707  0.00  0.00    +0.153 C 
ATOM      3  C   UNL     1      -6.584  -3.732   3.090  0.00  0.00    +0.028 A 
ATOM      4  C   UNL     1      -7.463  -4.592   2.441  0.00  0.00    +0.012 A 
ATOM      5  C   UNL     1      -8.624  -4.989   3.073  0.00  0.00    +0.001 A 
ATOM      6  C   UNL     1      -8.911  -4.532   4.349  0.00  0.00    +0.002 A 
ATOM      7  C   UNL     1      -8.045  -3.678   5.001  0.00  0.00    +0.024 A 
ATOM      8  C   UNL     1      -6.870  -3.267   4.380  0.00  0.00    +0.046 A 
ATOM      9  N   UNL     1      -5.845  -2.429   4.806  0.00  0.00    -0.265 N 
ATOM     10  C   UNL     1      -4.886  -2.313   3.872  0.00  0.00    +0.271 C 
ATOM     11  O   UNL     1      -3.869  -1.651   3.968  0.00  0.00    -0.268 OA
ENDROOT
BRANCH   1  14
ATOM     12  C   UNL     1      -2.735  -2.803   0.229  0.00  0.00    +0.273 C 
ATOM     13  O   UNL     1      -3.193  -3.509  -0.643  0.00  0.00    -0.270 OA
ATOM     14  N   UNL     1      -3.406  -2.640   1.386  0.00  0.00    -0.203 N 
ATOM     15  H   UNL     1      -3.039  -2.075   2.084  0.00  0.00    +0.177 HD
BRANCH  12  16
ATOM     16  C   UNL     1      -1.415  -2.107   0.019  0.00  0.00    +0.260 C 
BRANCH  16  17
ATOM     17  C   UNL     1      -1.634  -0.593  -0.004  0.00  0.00    +0.054 C 
BRANCH  17  19
ATOM     18  C   UNL     1      -0.500   1.631  -0.114  0.00  0.00    +0.004 C 
ATOM     19  C   UNL     1      -0.281   0.117  -0.091  0.00  0.00    +0.001 C 
ENDBRANCH  17  19
ENDBRANCH  16  17
BRANCH  16  20
ATOM     20  O   UNL     1      -0.849  -2.526  -1.224  0.00  0.00    -0.480 OA
BRANCH  20  21
ATOM     21  C   UNL     1       0.506  -2.613  -1.287  0.00  0.00    +0.122 A 
ATOM     22  C   UNL     1       1.271  -2.367  -0.156  0.00  0.00    +0.047 A 
ATOM     23  C   UNL     1       2.648  -2.456  -0.222  0.00  0.00    +0.023 A 
ATOM     24  C   UNL     1       3.265  -2.790  -1.415  0.00  0.00    +0.041 A 
ATOM     25  C   UNL     1       2.503  -3.036  -2.544  0.00  0.00    +0.023 A 
ATOM     26  C   UNL     1       1.126  -2.954  -2.481  0.00  0.00    +0.047 A 
ATOM     27 CL   UNL     1       4.995  -2.901  -1.495  0.00  0.00    -0.084 Cl
ENDBRANCH  20  21
ENDBRANCH  16  20
ENDBRANCH  12  16
ENDBRANCH   1  14
BRANCH   9  28
ATOM     28  C   UNL     1      -5.813  -1.762   6.110  0.00  0.00    +0.117 C 
BRANCH  28  29
ATOM     29  C   UNL     1      -5.108  -2.663   7.126  0.00  0.00    +0.060 C 
BRANCH  29  30
ATOM     30  C   UNL     1      -5.073  -1.966   8.488  0.00  0.00    +0.230 C 
BRANCH  30  31
ATOM     31  O   UNL     1      -4.415  -2.808   9.437  0.00  0.00    -0.492 OA
BRANCH  31  32
ATOM     32  C   UNL     1      -4.299  -2.334  10.705  0.00  0.00    +0.123 A 
ATOM     33  C   UNL     1      -4.814  -1.088  11.031  0.00  0.00    +0.046 A 
ATOM     34  C   UNL     1      -4.695  -0.609  12.322  0.00  0.00    +0.004 A 
ATOM     35  C   UNL     1      -4.064  -1.371  13.288  0.00  0.00    +0.000 A 
ATOM     36  C   UNL     1      -3.550  -2.613  12.965  0.00  0.00    +0.007 A 
ATOM     37  C   UNL     1      -3.671  -3.099  11.677  0.00  0.00    -0.009 A 
ATOM     38  C   UNL     1      -3.116  -4.456  11.328  0.00  0.00    +0.047 C 
ENDBRANCH  31  32
ENDBRANCH  30  31
ENDBRANCH  29  30
ENDBRANCH  28  29
ENDBRANCH   9  28
TORSDOF 11
