REMARK  Name = ZINC43554265
REMARK  17 active torsions:
REMARK  status: ('A' for Active; 'I' for Inactive)
REMARK    1  A    between atoms: CD1_1  and  CG_2
REMARK    2  A    between atoms: CG_2  and  CD2_3
REMARK    3  A    between atoms: CG_2  and  CB_4
REMARK    4  A    between atoms: CB_4  and  CA_5
REMARK    5  A    between atoms: CA_5  and  C_7
REMARK    6  A    between atoms: CA_5  and  N_9
REMARK    7  A    between atoms: C_7  and  O_8
REMARK    8  A    between atoms: C_10  and  C_12
REMARK    9  A    between atoms: C_12  and  C_13
REMARK   10  A    between atoms: C_21  and  O_23
REMARK   11  A    between atoms: O_23  and  C_24
REMARK   12  A    between atoms: C_24  and  C_25
REMARK   13  A    between atoms: C_30  and  C_40
REMARK   14  A    between atoms: C_33  and  O_39
REMARK   15  A    between atoms: C_35  and  C_36
REMARK   16  A    between atoms: C_35  and  C_37
REMARK   17  A    between atoms: C_37  and  O_38
REMARK                            x       y       z     vdW  Elec       q    Type
REMARK                         _______ _______ _______ _____ _____    ______ ____
ROOT
ATOM      1  C   UNK A   0       0.535  -5.554   2.517  0.00  0.00    +0.054 C 
ATOM      2  C   UNK A   0      -0.541  -6.588   2.254  0.00  0.00    +0.058 A 
ATOM      3  C   UNK A   0      -0.252  -7.893   2.484  0.00  0.00    +0.015 A 
ATOM      4  S   UNK A   0      -1.769  -8.698   2.042  0.00  0.00    -0.057 S 
ATOM      5  C   UNK A   0      -2.631  -7.318   1.603  0.00  0.00    +0.167 A 
ATOM      6  N   UNK A   0      -1.767  -6.347   1.807  0.00  0.00    -0.229 NA
ATOM      7  N   UNK A   0      -3.938  -7.228   1.137  0.00  0.00    -0.230 N 
ATOM      8  C   UNK A   0      -4.680  -8.343   0.990  0.00  0.00    +0.406 C 
ATOM      9  O   UNK A   0      -4.206  -9.428   1.264  0.00  0.00    -0.226 OA
ATOM     10  C   UNK A   0       1.021  -8.473   2.983  0.00  0.00    +0.049 C 
ATOM     11  C   UNK A   0       2.105  -7.403   3.211  0.00  0.00    +0.011 C 
ATOM     12  C   UNK A   0       1.480  -6.071   3.607  0.00  0.00    -0.019 C 
ATOM     13  C   UNK A   0       0.767  -6.229   4.945  0.00  0.00    +0.010 C 
ATOM     14  C   UNK A   0       1.786  -6.606   6.019  0.00  0.00    +0.032 C 
ATOM     15  C   UNK A   0       2.524  -7.888   5.679  0.00  0.00    +0.123 C 
ATOM     16  C   UNK A   0       3.067  -7.956   4.261  0.00  0.00    +0.021 C 
ATOM     17  C   UNK A   0       4.445  -7.284   4.189  0.00  0.00    +0.016 C 
ATOM     18  C   UNK A   0       2.544  -4.971   3.745  0.00  0.00    +0.012 C 
ATOM     19  H   UNK A   0      -4.316  -6.361   0.919  0.00  0.00    +0.160 HD
ENDROOT
BRANCH  15  20
ATOM     20  O   UNK A   0       1.680  -9.015   5.939  0.00  0.00    -0.391 OA
ATOM     21  H   UNK A   0       1.395  -9.089   6.860  0.00  0.00    +0.210 HD
ENDBRANCH  15  20
BRANCH   1  22
ATOM     22  C   UNK A   0      -0.088  -4.225   2.929  0.00  0.00    +0.106 C 
BRANCH  22  24
ATOM     23  N   LEU A   1      -1.517  -2.482   1.910  0.00  0.00    -0.310 N 
ATOM     24  C   UNK A   0      -0.875  -3.659   1.775  0.00  0.00    +0.214 C 
ATOM     25  O   UNK A   0      -0.932  -4.264   0.726  0.00  0.00    -0.276 OA
ATOM     26  H   LEU A   1      -1.472  -1.998   2.750  0.00  0.00    +0.149 HD
BRANCH  23  27
ATOM     27  CA  LEU A   1      -2.283  -1.933   0.788  0.00  0.00    +0.098 C 
BRANCH  27  28
ATOM     28  CB  LEU A   1      -2.377  -0.412   0.931  0.00  0.00    +0.027 C 
BRANCH  28  30
ATOM     29  CD1 LEU A   1      -0.403  -0.033  -0.553  0.00  0.00    +0.007 C 
ATOM     30  CG  LEU A   1      -0.975   0.195   0.848  0.00  0.00    -0.015 C 
ATOM     31  CD2 LEU A   1      -1.052   1.697   1.128  0.00  0.00    +0.007 C 
ENDBRANCH  28  30
ENDBRANCH  27  28
BRANCH  27  32
ATOM     32  C   LEU A   1      -3.691  -2.532   0.789  0.00  0.00    +0.178 C 
BRANCH  32  33
ATOM     33  O   LEU A   1      -4.387  -2.112   1.964  0.00  0.00    -0.393 OA
ATOM     34  H   LEU A   1      -5.288  -2.456   2.031  0.00  0.00    +0.209 HD
ENDBRANCH  32  33
ENDBRANCH  27  32
ENDBRANCH  23  27
ENDBRANCH  22  24
ENDBRANCH   1  22
BRANCH   8  35
ATOM     35  O   UNK A   0      -5.945  -8.255   0.539  0.00  0.00    -0.446 OA
BRANCH  35  36
ATOM     36  C   UNK A   0      -6.673  -9.478   0.407  0.00  0.00    +0.261 C 
BRANCH  36  37
ATOM     37  C   UNK A   0      -8.059  -9.184  -0.107  0.00  0.00    +0.006 C 
ATOM     38  C   UNK A   0      -8.571  -9.915  -1.066  0.00  0.00    +0.007 C 
ENDBRANCH  36  37
ENDBRANCH  35  36
ENDBRANCH   8  35
BRANCH  16  39
ATOM     39  C   UNK A   0       3.327  -9.452   3.942  0.00  0.00    +0.165 C 
BRANCH  39  40
ATOM     40  O   UNK A   0       4.225  -9.996   4.910  0.00  0.00    -0.394 OA
ATOM     41  H   UNK A   0       4.433 -10.931   4.772  0.00  0.00    +0.209 HD
ENDBRANCH  39  40
ENDBRANCH  16  39
TORSDOF 13
