REMARK  Name = ZINC14930979
REMARK  10 active torsions:
REMARK  status: ('A' for Active; 'I' for Inactive)
REMARK    1  A    between atoms: C_1  and  C_2
REMARK    2  A    between atoms: C_6  and  N_9
REMARK    3  A    between atoms: C_7  and  C_8
REMARK    4  A    between atoms: C_10  and  C_12
REMARK    5  A    between atoms: C_12  and  N_13
REMARK    6  A    between atoms: N_13  and  C_14
REMARK    7  A    between atoms: N_13  and  C_15
REMARK    8  A    between atoms: C_15  and  C_16
REMARK    9  A    between atoms: N_21  and  C_22
REMARK   10  A    between atoms: C_22  and  C_23
REMARK                            x       y       z     vdW  Elec       q    Type
REMARK                         _______ _______ _______ _____ _____    ______ ____
ROOT
ATOM      1  N   UNL     1      -0.208  -6.339   3.410  0.00  0.00    +0.389 N 
ATOM      2  C   UNL     1       1.047  -6.789   2.791  0.00  0.00    -0.095 C 
ATOM      3  H   UNL     1      -0.976  -6.519   2.781  0.00  0.00    -0.081 HD
ENDROOT
BRANCH   1   4
ATOM      4  C   UNL     1      -0.129  -4.898   3.686  0.00  0.00    +0.019 C 
BRANCH   4   6
ATOM      5  N   UNL     1       0.052  -2.797   2.393  0.00  0.00    -0.287 N 
ATOM      6  C   UNL     1      -0.031  -4.143   2.385  0.00  0.00    +0.201 C 
ATOM      7  O   UNL     1      -0.028  -4.745   1.333  0.00  0.00    -0.278 OA
ATOM      8  H   UNL     1       0.130  -2.321   3.234  0.00  0.00    +0.155 HD
BRANCH   5  14
ATOM      9  C   UNL     1       1.206   1.236  -0.172  0.00  0.00    +0.044 C 
ATOM     10  C   UNL     1       0.577  -0.131  -0.084  0.00  0.00    -0.046 A 
ATOM     11  C   UNL     1      -0.027  -0.686  -1.198  0.00  0.00    +0.004 A 
ATOM     12  C   UNL     1      -0.605  -1.940  -1.122  0.00  0.00    +0.002 A 
ATOM     13  C   UNL     1      -0.580  -2.642   0.067  0.00  0.00    +0.023 A 
ATOM     14  C   UNL     1       0.026  -2.088   1.187  0.00  0.00    +0.036 A 
ATOM     15  C   UNL     1       0.610  -0.831   1.106  0.00  0.00    -0.026 A 
ATOM     16  C   UNL     1       1.274  -0.228   2.317  0.00  0.00    +0.046 C 
ENDBRANCH   5  14
ENDBRANCH   4   6
ENDBRANCH   1   4
BRANCH   1  17
ATOM     17  C   UNL     1      -0.423  -7.067   4.667  0.00  0.00    +0.019 C 
BRANCH  17  18
ATOM     18  C   UNL     1      -0.626  -8.531   4.371  0.00  0.00    +0.204 C 
ATOM     19  O   UNL     1      -0.595  -8.928   3.226  0.00  0.00    -0.277 OA
ATOM     20  N   UNL     1      -0.843  -9.399   5.380  0.00  0.00    -0.242 N 
ATOM     21  C   UNL     1      -1.025 -10.707   5.115  0.00  0.00    +0.306 C 
ATOM     22  O   UNL     1      -0.994 -11.106   3.967  0.00  0.00    -0.252 OA
ATOM     23  N   UNL     1      -1.241 -11.575   6.124  0.00  0.00    -0.294 N 
ATOM     24  H   UNL     1      -0.867  -9.081   6.296  0.00  0.00    +0.159 HD
ATOM     25  H   UNL     1      -1.266 -11.257   7.040  0.00  0.00    +0.151 HD
BRANCH  23  26
ATOM     26  C   UNL     1      -1.439 -12.998   5.837  0.00  0.00    +0.148 C 
BRANCH  26  27
ATOM     27  C   UNL     1      -1.659 -13.745   7.127  0.00  0.00    +0.007 A 
ATOM     28  C   UNL     1      -2.822 -14.012   7.771  0.00  0.00    +0.013 A 
ATOM     29  C   UNL     1      -2.784 -14.723   8.955  0.00  0.00    +0.008 A 
ATOM     30  C   UNL     1      -1.585 -15.133   9.438  0.00  0.00    +0.045 A 
ATOM     31  S   UNL     1      -0.458 -14.515   8.199  0.00  0.00    -0.100 S 
ENDBRANCH  26  27
ENDBRANCH  23  26
ENDBRANCH  17  18
ENDBRANCH   1  17
TORSDOF 7
