REMARK  Name = ZINC20080703
REMARK  11 active torsions:
REMARK  status: ('A' for Active; 'I' for Inactive)
REMARK    1  A    between atoms: C_1  and  C_2
REMARK    2  A    between atoms: C_2  and  N_3
REMARK    3  A    between atoms: N_6  and  C_9
REMARK    4  A    between atoms: C_9  and  C_11
REMARK    5  A    between atoms: C_9  and  C_27
REMARK    6  A    between atoms: C_15  and  O_25
REMARK    7  A    between atoms: C_16  and  O_23
REMARK    8  A    between atoms: O_23  and  C_24
REMARK    9  A    between atoms: O_25  and  C_26
REMARK   10  A    between atoms: N_31  and  C_32
REMARK   11  A    between atoms: C_32  and  C_33
REMARK                            x       y       z     vdW  Elec       q    Type
REMARK                         _______ _______ _______ _____ _____    ______ ____
ROOT
ATOM      1  C   UNL     1       0.595   8.373  -1.199  0.00  0.00    +0.162 C 
ENDROOT
BRANCH   1   2
ATOM      2  C   UNL     1       0.040   7.389  -0.200  0.00  0.00    +0.042 A 
ATOM      3  C   UNL     1       0.176   6.056  -0.417  0.00  0.00    +0.021 A 
ATOM      4  C   UNL     1      -0.372   5.128   0.570  0.00  0.00    +0.003 A 
ATOM      5  C   UNL     1      -0.261   3.742   0.398  0.00  0.00    +0.059 A 
ATOM      6  C   UNL     1      -0.787   2.893   1.346  0.00  0.00    +0.162 A 
ATOM      7  C   UNL     1      -1.436   3.409   2.473  0.00  0.00    +0.163 A 
ATOM      8  C   UNL     1      -1.546   4.775   2.655  0.00  0.00    +0.075 A 
ATOM      9  C   UNL     1      -1.021   5.646   1.708  0.00  0.00    +0.053 A 
ATOM     10  N   UNL     1      -1.125   7.013   1.869  0.00  0.00    -0.322 N 
ATOM     11  H   UNL     1      -1.630   7.425   2.755  0.00  0.00    +0.169 HD
ATOM     12  C   UNL     1      -0.618   7.857   0.955  0.00  0.00    +0.254 A 
ATOM     13  O   UNL     1      -0.729   9.059   1.130  0.00  0.00    -0.268 OA
BRANCH   7  14
ATOM     14  O   UNL     1      -1.956   2.562   3.398  0.00  0.00    -0.491 OA
ATOM     15  C   UNL     1      -2.606   3.153   4.526  0.00  0.00    +0.277 C 
ENDBRANCH   7  14
BRANCH   6  16
ATOM     16  O   UNL     1      -0.682   1.547   1.184  0.00  0.00    -0.491 OA
ATOM     17  C   UNL     1      -0.013   1.086   0.008  0.00  0.00    +0.277 C 
ENDBRANCH   6  16
ENDBRANCH   1   2
BRANCH   1  21
ATOM     18  N   UNL     1      -2.227  10.489  -3.524  0.00  0.00    +0.381 N 
ATOM     19  C   UNL     1      -1.087  11.237  -2.976  0.00  0.00    -0.063 C 
ATOM     20  C   UNL     1       0.032  10.259  -2.610  0.00  0.00    +0.067 C 
ATOM     21  N   UNL     1      -0.473   9.284  -1.633  0.00  0.00    -0.292 NA
ATOM     22  C   UNL     1      -1.613   8.536  -2.181  0.00  0.00    +0.067 C 
ATOM     23  C   UNL     1      -2.732   9.514  -2.547  0.00  0.00    -0.063 C 
ATOM     24  H   UNL     1      -1.877   9.935  -4.407  0.00  0.00    -0.082 HD
BRANCH  18  26
ATOM     25  C   UNL     1      -4.347  10.615  -4.744  0.00  0.00    -0.017 C 
ATOM     26  C   UNL     1      -3.294  11.400  -3.958  0.00  0.00    -0.082 C 
ENDBRANCH  18  26
ENDBRANCH   1  21
BRANCH   1  27
ATOM     27  C   UNL     1       1.704   9.167  -0.559  0.00  0.00    +0.173 A 
ATOM     28  N   UNL     1       1.570  10.135   0.314  0.00  0.00    -0.111 NA
ATOM     29  N   UNL     1       2.747  10.560   0.621  0.00  0.00    -0.023 NA
ATOM     30  N   UNL     1       3.628   9.888  -0.035  0.00  0.00    -0.044 NA
ATOM     31  N   UNL     1       3.025   9.016  -0.769  0.00  0.00    -0.225 N 
BRANCH  31  32
ATOM     32  C   UNL     1       3.658   8.046  -1.665  0.00  0.00    +0.179 C 
BRANCH  32  33
ATOM     33  C   UNL     1       3.817   8.664  -3.056  0.00  0.00    +0.140 C 
ATOM     34  C   UNL     1       4.534   7.673  -4.007  0.00  0.00    +0.035 C 
ATOM     35  C   UNL     1       4.024   8.168  -5.388  0.00  0.00    +0.031 C 
ATOM     36  C   UNL     1       2.589   8.633  -5.059  0.00  0.00    +0.160 C 
ATOM     37  O   UNL     1       2.529   8.889  -3.651  0.00  0.00    -0.375 OA
ENDBRANCH  32  33
ENDBRANCH  31  32
ENDBRANCH   1  27
TORSDOF 8
