REMARK  Name = ZINC22468904
REMARK  9 active torsions:
REMARK  status: ('A' for Active; 'I' for Inactive)
REMARK    1  A    between atoms: N_9  and  C_12
REMARK    2  A    between atoms: C_12  and  C_13
REMARK    3  A    between atoms: C_13  and  C_14
REMARK    4  A    between atoms: C_14  and  O_15
REMARK    5  A    between atoms: O_15  and  C_16
REMARK    6  A    between atoms: C_16  and  C_18
REMARK    7  A    between atoms: C_18  and  O_19
REMARK    8  A    between atoms: O_19  and  C_20
REMARK    9  A    between atoms: C_25  and  N_26
REMARK                            x       y       z     vdW  Elec       q    Type
REMARK                         _______ _______ _______ _____ _____    ______ ____
ROOT
ATOM      1  C   UNL     1       1.799   5.768   0.016  0.00  0.00    +0.234 C 
ENDROOT
BRANCH   1   2
ATOM      2  C   UNL     1       3.113   6.551   0.007  0.00  0.00    +0.063 C 
BRANCH   2   3
ATOM      3  C   UNL     1       2.813   8.051   0.018  0.00  0.00    +0.129 C 
BRANCH   3  12
ATOM      4  C   UNL     1       7.742  11.013  -2.168  0.00  0.00    +0.001 A 
ATOM      5  C   UNL     1       8.274  11.317  -0.922  0.00  0.00    +0.002 A 
ATOM      6  C   UNL     1       7.635  10.923   0.232  0.00  0.00    +0.028 A 
ATOM      7  C   UNL     1       6.438  10.209   0.151  0.00  0.00    +0.078 A 
ATOM      8  C   UNL     1       5.899   9.902  -1.118  0.00  0.00    +0.065 A 
ATOM      9  C   UNL     1       6.562  10.310  -2.274  0.00  0.00    +0.015 A 
ATOM     10  C   UNL     1       4.637   9.150  -1.169  0.00  0.00    +0.262 A 
ATOM     11  O   UNL     1       4.120   8.854  -2.230  0.00  0.00    -0.267 OA
ATOM     12  N   UNL     1       4.072   8.801   0.010  0.00  0.00    -0.299 N 
ATOM     13  C   UNL     1       4.659   9.144   1.187  0.00  0.00    +0.202 A 
ATOM     14  N   UNL     1       5.775   9.802   1.263  0.00  0.00    -0.237 NA
ENDBRANCH   3  12
ENDBRANCH   2   3
ENDBRANCH   1   2
BRANCH   1  15
ATOM     15  O   UNL     1       2.083   4.344   0.005  0.00  0.00    -0.462 OA
BRANCH  15  16
ATOM     16  C   UNL     1       1.030   3.512   0.011  0.00  0.00    +0.345 C 
ATOM     17  O   UNL     1      -0.092   3.958   0.024  0.00  0.00    -0.247 OA
BRANCH  16  18
ATOM     18  C   UNL     1       1.248   2.021   0.001  0.00  0.00    +0.349 C 
BRANCH  18  19
ATOM     19  O   UNL     1      -0.016   1.355   0.009  0.00  0.00    -0.479 OA
BRANCH  19  20
ATOM     20  C   UNL     1       0.002  -0.004   0.002  0.00  0.00    +0.151 A 
ATOM     21  C   UNL     1       1.212  -0.682  -0.019  0.00  0.00    +0.048 A 
ATOM     22  C   UNL     1       1.228  -2.064  -0.022  0.00  0.00    +0.004 A 
ATOM     23  C   UNL     1       0.040  -2.770  -0.015  0.00  0.00    +0.002 A 
ATOM     24  C   UNL     1      -1.167  -2.096   0.002  0.00  0.00    +0.036 A 
ATOM     25  C   UNL     1      -1.189  -0.715   0.010  0.00  0.00    +0.168 A 
BRANCH  25  26
ATOM     26  N   UNL     1      -2.482   0.006   0.026  0.00  0.00    +0.060 N 
ATOM     27  O   UNL     1      -3.527  -0.619   0.032  0.00  0.00    -0.126 OA
ATOM     28  O   UNL     1      -2.500   1.223   0.033  0.00  0.00    -0.126 OA
ENDBRANCH  25  26
ENDBRANCH  19  20
ENDBRANCH  18  19
ENDBRANCH  16  18
ENDBRANCH  15  16
ENDBRANCH   1  15
TORSDOF 9
