REMARK  Name = ZINC57372601
REMARK  6 active torsions:
REMARK  status: ('A' for Active; 'I' for Inactive)
REMARK    1  A    between atoms: C_1  and  C_2
REMARK    2  A    between atoms: C_5  and  S_9
REMARK    3  A    between atoms: C_7  and  C_8
REMARK    4  A    between atoms: S_9  and  N_12
REMARK    5  A    between atoms: N_12  and  C_13
REMARK    6  A    between atoms: C_16  and  C_19
REMARK                            x       y       z     vdW  Elec       q    Type
REMARK                         _______ _______ _______ _____ _____    ______ ____
ROOT
ATOM      1  C   UNL     1       2.535  -4.538   1.108  0.00  0.00    +0.048 A 
ATOM      2  C   UNL     1       1.946  -3.741   2.085  0.00  0.00    +0.025 A 
ATOM      3  C   UNL     1       2.616  -3.480   3.258  0.00  0.00    +0.015 A 
ATOM      4  C   UNL     1       3.889  -4.017   3.469  0.00  0.00    +0.037 A 
ATOM      5  C   UNL     1       4.479  -4.817   2.485  0.00  0.00    +0.015 A 
ATOM      6  C   UNL     1       3.801  -5.079   1.316  0.00  0.00    +0.025 A 
ENDROOT
BRANCH   4   7
ATOM      7  C   UNL     1       4.610  -3.739   4.725  0.00  0.00    +0.251 C 
ATOM      8  O   UNL     1       4.436  -2.685   5.306  0.00  0.00    -0.270 OA
ATOM      9  N   UNL     1       5.462  -4.653   5.229  0.00  0.00    -0.267 N 
ATOM     10  C   UNL     1       5.723  -5.908   4.511  0.00  0.00    +0.114 C 
ATOM     11  C   UNL     1       5.683  -7.051   5.534  0.00  0.00    +0.024 C 
ATOM     12  C   UNL     1       6.811  -6.847   6.545  0.00  0.00    +0.038 C 
ATOM     13  C   UNL     1       6.769  -5.451   7.108  0.00  0.00    -0.026 A 
ATOM     14  C   UNL     1       6.119  -4.420   6.445  0.00  0.00    +0.040 A 
ATOM     15  C   UNL     1       6.107  -3.140   6.987  0.00  0.00    +0.024 A 
ATOM     16  C   UNL     1       6.746  -2.891   8.185  0.00  0.00    +0.002 A 
ATOM     17  C   UNL     1       7.396  -3.917   8.846  0.00  0.00    +0.000 A 
ATOM     18  C   UNL     1       7.402  -5.196   8.313  0.00  0.00    +0.005 A 
ENDBRANCH   4   7
BRANCH   1  19
ATOM     19  N   UNL     1       1.856  -4.800  -0.077  0.00  0.00    -0.216 N 
ATOM     20  H   UNL     1       2.316  -4.721  -0.927  0.00  0.00    +0.174 HD
BRANCH  19  21
ATOM     21  S   UNL     1       0.262  -5.246  -0.036  0.00  0.00    +0.072 S 
ATOM     22  O   UNL     1      -0.110  -5.548  -1.374  0.00  0.00    -0.150 OA
ATOM     23  O   UNL     1      -0.414  -4.266   0.740  0.00  0.00    -0.150 OA
BRANCH  21  28
ATOM     24  C   UNL     1      -0.067 -10.419   3.052  0.00  0.00    +0.044 C 
ATOM     25  C   UNL     1       0.016  -9.127   2.281  0.00  0.00    -0.047 A 
ATOM     26  C   UNL     1       0.007  -7.919   2.953  0.00  0.00    +0.005 A 
ATOM     27  C   UNL     1       0.082  -6.734   2.246  0.00  0.00    +0.029 A 
ATOM     28  C   UNL     1       0.167  -6.757   0.866  0.00  0.00    +0.109 A 
ATOM     29  C   UNL     1       0.177  -7.965   0.194  0.00  0.00    +0.032 A 
ATOM     30  C   UNL     1       0.106  -9.150   0.902  0.00  0.00    -0.046 A 
ATOM     31  C   UNL     1       0.122 -10.467   0.169  0.00  0.00    +0.044 C 
ENDBRANCH  21  28
ENDBRANCH  19  21
ENDBRANCH   1  19
TORSDOF 4
