REMARK  Name = ZINC38945208
REMARK  3 active torsions:
REMARK  status: ('A' for Active; 'I' for Inactive)
REMARK    1  A    between atoms: C_6  and  N_7
REMARK    2  A    between atoms: C_8  and  C_10
REMARK    3  A    between atoms: C_10  and  C_11
REMARK                            x       y       z     vdW  Elec       q    Type
REMARK                         _______ _______ _______ _____ _____    ______ ____
ROOT
ATOM      1  C   UNL     1       1.145  -0.544   0.572  0.00  0.00    +0.027 A 
ATOM      2  C   UNL     1       2.337   0.151   0.536  0.00  0.00    +0.049 A 
ATOM      3  C   UNL     1       2.401   1.397  -0.071  0.00  0.00    +0.141 A 
ATOM      4  C   UNL     1       1.250   1.958  -0.636  0.00  0.00    +0.081 A 
ATOM      5  C   UNL     1       0.051   1.241  -0.610  0.00  0.00    +0.040 A 
ATOM      6  C   UNL     1       0.002  -0.003  -0.006  0.00  0.00    +0.034 A 
ATOM      7  C   UNL     1       1.282   3.304  -1.223  0.00  0.00    +0.252 C 
ATOM      8  O   UNL     1       0.313   4.017  -1.047  0.00  0.00    -0.270 OA
ATOM      9  N   UNL     1       2.288   3.801  -1.930  0.00  0.00    -0.278 N 
ATOM     10  C   UNL     1       3.470   3.139  -2.259  0.00  0.00    +0.078 A 
ATOM     11  C   UNL     1       4.011   3.320  -3.528  0.00  0.00    +0.047 A 
ATOM     12  C   UNL     1       5.196   2.699  -3.874  0.00  0.00    +0.043 A 
ATOM     13  C   UNL     1       5.851   1.895  -2.959  0.00  0.00    +0.024 A 
ATOM     14  C   UNL     1       5.314   1.702  -1.700  0.00  0.00    +0.049 A 
ATOM     15  C   UNL     1       4.117   2.313  -1.350  0.00  0.00    +0.150 A 
ATOM     16  O   UNL     1       3.583   2.054  -0.130  0.00  0.00    -0.453 OA
ATOM     17 CL   UNL     1       5.863   2.928  -5.461  0.00  0.00    -0.083 Cl
ATOM     18  H   UNL     1       2.192   4.713  -2.248  0.00  0.00    +0.155 HD
ENDROOT
BRANCH   6  19
ATOM     19  N   UNL     1      -1.202  -0.720   0.023  0.00  0.00    -0.285 N 
ATOM     20  C   UNL     1      -2.373  -0.065   0.151  0.00  0.00    +0.217 C 
ATOM     21  O   UNL     1      -2.393   1.148   0.158  0.00  0.00    -0.275 OA
ATOM     22  H   UNL     1      -1.193  -1.687  -0.050  0.00  0.00    +0.155 HD
BRANCH  20  23
ATOM     23  C   UNL     1      -3.659  -0.840   0.287  0.00  0.00    +0.099 C 
BRANCH  23  24
ATOM     24  C   UNL     1      -4.831   0.135   0.417  0.00  0.00    -0.002 C 
ATOM     25  C   UNL     1      -4.695   0.925   1.720  0.00  0.00    +0.004 C 
ATOM     26  C   UNL     1      -5.866   1.900   1.851  0.00  0.00    +0.000 C 
ATOM     27  C   UNL     1      -7.181   1.118   1.863  0.00  0.00    +0.000 C 
ATOM     28  C   UNL     1      -7.317   0.329   0.559  0.00  0.00    +0.000 C 
ATOM     29  C   UNL     1      -6.146  -0.646   0.429  0.00  0.00    +0.004 C 
ENDBRANCH  23  24
ENDBRANCH  20  23
ENDBRANCH   6  19
TORSDOF 3
