REMARK  Name = ZINC09578472
REMARK  10 active torsions:
REMARK  status: ('A' for Active; 'I' for Inactive)
REMARK    1  A    between atoms: C_1  and  C_2
REMARK    2  A    between atoms: C_5  and  C_8
REMARK    3  A    between atoms: N_10  and  C_11
REMARK    4  A    between atoms: C_11  and  C_12
REMARK    5  A    between atoms: C_12  and  C_13
REMARK    6  A    between atoms: C_19  and  S_22
REMARK    7  A    between atoms: S_22  and  C_23
REMARK    8  A    between atoms: C_23  and  C_24
REMARK    9  A    between atoms: N_26  and  C_27
REMARK   10  A    between atoms: C_32  and  C_33
REMARK                            x       y       z     vdW  Elec       q    Type
REMARK                         _______ _______ _______ _____ _____    ______ ____
ROOT
ATOM      1  C   UNL     1      -8.886   3.286  -0.453  0.00  0.00    +0.157 A 
ATOM      2  N   UNL     1     -10.175   3.503  -0.551  0.00  0.00    -0.132 NA
ATOM      3  N   UNL     1     -10.810   2.385  -0.608  0.00  0.00    -0.128 NA
ATOM      4  C   UNL     1      -9.942   1.387  -0.548  0.00  0.00    +0.178 A 
ATOM      5  N   UNL     1      -8.694   1.950  -0.448  0.00  0.00    -0.196 N 
ATOM      6  N   UNL     1      -7.564   1.135  -0.361  0.00  0.00    -0.157 NA
ATOM      7  C   UNL     1      -7.682  -0.173  -0.385  0.00  0.00    +0.118 A 
ATOM      8  C   UNL     1      -8.948  -0.781  -0.487  0.00  0.00    +0.040 A 
ATOM      9  C   UNL     1     -10.068  -0.016  -0.568  0.00  0.00    +0.053 A 
ENDROOT
BRANCH   1  10
ATOM     10  C   UNL     1      -7.812   4.339  -0.362  0.00  0.00    +0.097 C 
BRANCH  10  11
ATOM     11  C   UNL     1      -7.559   4.684   1.107  0.00  0.00    +0.112 C 
BRANCH  11  14
ATOM     12  C   UNL     1      -6.124   6.170   2.399  0.00  0.00    +0.244 C 
ATOM     13  O   UNL     1      -6.638   5.737   3.412  0.00  0.00    -0.270 OA
ATOM     14  N   UNL     1      -6.514   5.708   1.195  0.00  0.00    -0.311 N 
ATOM     15  H   UNL     1      -6.104   6.053   0.387  0.00  0.00    +0.149 HD
BRANCH  12  20
ATOM     16  C   UNL     1      -2.019  10.188   2.746  0.00  0.00    +0.044 C 
ATOM     17  C   UNL     1      -3.094   9.136   2.655  0.00  0.00    -0.050 A 
ATOM     18  C   UNL     1      -3.678   8.646   3.810  0.00  0.00    +0.004 A 
ATOM     19  C   UNL     1      -4.663   7.683   3.734  0.00  0.00    +0.013 A 
ATOM     20  C   UNL     1      -5.070   7.202   2.489  0.00  0.00    +0.037 A 
ATOM     21  C   UNL     1      -4.473   7.697   1.328  0.00  0.00    +0.013 A 
ATOM     22  C   UNL     1      -3.493   8.664   1.418  0.00  0.00    +0.004 A 
ENDBRANCH  12  20
ENDBRANCH  11  14
ENDBRANCH  10  11
ENDBRANCH   1  10
BRANCH   7  23
ATOM     23  S   UNL     1      -6.239  -1.178  -0.280  0.00  0.00    -0.095 S 
BRANCH  23  24
ATOM     24  C   UNL     1      -4.878   0.016  -0.166  0.00  0.00    +0.172 C 
BRANCH  24  25
ATOM     25  C   UNL     1      -3.568  -0.722  -0.069  0.00  0.00    +0.227 C 
ATOM     26  O   UNL     1      -3.554  -1.935  -0.076  0.00  0.00    -0.275 OA
ATOM     27  N   UNL     1      -2.413  -0.035   0.025  0.00  0.00    -0.284 N 
ATOM     28  H   UNL     1      -2.429   0.931   0.112  0.00  0.00    +0.155 HD
BRANCH  27  29
ATOM     29  C   UNL     1      -1.190  -0.714  -0.002  0.00  0.00    +0.045 A 
ATOM     30  C   UNL     1      -1.097  -1.956  -0.618  0.00  0.00    +0.024 A 
ATOM     31  C   UNL     1       0.111  -2.624  -0.642  0.00  0.00    +0.002 A 
ATOM     32  C   UNL     1       1.228  -2.059  -0.054  0.00  0.00    +0.001 A 
ATOM     33  C   UNL     1       1.140  -0.821   0.555  0.00  0.00    +0.014 A 
ATOM     34  C   UNL     1      -0.067  -0.150   0.588  0.00  0.00    +0.076 A 
BRANCH  34  35
ATOM     35  C   UNL     1      -0.163   1.197   1.258  0.00  0.00    +0.419 C 
ATOM     36  F   UNL     1       1.088   1.552   1.773  0.00  0.00    -0.166 F 
ATOM     37  F   UNL     1      -0.571   2.155   0.323  0.00  0.00    -0.166 F 
ATOM     38  F   UNL     1      -1.096   1.135   2.299  0.00  0.00    -0.166 F 
ENDBRANCH  34  35
ENDBRANCH  27  29
ENDBRANCH  24  25
ENDBRANCH  23  24
ENDBRANCH   7  23
TORSDOF 9
