REMARK  Name = ZINC63385067
REMARK  10 active torsions:
REMARK  status: ('A' for Active; 'I' for Inactive)
REMARK    1  A    between atoms: C_1  and  C_2
REMARK    2  A    between atoms: C_6  and  C_28
REMARK    3  A    between atoms: C_7  and  C_11
REMARK    4  A    between atoms: C_11  and  C_12
REMARK    5  A    between atoms: N_14  and  C_15
REMARK    6  A    between atoms: C_15  and  C_16
REMARK    7  A    between atoms: C_16  and  C_17
REMARK    8  A    between atoms: C_20  and  O_26
REMARK    9  A    between atoms: O_26  and  C_27
REMARK   10  A    between atoms: C_31  and  C_34
REMARK                            x       y       z     vdW  Elec       q    Type
REMARK                         _______ _______ _______ _____ _____    ______ ____
ROOT
ATOM      1  C   UNL     1       0.081  -6.360  -1.373  0.00  0.00    +0.138 C 
ENDROOT
BRANCH   1   8
ATOM      2  C   UNL     1      -0.018   1.503   0.010  0.00  0.00    +0.044 C 
ATOM      3  C   UNL     1       0.002  -0.004   0.002  0.00  0.00    -0.036 A 
ATOM      4  C   UNL     1       0.006  -0.675  -1.187  0.00  0.00    +0.051 A 
ATOM      5  C   UNL     1       0.024  -2.067  -1.213  0.00  0.00    +0.143 A 
ATOM      6  C   UNL     1       0.040  -2.791  -0.009  0.00  0.00    +0.064 A 
ATOM      7  C   UNL     1       0.059  -4.253  -0.056  0.00  0.00    -0.026 A 
ATOM      8  C   UNL     1       0.061  -4.856  -1.274  0.00  0.00    +0.049 A 
ATOM      9  C   UNL     1       0.044  -4.069  -2.443  0.00  0.00    +0.341 A 
ATOM     10  O   UNL     1       0.045  -4.621  -3.530  0.00  0.00    -0.245 OA
ATOM     11  O   UNL     1       0.027  -2.729  -2.391  0.00  0.00    -0.422 OA
ATOM     12  C   UNL     1       0.077  -5.067   1.211  0.00  0.00    +0.045 C 
ATOM     13  C   UNL     1       0.037  -2.106   1.218  0.00  0.00    +0.146 A 
ATOM     14  C   UNL     1       0.023  -0.704   1.212  0.00  0.00    +0.027 A 
ATOM     15  C   UNL     1       0.031  -0.306   2.625  0.00  0.00    -0.005 A 
ATOM     16  C   UNL     1       0.054  -1.444   3.333  0.00  0.00    +0.199 A 
ATOM     17  O   UNL     1       0.049  -2.502   2.504  0.00  0.00    -0.462 OA
ATOM     18  C   UNL     1       0.017   1.099   3.170  0.00  0.00    +0.047 C 
ENDBRANCH   1   8
BRANCH   1  19
ATOM     19  C   UNL     1      -1.329  -6.872  -1.522  0.00  0.00    +0.218 C 
ATOM     20  O   UNL     1      -2.258  -6.093  -1.546  0.00  0.00    -0.275 OA
ATOM     21  N   UNL     1      -1.557  -8.196  -1.630  0.00  0.00    -0.315 N 
ATOM     22  H   UNL     1      -0.814  -8.819  -1.611  0.00  0.00    +0.149 HD
BRANCH  21  23
ATOM     23  C   UNL     1      -2.927  -8.694  -1.775  0.00  0.00    +0.108 C 
BRANCH  23  24
ATOM     24  C   UNL     1      -2.907 -10.220  -1.875  0.00  0.00    +0.052 C 
BRANCH  24  25
ATOM     25  C   UNL     1      -4.316 -10.733  -2.025  0.00  0.00    -0.040 C 
ATOM     26  C   UNL     1      -4.955 -11.030  -3.179  0.00  0.00    +0.002 A 
ATOM     27  C   UNL     1      -4.548 -10.969  -4.586  0.00  0.00    +0.055 A 
ATOM     28  C   UNL     1      -5.423 -11.339  -5.551  0.00  0.00    +0.121 A 
ATOM     29  C   UNL     1      -6.723 -11.786  -5.254  0.00  0.00    +0.047 A 
ATOM     30  C   UNL     1      -7.189 -11.876  -3.990  0.00  0.00    +0.029 A 
ATOM     31  C   UNL     1      -6.325 -11.501  -2.867  0.00  0.00    +0.043 A 
ATOM     32  N   UNL     1      -6.524 -11.493  -1.572  0.00  0.00    -0.380 N 
ATOM     33  C   UNL     1      -5.300 -11.024  -0.913  0.00  0.00    +0.144 C 
ATOM     34  H   UNL     1      -7.342 -11.758  -1.124  0.00  0.00    +0.160 HD
BRANCH  28  35
ATOM     35  O   UNL     1      -5.032 -11.277  -6.851  0.00  0.00    -0.495 OA
ATOM     36  C   UNL     1      -5.988 -11.677  -7.836  0.00  0.00    +0.277 C 
ENDBRANCH  28  35
ENDBRANCH  24  25
ENDBRANCH  23  24
ENDBRANCH  21  23
ENDBRANCH   1  19
TORSDOF 6
