REMARK  Name = ZINC17702153
REMARK  13 active torsions:
REMARK  status: ('A' for Active; 'I' for Inactive)
REMARK    1  A    between atoms: C_1  and  C_2
REMARK    2  A    between atoms: C_2  and  C_3
REMARK    3  A    between atoms: C_8  and  N_9
REMARK    4  A    between atoms: C_10  and  C_12
REMARK    5  A    between atoms: C_12  and  N_13
REMARK    6  A    between atoms: N_13  and  C_14
REMARK    7  A    between atoms: C_15  and  C_17
REMARK    8  A    between atoms: N_20  and  S_23
REMARK    9  A    between atoms: S_23  and  C_26
REMARK   10  A    between atoms: C_27  and  C_35
REMARK   11  A    between atoms: C_28  and  C_34
REMARK   12  A    between atoms: C_30  and  C_33
REMARK   13  A    between atoms: C_31  and  C_32
REMARK                            x       y       z     vdW  Elec       q    Type
REMARK                         _______ _______ _______ _____ _____    ______ ____
ROOT
ATOM      1  C   UNL     1      -2.073  -0.346  -0.381  0.00  0.00    +0.078 C 
ATOM      2  C   UNL     1      -1.504   0.674   0.609  0.00  0.00    +0.030 C 
ATOM      3  C   UNL     1      -2.525   1.796   0.823  0.00  0.00    +0.110 C 
ATOM      4  N   UNL     1      -3.802   1.200   1.238  0.00  0.00    -0.177 NA
ATOM      5  C   UNL     1      -4.393   0.145   0.404  0.00  0.00    +0.110 C 
ATOM      6  C   UNL     1      -3.352  -0.959   0.194  0.00  0.00    +0.030 C 
ENDROOT
BRANCH   1   9
ATOM      7  N   UNL     1       0.150  -1.127  -1.133  0.00  0.00    -0.295 N 
ATOM      8  C   UNL     1       0.479   0.265  -1.450  0.00  0.00    +0.132 C 
ATOM      9  C   UNL     1      -1.058  -1.433  -0.621  0.00  0.00    +0.219 C 
ATOM     10  O   UNL     1      -1.331  -2.586  -0.357  0.00  0.00    -0.275 OA
BRANCH   7  11
ATOM     11  C   UNL     1       1.135  -2.185  -1.371  0.00  0.00    +0.203 C 
BRANCH  11  13
ATOM     12  N   UNL     1       1.763  -3.716  -3.210  0.00  0.00    -0.284 N 
ATOM     13  C   UNL     1       0.961  -2.728  -2.766  0.00  0.00    +0.235 C 
ATOM     14  O   UNL     1       0.100  -2.275  -3.490  0.00  0.00    -0.274 OA
ATOM     15  H   UNL     1       2.507  -4.018  -2.665  0.00  0.00    +0.155 HD
BRANCH  12  21
ATOM     16  C   UNL     1       2.529  -5.018  -5.094  0.00  0.00    -0.026 A 
ATOM     17  C   UNL     1       2.288  -5.600  -6.323  0.00  0.00    +0.005 A 
ATOM     18  C   UNL     1       1.046  -5.475  -6.918  0.00  0.00    +0.000 A 
ATOM     19  C   UNL     1       0.042  -4.767  -6.284  0.00  0.00    +0.002 A 
ATOM     20  C   UNL     1       0.274  -4.187  -5.052  0.00  0.00    +0.023 A 
ATOM     21  C   UNL     1       1.523  -4.306  -4.455  0.00  0.00    +0.037 A 
BRANCH  16  23
ATOM     22  C   UNL     1       3.865  -6.338  -3.475  0.00  0.00    +0.009 C 
ATOM     23  C   UNL     1       3.883  -5.156  -4.446  0.00  0.00    +0.033 C 
ENDBRANCH  16  23
ENDBRANCH  12  21
ENDBRANCH  11  13
ENDBRANCH   7  11
ENDBRANCH   1   9
BRANCH   4  24
ATOM     24  S   UNL     1      -4.562   1.710   2.618  0.00  0.00    +0.061 S 
ATOM     25  O   UNL     1      -4.158   3.055   2.832  0.00  0.00    -0.153 OA
ATOM     26  O   UNL     1      -5.927   1.335   2.492  0.00  0.00    -0.153 OA
BRANCH  24  27
ATOM     27  C   UNL     1      -3.903   0.768   3.954  0.00  0.00    +0.112 A 
ATOM     28  C   UNL     1      -2.926   1.312   4.767  0.00  0.00    -0.021 A 
ATOM     29  C   UNL     1      -2.412   0.574   5.817  0.00  0.00    -0.045 A 
ATOM     30  C   UNL     1      -2.868  -0.710   6.048  0.00  0.00    +0.007 A 
ATOM     31  C   UNL     1      -3.841  -1.256   5.232  0.00  0.00    -0.045 A 
ATOM     32  C   UNL     1      -4.358  -0.517   4.184  0.00  0.00    -0.021 A 
ATOM     33  C   UNL     1      -5.418  -1.112   3.294  0.00  0.00    +0.046 C 
ATOM     34  C   UNL     1      -4.337  -2.656   5.483  0.00  0.00    +0.044 C 
ATOM     35  C   UNL     1      -1.352   1.169   6.708  0.00  0.00    +0.044 C 
ATOM     36  C   UNL     1      -2.426   2.710   4.512  0.00  0.00    +0.046 C 
ENDBRANCH  24  27
ENDBRANCH   4  24
TORSDOF 7
