REMARK  Name = ZINC44737087
REMARK  7 active torsions:
REMARK  status: ('A' for Active; 'I' for Inactive)
REMARK    1  A    between atoms: C_1  and  C_2
REMARK    2  A    between atoms: C_9  and  C_11
REMARK    3  A    between atoms: C_11  and  C_13
REMARK    4  A    between atoms: C_11  and  N_14
REMARK    5  A    between atoms: C_15  and  C_17
REMARK    6  A    between atoms: C_28  and  C_30
REMARK    7  A    between atoms: C_35  and  C_36
REMARK                            x       y       z     vdW  Elec       q    Type
REMARK                         _______ _______ _______ _____ _____    ______ ____
ROOT
ATOM      1  C   UNL     1       1.866  -8.475   1.647  0.00  0.00    +0.100 C 
ATOM      2  C   UNL     1       2.809  -7.930   0.551  0.00  0.00    +0.121 C 
ATOM      3  N   UNL     1       4.172  -8.260   1.031  0.00  0.00    -0.296 N 
ATOM      4  C   UNL     1       4.035  -9.611   1.627  0.00  0.00    +0.115 C 
ATOM      5  C   UNL     1       2.674  -9.581   2.348  0.00  0.00    -0.004 C 
ATOM      6  C   UNL     1       1.967 -10.925   2.200  0.00  0.00    -0.010 C 
ATOM      7  C   UNL     1       2.758 -11.998   2.955  0.00  0.00    -0.082 C 
ATOM      8  N   UNL     1       2.858 -11.629   4.372  0.00  0.00    +0.379 N 
ATOM      9  C   UNL     1       3.620 -10.382   4.511  0.00  0.00    -0.082 C 
ATOM     10  C   UNL     1       2.866  -9.241   3.823  0.00  0.00    -0.010 C 
ATOM     11  C   UNL     1       5.284  -7.504   0.945  0.00  0.00    +0.247 C 
ATOM     12  O   UNL     1       6.356  -7.957   1.297  0.00  0.00    -0.270 OA
ATOM     13  H   UNL     1       1.932 -11.499   4.751  0.00  0.00    -0.086 HD
ATOM     14  H   UNL     1       3.326 -12.366   4.878  0.00  0.00    -0.086 HD
ENDROOT
BRANCH  11  15
ATOM     15  C   UNL     1       5.200  -6.123   0.423  0.00  0.00    +0.049 A 
ATOM     16  C   UNL     1       4.325  -5.821  -0.622  0.00  0.00    +0.013 A 
ATOM     17  C   UNL     1       4.251  -4.531  -1.104  0.00  0.00    +0.001 A 
ATOM     18  C   UNL     1       5.043  -3.537  -0.555  0.00  0.00    +0.001 A 
ATOM     19  C   UNL     1       5.913  -3.830   0.480  0.00  0.00    +0.013 A 
ATOM     20  C   UNL     1       5.992  -5.116   0.976  0.00  0.00    +0.067 A 
BRANCH  20  21
ATOM     21  C   UNL     1       6.936  -5.432   2.107  0.00  0.00    +0.418 C 
ATOM     22  F   UNL     1       7.614  -4.269   2.487  0.00  0.00    -0.166 F 
ATOM     23  F   UNL     1       6.209  -5.925   3.196  0.00  0.00    -0.166 F 
ATOM     24  F   UNL     1       7.860  -6.395   1.688  0.00  0.00    -0.166 F 
ENDBRANCH  20  21
ENDBRANCH  11  15
BRANCH   1  26
ATOM     25  N   UNL     1       0.359  -7.451   3.320  0.00  0.00    -0.305 N 
ATOM     26  C   UNL     1       1.512  -7.385   2.625  0.00  0.00    +0.219 C 
ATOM     27  O   UNL     1       2.264  -6.447   2.787  0.00  0.00    -0.275 OA
ATOM     28  H   UNL     1      -0.243  -8.200   3.191  0.00  0.00    +0.149 HD
BRANCH  25  29
ATOM     29  C   UNL     1       0.015  -6.390   4.270  0.00  0.00    +0.136 C 
ATOM     30  C   UNL     1       0.674  -6.681   5.620  0.00  0.00    +0.036 C 
BRANCH  29  39
ATOM     31  C   UNL     1      -7.168  -4.853   5.466  0.00  0.00    +0.044 C 
ATOM     32  C   UNL     1      -5.895  -5.583   5.123  0.00  0.00    -0.048 A 
ATOM     33  C   UNL     1      -5.946  -6.917   4.745  0.00  0.00    +0.005 A 
ATOM     34  C   UNL     1      -4.803  -7.596   4.431  0.00  0.00    +0.030 A 
ATOM     35  C   UNL     1      -3.568  -6.945   4.488  0.00  0.00    +0.089 A 
ATOM     36  C   UNL     1      -3.516  -5.594   4.870  0.00  0.00    +0.067 A 
ATOM     37  C   UNL     1      -4.688  -4.918   5.181  0.00  0.00    +0.031 A 
ATOM     38  N   UNL     1      -2.183  -5.238   4.832  0.00  0.00    -0.340 N 
ATOM     39  C   UNL     1      -1.481  -6.337   4.443  0.00  0.00    +0.128 A 
ATOM     40  N   UNL     1      -2.291  -7.336   4.242  0.00  0.00    -0.231 NA
ATOM     41  H   UNL     1      -1.814  -4.366   5.043  0.00  0.00    +0.167 HD
ENDBRANCH  29  39
ENDBRANCH  25  29
ENDBRANCH   1  26
TORSDOF 5
