REMARK  Name = ZINC09332237
REMARK  5 active torsions:
REMARK  status: ('A' for Active; 'I' for Inactive)
REMARK    1  A    between atoms: C_5  and  N_7
REMARK    2  A    between atoms: C_16  and  S_17
REMARK    3  A    between atoms: S_17  and  C_18
REMARK    4  A    between atoms: C_18  and  C_19
REMARK    5  A    between atoms: N_24  and  C_25
REMARK                            x       y       z     vdW  Elec       q    Type
REMARK                         _______ _______ _______ _____ _____    ______ ____
ROOT
ATOM      1  N   UNL     1      -0.118   1.163   4.055  0.00  0.00    -0.253 N 
ATOM      2  C   UNL     1       0.649   0.637   5.028  0.00  0.00    +0.268 A 
ATOM      3  O   UNL     1       0.375   0.826   6.201  0.00  0.00    -0.267 OA
ATOM      4  C   UNL     1       1.789  -0.147   4.667  0.00  0.00    +0.076 A 
ATOM      5  C   UNL     1       2.752  -0.808   5.551  0.00  0.00    -0.023 A 
ATOM      6  C   UNL     1       3.751  -1.496   4.963  0.00  0.00    -0.004 A 
ATOM      7  S   UNL     1       3.476  -1.309   3.221  0.00  0.00    -0.073 S 
ATOM      8  C   UNL     1       2.014  -0.304   3.289  0.00  0.00    +0.117 A 
ATOM      9  N   UNL     1       1.216   0.238   2.377  0.00  0.00    -0.215 NA
ATOM     10  C   UNL     1       0.174   0.961   2.735  0.00  0.00    +0.178 A 
ATOM     11  C   UNL     1       4.853  -2.253   5.639  0.00  0.00    +0.043 C 
ATOM     12  C   UNL     1       4.899  -1.827   7.114  0.00  0.00    +0.005 C 
ATOM     13  C   UNL     1       3.476  -1.864   7.680  0.00  0.00    +0.005 C 
ATOM     14  C   UNL     1       2.645  -0.734   7.072  0.00  0.00    +0.037 C 
ENDROOT
BRANCH   1  19
ATOM     15  C   UNL     1      -3.575   2.084   4.917  0.00  0.00    +0.002 A 
ATOM     16  C   UNL     1      -3.449   3.451   5.086  0.00  0.00    +0.003 A 
ATOM     17  C   UNL     1      -2.220   4.062   4.914  0.00  0.00    +0.040 A 
ATOM     18  C   UNL     1      -1.113   3.306   4.572  0.00  0.00    +0.147 A 
ATOM     19  C   UNL     1      -1.238   1.932   4.401  0.00  0.00    +0.087 A 
ATOM     20  C   UNL     1      -2.474   1.325   4.569  0.00  0.00    +0.029 A 
ATOM     21  F   UNL     1       0.087   3.903   4.404  0.00  0.00    -0.203 F 
ENDBRANCH   1  19
BRANCH  10  22
ATOM     22  S   UNL     1      -0.860   1.669   1.497  0.00  0.00    -0.078 S 
BRANCH  22  23
ATOM     23  C   UNL     1      -0.013   1.086   0.008  0.00  0.00    +0.173 C 
BRANCH  23  24
ATOM     24  C   UNL     1      -0.742   1.585  -1.213  0.00  0.00    +0.231 C 
ATOM     25  O   UNL     1      -1.736   2.268  -1.089  0.00  0.00    -0.274 OA
ATOM     26  N   UNL     1      -0.288   1.272  -2.443  0.00  0.00    -0.239 N 
ATOM     27  C   UNL     1      -0.940   1.719  -3.535  0.00  0.00    +0.306 C 
ATOM     28  O   UNL     1      -1.937   2.403  -3.410  0.00  0.00    -0.252 OA
ATOM     29  N   UNL     1      -0.487   1.406  -4.765  0.00  0.00    -0.296 N 
ATOM     30  H   UNL     1       0.507   0.726  -2.543  0.00  0.00    +0.159 HD
ATOM     31  H   UNL     1       0.308   0.860  -4.865  0.00  0.00    +0.151 HD
BRANCH  29  32
ATOM     32  C   UNL     1      -1.196   1.891  -5.952  0.00  0.00    +0.075 C 
ATOM     33  C   UNL     1      -1.414   0.902  -7.098  0.00  0.00    +0.024 C 
ATOM     34  C   UNL     1      -0.392   2.031  -7.246  0.00  0.00    +0.024 C 
ENDBRANCH  29  32
ENDBRANCH  23  24
ENDBRANCH  22  23
ENDBRANCH  10  22
TORSDOF 5
