REMARK  Name = ZINC58056928
REMARK  7 active torsions:
REMARK  status: ('A' for Active; 'I' for Inactive)
REMARK    1  A    between atoms: C_1  and  C_2
REMARK    2  A    between atoms: C_6  and  O_9
REMARK    3  A    between atoms: C_7  and  C_8
REMARK    4  A    between atoms: O_9  and  C_10
REMARK    5  A    between atoms: C_10  and  C_11
REMARK    6  A    between atoms: C_11  and  C_12
REMARK    7  A    between atoms: C_16  and  N_20
REMARK                            x       y       z     vdW  Elec       q    Type
REMARK                         _______ _______ _______ _____ _____    ______ ____
ROOT
ATOM      1  C   UNL     1       0.102  -6.301   3.594  0.00  0.00    +0.117 A 
ATOM      2  N   UNL     1       0.110  -6.867   2.419  0.00  0.00    -0.194 NA
ATOM      3  C   UNL     1       0.128  -8.200   2.286  0.00  0.00    +0.298 A 
ATOM      4  O   UNL     1       0.136  -8.762   1.053  0.00  0.00    -0.264 OA
ATOM      5  C   UNL     1       0.139  -8.999   3.416  0.00  0.00    +0.157 A 
ATOM      6  C   UNL     1       0.130  -8.374   4.678  0.00  0.00    +0.276 A 
ATOM      7  O   UNL     1       0.139  -9.038   5.703  0.00  0.00    -0.266 OA
ATOM      8  N   UNL     1       0.117  -7.025   4.732  0.00  0.00    -0.309 N 
ATOM      9  H   UNL     1       0.115  -6.576   5.591  0.00  0.00    +0.170 HD
ENDROOT
BRANCH   5  10
ATOM     10  N   UNL     1       0.157 -10.401   3.307  0.00  0.00    -0.350 N 
ATOM     11  H   UNL     1       0.162 -10.820   2.432  0.00  0.00    +0.143 HD
ATOM     12  H   UNL     1       0.164 -10.950   4.107  0.00  0.00    +0.143 HD
ENDBRANCH   5  10
BRANCH   1  13
ATOM     13  C   UNL     1       0.083  -4.796   3.683  0.00  0.00    +0.115 C 
BRANCH  13  14
ATOM     14  C   UNL     1       0.069  -4.202   2.274  0.00  0.00    +0.237 C 
BRANCH  14  15
ATOM     15  O   UNL     1       0.050  -2.776   2.358  0.00  0.00    -0.491 OA
BRANCH  15  21
ATOM     16  C   UNL     1      -0.018   1.503   0.010  0.00  0.00    +0.044 C 
ATOM     17  C   UNL     1       0.002  -0.004   0.002  0.00  0.00    -0.044 A 
ATOM     18  C   UNL     1       0.006  -0.688  -1.200  0.00  0.00    +0.004 A 
ATOM     19  C   UNL     1       0.024  -2.071  -1.211  0.00  0.00    +0.004 A 
ATOM     20  C   UNL     1       0.039  -2.772  -0.020  0.00  0.00    +0.046 A 
ATOM     21  C   UNL     1       0.035  -2.088   1.186  0.00  0.00    +0.124 A 
ATOM     22  C   UNL     1       0.023  -0.700   1.195  0.00  0.00    -0.006 A 
ATOM     23  C   UNL     1       0.026   0.046   2.504  0.00  0.00    +0.048 C 
ENDBRANCH  15  21
ENDBRANCH  14  15
ENDBRANCH  13  14
ENDBRANCH   1  13
TORSDOF 5
