REMARK  Name = ZINC50322693
REMARK  10 active torsions:
REMARK  status: ('A' for Active; 'I' for Inactive)
REMARK    1  A    between atoms: C_1  and  C_2
REMARK    2  A    between atoms: C_2  and  C_3
REMARK    3  A    between atoms: C_3  and  C_4
REMARK    4  A    between atoms: C_5  and  N_19
REMARK    5  A    between atoms: C_6  and  C_10
REMARK    6  A    between atoms: N_12  and  C_13
REMARK    7  A    between atoms: N_12  and  C_16
REMARK    8  A    between atoms: C_13  and  C_14
REMARK    9  A    between atoms: C_16  and  C_17
REMARK   10  A    between atoms: C_16  and  C_18
REMARK                            x       y       z     vdW  Elec       q    Type
REMARK                         _______ _______ _______ _____ _____    ______ ____
ROOT
ATOM      1  C   UNL     1       0.318  -2.129  -0.425  0.00  0.00    +0.057 A 
ATOM      2  C   UNL     1      -0.577  -2.930  -1.062  0.00  0.00    +0.078 A 
ATOM      3  C   UNL     1       0.013  -4.220  -1.076  0.00  0.00    +0.168 A 
ATOM      4  N   UNL     1       1.181  -4.118  -0.469  0.00  0.00    -0.167 NA
ATOM      5  N   UNL     1       1.379  -2.908  -0.088  0.00  0.00    -0.279 N 
ATOM      6  H   UNL     1       2.171  -2.595   0.377  0.00  0.00    +0.189 HD
ENDROOT
BRANCH   3   7
ATOM      7  C   UNL     1      -0.569  -5.444  -1.657  0.00  0.00    +0.269 C 
ATOM      8  O   UNL     1      -1.702  -5.429  -2.096  0.00  0.00    -0.268 OA
ATOM      9  N   UNL     1       0.156  -6.579  -1.701  0.00  0.00    -0.290 N 
BRANCH   9  10
ATOM     10  C   UNL     1      -0.385  -7.769  -2.363  0.00  0.00    +0.071 C 
ATOM     11  C   UNL     1       0.468  -8.104  -3.587  0.00  0.00    +0.028 C 
ATOM     12  C   UNL     1      -0.364  -8.948  -1.389  0.00  0.00    +0.028 C 
ENDBRANCH   9  10
BRANCH   9  13
ATOM     13  C   UNL     1       1.486  -6.624  -1.087  0.00  0.00    +0.135 C 
BRANCH  13  14
ATOM     14  C   UNL     1       1.349  -6.900   0.388  0.00  0.00    -0.016 C 
ATOM     15  C   UNL     1       1.982  -7.912   0.927  0.00  0.00    +0.005 C 
ENDBRANCH  13  14
ENDBRANCH   9  13
ENDBRANCH   3   7
BRANCH   2  16
ATOM     16  N   UNL     1      -1.821  -2.559  -1.594  0.00  0.00    -0.355 N 
ATOM     17  H   UNL     1      -2.123  -1.640  -1.526  0.00  0.00    +0.142 HD
ATOM     18  H   UNL     1      -2.379  -3.222  -2.030  0.00  0.00    +0.142 HD
ENDBRANCH   2  16
BRANCH   1  19
ATOM     19  C   UNL     1       0.165  -0.655  -0.151  0.00  0.00    +0.056 C 
BRANCH  19  21
ATOM     20  C   UNL     1      -0.776   1.040   1.425  0.00  0.00    +0.004 C 
ATOM     21  C   UNL     1      -0.621  -0.457   1.147  0.00  0.00    +0.003 C 
ENDBRANCH  19  21
ENDBRANCH   1  19
TORSDOF 7
