REMARK  Name = ZINC39668460
REMARK  7 active torsions:
REMARK  status: ('A' for Active; 'I' for Inactive)
REMARK    1  A    between atoms: C_1  and  C_2
REMARK    2  A    between atoms: C_2  and  C_4
REMARK    3  A    between atoms: C_2  and  O_35
REMARK    4  A    between atoms: C_4  and  N_5
REMARK    5  A    between atoms: C_6  and  C_8
REMARK    6  A    between atoms: C_19  and  C_21
REMARK    7  A    between atoms: O_35  and  C_36
REMARK                            x       y       z     vdW  Elec       q    Type
REMARK                         _______ _______ _______ _____ _____    ______ ____
ROOT
ATOM      1  C   UNL     1       2.119  -4.448  -1.433  0.00  0.00    +0.100 C 
ATOM      2  C   UNL     1       2.789  -5.292  -0.326  0.00  0.00    +0.121 C 
ATOM      3  N   UNL     1       3.122  -6.577  -0.985  0.00  0.00    -0.296 N 
ATOM      4  C   UNL     1       3.584  -6.189  -2.339  0.00  0.00    +0.115 C 
ATOM      5  C   UNL     1       2.644  -5.039  -2.753  0.00  0.00    -0.004 C 
ATOM      6  C   UNL     1       3.417  -3.982  -3.535  0.00  0.00    -0.010 C 
ATOM      7  C   UNL     1       3.879  -4.576  -4.868  0.00  0.00    -0.082 C 
ATOM      8  N   UNL     1       2.712  -5.025  -5.636  0.00  0.00    +0.379 N 
ATOM      9  C   UNL     1       2.027  -6.107  -4.919  0.00  0.00    -0.082 C 
ATOM     10  C   UNL     1       1.486  -5.578  -3.588  0.00  0.00    -0.010 C 
ATOM     11  C   UNL     1       3.026  -7.819  -0.469  0.00  0.00    +0.247 C 
ATOM     12  O   UNL     1       3.427  -8.774  -1.105  0.00  0.00    -0.270 OA
ATOM     13  H   UNL     1       2.076  -4.252  -5.763  0.00  0.00    -0.086 HD
ATOM     14  H   UNL     1       3.013  -5.360  -6.539  0.00  0.00    -0.086 HD
ENDROOT
BRANCH  11  15
ATOM     15  C   UNL     1       2.432  -8.019   0.869  0.00  0.00    +0.045 A 
ATOM     16  C   UNL     1       2.871  -7.253   1.955  0.00  0.00    +0.014 A 
ATOM     17  C   UNL     1       2.319  -7.438   3.204  0.00  0.00    +0.001 A 
ATOM     18  C   UNL     1       1.324  -8.383   3.399  0.00  0.00    +0.012 A 
ATOM     19  C   UNL     1       0.873  -9.154   2.334  0.00  0.00    +0.031 A 
ATOM     20  C   UNL     1       1.422  -8.973   1.055  0.00  0.00    +0.006 A 
ATOM     21  C   UNL     1       0.760  -9.911   0.114  0.00  0.00    -0.006 A 
ATOM     22  C   UNL     1       0.934 -10.137  -1.245  0.00  0.00    +0.009 A 
ATOM     23  C   UNL     1       0.167 -11.094  -1.892  0.00  0.00    +0.001 A 
ATOM     24  C   UNL     1      -0.773 -11.826  -1.194  0.00  0.00    +0.001 A 
ATOM     25  C   UNL     1      -0.958 -11.612   0.163  0.00  0.00    +0.012 A 
ATOM     26  C   UNL     1      -0.196 -10.658   0.824  0.00  0.00    +0.030 A 
ATOM     27  C   UNL     1      -0.154 -10.219   2.239  0.00  0.00    +0.194 C 
ATOM     28  O   UNL     1      -0.841 -10.641   3.147  0.00  0.00    -0.287 OA
ENDBRANCH  11  15
BRANCH   1  30
ATOM     29  N   UNL     1       1.685  -2.029  -1.717  0.00  0.00    -0.312 N 
ATOM     30  C   UNL     1       2.524  -3.002  -1.308  0.00  0.00    +0.218 C 
ATOM     31  O   UNL     1       3.605  -2.713  -0.841  0.00  0.00    -0.275 OA
ATOM     32  H   UNL     1       0.821  -2.260  -2.091  0.00  0.00    +0.149 HD
BRANCH  29  33
ATOM     33  C   UNL     1       2.079  -0.624  -1.595  0.00  0.00    +0.148 C 
BRANCH  33  35
ATOM     34  C   UNL     1       1.415   1.728  -2.116  0.00  0.00    +0.053 C 
ATOM     35  C   UNL     1       0.955   0.269  -2.127  0.00  0.00    +0.187 C 
BRANCH  35  36
ATOM     36  O   UNL     1      -0.199   0.126  -1.296  0.00  0.00    -0.486 OA
BRANCH  36  37
ATOM     37  C   UNL     1      -1.401   0.431  -1.853  0.00  0.00    +0.139 A 
ATOM     38  C   UNL     1      -1.485   0.801  -3.191  0.00  0.00    +0.049 A 
ATOM     39  C   UNL     1      -2.732   1.103  -3.714  0.00  0.00    +0.023 A 
ATOM     40  C   UNL     1      -3.843   1.027  -2.895  0.00  0.00    +0.111 A 
ATOM     41  N   UNL     1      -3.729   0.673  -1.630  0.00  0.00    -0.260 NA
ATOM     42  C   UNL     1      -2.562   0.373  -1.096  0.00  0.00    +0.156 A 
ENDBRANCH  36  37
ENDBRANCH  35  36
ENDBRANCH  33  35
ENDBRANCH  29  33
ENDBRANCH   1  30
TORSDOF 6
