REMARK  Name = ZINC38684795
REMARK  13 active torsions:
REMARK  status: ('A' for Active; 'I' for Inactive)
REMARK    1  A    between atoms: C_1  and  C_2
REMARK    2  A    between atoms: C_2  and  C_3
REMARK    3  A    between atoms: C_3  and  C_4
REMARK    4  A    between atoms: C_4  and  C_5
REMARK    5  A    between atoms: C_5  and  O_6
REMARK    6  A    between atoms: O_6  and  C_7
REMARK    7  A    between atoms: C_11  and  C_13
REMARK    8  A    between atoms: C_18  and  O_27
REMARK    9  A    between atoms: C_22  and  N_26
REMARK   10  A    between atoms: C_23  and  C_24
REMARK   11  A    between atoms: O_27  and  C_28
REMARK   12  A    between atoms: C_28  and  C_30
REMARK   13  A    between atoms: C_33  and  N_36
REMARK                            x       y       z     vdW  Elec       q    Type
REMARK                         _______ _______ _______ _____ _____    ______ ____
ROOT
ATOM      1  C   UNL     1       2.746  -8.069  -4.786  0.00  0.00    +0.098 C 
ATOM      2  C   UNL     1       2.052  -8.521  -6.044  0.00  0.00    +0.008 A 
ATOM      3  C   UNL     1       0.672  -8.623  -6.060  0.00  0.00    +0.012 A 
ATOM      4  C   UNL     1       0.018  -9.036  -7.204  0.00  0.00    +0.047 A 
ATOM      5  C   UNL     1       0.746  -9.350  -8.344  0.00  0.00    +0.135 A 
ATOM      6  C   UNL     1       2.127  -9.249  -8.331  0.00  0.00    +0.093 A 
ATOM      7  C   UNL     1       2.783  -8.833  -7.179  0.00  0.00    +0.138 A 
ATOM      8  O   UNL     1       4.136  -8.739  -7.183  0.00  0.00    -0.441 OA
ATOM      9  C   UNL     1       4.809  -8.723  -6.021  0.00  0.00    +0.199 C 
ATOM     10  C   UNL     1       4.208  -8.413  -4.851  0.00  0.00    +0.098 C 
ENDROOT
BRANCH   1  15
ATOM     11  C   UNL     1       1.809  -4.684  -3.394  0.00  0.00    +0.121 A 
ATOM     12  C   UNL     1       2.308  -3.837  -4.374  0.00  0.00    +0.045 A 
ATOM     13  C   UNL     1       2.945  -4.362  -5.481  0.00  0.00    +0.004 A 
ATOM     14  C   UNL     1       3.087  -5.732  -5.613  0.00  0.00    +0.005 A 
ATOM     15  C   UNL     1       2.591  -6.578  -4.639  0.00  0.00    -0.031 A 
ATOM     16  C   UNL     1       1.957  -6.056  -3.527  0.00  0.00    +0.050 A 
BRANCH  11  17
ATOM     17  O   UNL     1       1.182  -4.169  -2.304  0.00  0.00    -0.492 OA
BRANCH  17  18
ATOM     18  C   UNL     1       1.066  -2.746  -2.234  0.00  0.00    +0.229 C 
BRANCH  18  19
ATOM     19  C   UNL     1       0.337  -2.357  -0.947  0.00  0.00    +0.041 C 
BRANCH  19  20
ATOM     20  C   UNL     1       0.213  -0.834  -0.872  0.00  0.00    +0.003 C 
BRANCH  20  22
ATOM     21  C   UNL     1      -0.640   1.079   0.491  0.00  0.00    +0.004 C 
ATOM     22  C   UNL     1      -0.516  -0.444   0.416  0.00  0.00    -0.003 C 
ENDBRANCH  20  22
ENDBRANCH  19  20
ENDBRANCH  18  19
ENDBRANCH  17  18
ENDBRANCH  11  17
ENDBRANCH   1  15
BRANCH   9  23
ATOM     23  N   UNL     1       6.147  -9.030  -6.022  0.00  0.00    -0.328 N 
ATOM     24  H   UNL     1       6.593  -9.254  -6.854  0.00  0.00    +0.145 HD
ATOM     25  H   UNL     1       6.648  -9.023  -5.191  0.00  0.00    +0.145 HD
ENDBRANCH   9  23
BRANCH  10  26
ATOM     26  C   UNL     1       4.983  -8.413  -3.647  0.00  0.00    +0.101 C 
ATOM     27  N   UNL     1       5.598  -8.413  -2.692  0.00  0.00    -0.191 NA
ENDBRANCH  10  26
BRANCH   5  28
ATOM     28  O   UNL     1       0.103  -9.757  -9.470  0.00  0.00    -0.422 OA
BRANCH  28  29
ATOM     29  C   UNL     1      -0.639  -8.852 -10.137  0.00  0.00    +0.344 C 
ATOM     30  O   UNL     1      -0.637  -7.688  -9.787  0.00  0.00    -0.245 OA
BRANCH  29  31
ATOM     31  C   UNL     1      -1.457  -9.274 -11.292  0.00  0.00    +0.060 A 
ATOM     32  C   UNL     1      -1.466 -10.612 -11.693  0.00  0.00    +0.017 A 
ATOM     33  C   UNL     1      -2.232 -10.999 -12.773  0.00  0.00    +0.033 A 
ATOM     34  C   UNL     1      -2.989 -10.066 -13.459  0.00  0.00    +0.126 A 
ATOM     35  C   UNL     1      -2.984  -8.739 -13.067  0.00  0.00    +0.033 A 
ATOM     36  C   UNL     1      -2.228  -8.339 -11.985  0.00  0.00    +0.017 A 
BRANCH  34  37
ATOM     37  N   UNL     1      -3.807 -10.489 -14.618  0.00  0.00    +0.056 N 
ATOM     38  O   UNL     1      -3.813 -11.648 -14.963  0.00  0.00    -0.126 OA
ATOM     39  O   UNL     1      -4.470  -9.676 -15.219  0.00  0.00    -0.126 OA
ENDBRANCH  34  37
ENDBRANCH  29  31
ENDBRANCH  28  29
ENDBRANCH   5  28
TORSDOF 12
