REMARK  Name = ZINC42729748
REMARK  6 active torsions:
REMARK  status: ('A' for Active; 'I' for Inactive)
REMARK    1  A    between atoms: C_1  and  C_2
REMARK    2  A    between atoms: C_2  and  N_3
REMARK    3  A    between atoms: N_3  and  C_4
REMARK    4  A    between atoms: C_4  and  C_6
REMARK    5  A    between atoms: C_4  and  C_14
REMARK    6  A    between atoms: C_15  and  C_19
REMARK                            x       y       z     vdW  Elec       q    Type
REMARK                         _______ _______ _______ _____ _____    ______ ____
ROOT
ATOM      1  C   UNL     1       0.710  -1.982   1.197  0.00  0.00    -0.002 C 
ENDROOT
BRANCH   1   2
ATOM      2  C   UNL     1       0.739  -3.042   2.268  0.00  0.00    -0.043 A 
ATOM      3  C   UNL     1       1.661  -2.961   3.295  0.00  0.00    +0.006 A 
ATOM      4  C   UNL     1       1.689  -3.931   4.278  0.00  0.00    +0.038 A 
ATOM      5  C   UNL     1       0.793  -4.987   4.235  0.00  0.00    +0.124 A 
ATOM      6  C   UNL     1      -0.130  -5.068   3.206  0.00  0.00    +0.053 A 
ATOM      7  C   UNL     1      -0.160  -4.092   2.226  0.00  0.00    +0.023 A 
ATOM      8 BR   UNL     1      -1.425  -4.198   0.825  0.00  0.00    -0.050 Br
ATOM      9  F   UNL     1       0.820  -5.936   5.195  0.00  0.00    -0.205 F 
ENDBRANCH   1   2
BRANCH   1  10
ATOM     10  C   UNL     1       1.564  -2.418   0.035  0.00  0.00    -0.017 A 
ATOM     11  C   UNL     1       1.214  -2.595  -1.263  0.00  0.00    -0.042 A 
ATOM     12  C   UNL     1       2.176  -3.005  -2.167  0.00  0.00    +0.011 A 
ATOM     13  C   UNL     1       3.441  -3.217  -1.729  0.00  0.00    +0.045 A 
ATOM     14  S   UNL     1       3.301  -2.829   0.008  0.00  0.00    -0.103 S 
ATOM     15  C   UNL     1      -0.203  -2.349  -1.713  0.00  0.00    +0.044 C 
ENDBRANCH   1  10
BRANCH   1  16
ATOM     16  N   UNL     1       1.231  -0.721   1.742  0.00  0.00    +0.386 N 
ATOM     17  H   UNL     1       2.205  -0.834   1.978  0.00  0.00    -0.085 HD
ATOM     18  H   UNL     1       0.710  -0.471   2.569  0.00  0.00    -0.085 HD
BRANCH  16  20
ATOM     19  C   UNL     1       1.634   1.654   1.304  0.00  0.00    -0.017 C 
ATOM     20  C   UNL     1       1.091   0.341   0.737  0.00  0.00    -0.085 C 
ENDBRANCH  16  20
ENDBRANCH   1  16
TORSDOF 4
