REMARK  Name = ZINC15988049
REMARK  4 active torsions:
REMARK  status: ('A' for Active; 'I' for Inactive)
REMARK    1  A    between atoms: N_9  and  C_24
REMARK    2  A    between atoms: C_10  and  C_12
REMARK    3  A    between atoms: C_12  and  S_13
REMARK    4  A    between atoms: S_13  and  C_14
REMARK                            x       y       z     vdW  Elec       q    Type
REMARK                         _______ _______ _______ _____ _____    ______ ____
ROOT
ATOM      1  C   UNL     1       0.551   1.466   1.359  0.00  0.00    +0.001 A 
ATOM      2  C   UNL     1       1.641   2.131   0.811  0.00  0.00    +0.002 A 
ATOM      3  C   UNL     1       2.635   1.438   0.159  0.00  0.00    +0.028 A 
ATOM      4  C   UNL     1       2.550   0.048   0.046  0.00  0.00    +0.078 A 
ATOM      5  C   UNL     1       1.440  -0.625   0.604  0.00  0.00    +0.065 A 
ATOM      6  C   UNL     1       0.444   0.097   1.260  0.00  0.00    +0.015 A 
ATOM      7  C   UNL     1       1.379  -2.087   0.468  0.00  0.00    +0.266 A 
ATOM      8  O   UNL     1       0.450  -2.727   0.926  0.00  0.00    -0.267 OA
ATOM      9  N   UNL     1       2.396  -2.695  -0.187  0.00  0.00    -0.264 N 
ATOM     10  C   UNL     1       3.426  -1.966  -0.694  0.00  0.00    +0.128 A 
ATOM     11  N   UNL     1       3.507  -0.674  -0.589  0.00  0.00    -0.232 NA
ENDROOT
BRANCH   9  12
ATOM     12  C   UNL     1       2.386  -4.087  -0.344  0.00  0.00    +0.053 A 
ATOM     13  C   UNL     1       1.774  -4.657  -1.452  0.00  0.00    +0.028 A 
ATOM     14  C   UNL     1       1.766  -6.030  -1.606  0.00  0.00    +0.023 A 
ATOM     15  C   UNL     1       2.368  -6.837  -0.656  0.00  0.00    +0.059 A 
ATOM     16  C   UNL     1       2.979  -6.271   0.450  0.00  0.00    +0.061 A 
ATOM     17  C   UNL     1       2.994  -4.898   0.604  0.00  0.00    +0.047 A 
ATOM     18 CL   UNL     1       3.733  -7.287   1.639  0.00  0.00    -0.082 Cl
ATOM     19 CL   UNL     1       2.355  -8.562  -0.852  0.00  0.00    -0.082 Cl
ENDBRANCH   9  12
BRANCH  10  20
ATOM     20  C   UNL     1       4.532  -2.695  -1.414  0.00  0.00    +0.150 C 
BRANCH  20  21
ATOM     21  S   UNL     1       5.692  -1.491  -2.116  0.00  0.00    -0.096 S 
BRANCH  21  22
ATOM     22  C   UNL     1       6.908  -2.486  -2.914  0.00  0.00    +0.126 A 
ATOM     23  C   UNL     1       7.989  -1.899  -3.576  0.00  0.00    +0.117 A 
ATOM     24  C   UNL     1       8.932  -2.734  -4.197  0.00  0.00    +0.182 A 
ATOM     25  N   UNL     1       9.858  -1.932  -4.754  0.00  0.00    -0.216 NA
ATOM     26  C   UNL     1       9.556  -0.684  -4.524  0.00  0.00    +0.199 A 
ATOM     27  N   UNL     1       8.415  -0.607  -3.803  0.00  0.00    -0.341 N 
ATOM     28  H   UNL     1       7.978   0.204  -3.501  0.00  0.00    +0.167 HD
ATOM     29  N   UNL     1       8.758  -4.059  -4.130  0.00  0.00    -0.214 NA
ATOM     30  C   UNL     1       7.724  -4.566  -3.495  0.00  0.00    +0.224 A 
ATOM     31  N   UNL     1       6.820  -3.814  -2.895  0.00  0.00    -0.227 NA
ENDBRANCH  21  22
ENDBRANCH  20  21
ENDBRANCH  10  20
TORSDOF 4
