REMARK  Name = ZINC37001920
REMARK  4 active torsions:
REMARK  status: ('A' for Active; 'I' for Inactive)
REMARK    1  A    between atoms: C_1  and  C_2
REMARK    2  A    between atoms: C_8  and  N_10
REMARK    3  A    between atoms: N_10  and  C_11
REMARK    4  A    between atoms: C_15  and  N_17
REMARK                            x       y       z     vdW  Elec       q    Type
REMARK                         _______ _______ _______ _____ _____    ______ ____
ROOT
ATOM      1  C   UNL     1       0.759   0.084   3.648  0.00  0.00    +0.029 A 
ATOM      2  C   UNL     1       2.118  -0.209   3.691  0.00  0.00    +0.023 A 
ATOM      3  C   UNL     1       2.820  -0.059   4.871  0.00  0.00    +0.004 A 
ATOM      4  C   UNL     1       2.175   0.381   6.012  0.00  0.00    +0.024 A 
ATOM      5  C   UNL     1       0.818   0.674   5.975  0.00  0.00    +0.040 A 
ATOM      6  C   UNL     1       0.111   0.531   4.790  0.00  0.00    +0.046 A 
ENDROOT
BRANCH   5   7
ATOM      7  N   UNL     1       0.166   1.119   7.130  0.00  0.00    -0.254 N 
ATOM      8  C   UNL     1       0.770   1.211   8.468  0.00  0.00    +0.134 C 
ATOM      9  C   UNL     1      -0.370   1.751   9.352  0.00  0.00    +0.125 C 
ATOM     10  N   UNL     1      -1.496   1.906   8.419  0.00  0.00    -0.297 N 
ATOM     11  C   UNL     1      -1.106   1.534   7.193  0.00  0.00    +0.307 C 
ATOM     12  O   UNL     1      -1.841   1.567   6.225  0.00  0.00    -0.252 OA
ATOM     13  H   UNL     1      -2.380   2.231   8.653  0.00  0.00    +0.150 HD
ENDBRANCH   5   7
BRANCH   1  14
ATOM     14  N   UNL     1       0.050  -0.067   2.454  0.00  0.00    -0.341 N 
ATOM     15  H   UNL     1      -0.897   0.141   2.423  0.00  0.00    +0.146 HD
BRANCH  14  22
ATOM     16  C   UNL     1      -0.051   1.482   0.009  0.00  0.00    +0.009 C 
ATOM     17  C   UNL     1      -0.015  -0.048   0.009  0.00  0.00    +0.006 C 
ATOM     18  C   UNL     1      -1.444  -0.592   0.029  0.00  0.00    +0.005 C 
ATOM     19  C   UNL     1      -1.408  -2.122   0.030  0.00  0.00    +0.000 C 
ATOM     20  C   UNL     1      -0.657  -2.614   1.269  0.00  0.00    +0.002 C 
ATOM     21  C   UNL     1       0.772  -2.069   1.249  0.00  0.00    +0.022 C 
ATOM     22  C   UNL     1       0.736  -0.540   1.249  0.00  0.00    +0.073 C 
ENDBRANCH  14  22
ENDBRANCH   1  14
TORSDOF 3
