REMARK  Name = ZINC34747367
REMARK  7 active torsions:
REMARK  status: ('A' for Active; 'I' for Inactive)
REMARK    1  A    between atoms: C_1  and  C_2
REMARK    2  A    between atoms: C_5  and  C_9
REMARK    3  A    between atoms: C_6  and  C_8
REMARK    4  A    between atoms: C_9  and  N_10
REMARK    5  A    between atoms: N_23  and  C_26
REMARK    6  A    between atoms: C_26  and  C_27
REMARK    7  A    between atoms: C_27  and  C_28
REMARK                            x       y       z     vdW  Elec       q    Type
REMARK                         _______ _______ _______ _____ _____    ______ ____
ROOT
ATOM      1  N   UNL     1      -1.062  -4.680   0.379  0.00  0.00    -0.276 N 
ATOM      2  C   UNL     1      -1.387  -4.877   1.670  0.00  0.00    +0.264 A 
ATOM      3  O   UNL     1      -0.553  -4.728   2.546  0.00  0.00    -0.267 OA
ATOM      4  C   UNL     1      -2.725  -5.262   1.999  0.00  0.00    +0.076 A 
ATOM      5  C   UNL     1      -3.294  -5.528   3.322  0.00  0.00    -0.023 A 
ATOM      6  C   UNL     1      -4.595  -5.879   3.369  0.00  0.00    -0.004 A 
ATOM      7  S   UNL     1      -5.134  -5.877   1.681  0.00  0.00    -0.073 S 
ATOM      8  C   UNL     1      -3.605  -5.404   0.913  0.00  0.00    +0.117 A 
ATOM      9  N   UNL     1      -3.220  -5.195  -0.340  0.00  0.00    -0.208 NA
ATOM     10  C   UNL     1      -1.983  -4.835  -0.615  0.00  0.00    +0.202 A 
ATOM     11  N   UNL     1      -1.615  -4.620  -1.919  0.00  0.00    -0.304 N 
ATOM     12  C   UNL     1      -2.007  -5.559  -2.982  0.00  0.00    +0.089 C 
ATOM     13  C   UNL     1      -2.640  -4.760  -4.126  0.00  0.00    -0.060 C 
ATOM     14  N   UNL     1      -1.711  -3.709  -4.560  0.00  0.00    +0.382 N 
ATOM     15  C   UNL     1      -1.505  -2.744  -3.472  0.00  0.00    -0.060 C 
ATOM     16  C   UNL     1      -0.821  -3.440  -2.296  0.00  0.00    +0.089 C 
ATOM     17  C   UNL     1      -5.404  -6.202   4.589  0.00  0.00    +0.043 C 
ATOM     18  C   UNL     1      -4.441  -6.438   5.761  0.00  0.00    +0.005 C 
ATOM     19  C   UNL     1      -3.418  -5.298   5.793  0.00  0.00    +0.005 C 
ATOM     20  C   UNL     1      -2.468  -5.419   4.601  0.00  0.00    +0.037 C 
ATOM     21  H   UNL     1      -0.827  -4.125  -4.811  0.00  0.00    -0.082 HD
ENDROOT
BRANCH   1  22
ATOM     22  C   UNL     1       0.306  -4.285   0.034  0.00  0.00    +0.163 C 
BRANCH  22  27
ATOM     23  C   UNL     1       3.994  -8.344   1.854  0.00  0.00    +0.044 C 
ATOM     24  C   UNL     1       3.033  -7.285   1.379  0.00  0.00    -0.050 A 
ATOM     25  C   UNL     1       2.902  -6.104   2.085  0.00  0.00    +0.004 A 
ATOM     26  C   UNL     1       2.019  -5.133   1.650  0.00  0.00    +0.006 A 
ATOM     27  C   UNL     1       1.268  -5.343   0.508  0.00  0.00    -0.025 A 
ATOM     28  C   UNL     1       1.400  -6.524  -0.198  0.00  0.00    -0.045 A 
ATOM     29  C   UNL     1       2.286  -7.493   0.235  0.00  0.00    +0.007 A 
ATOM     30  C   UNL     1       0.581  -6.753  -1.442  0.00  0.00    +0.044 C 
ENDBRANCH  22  27
ENDBRANCH   1  22
BRANCH  14  31
ATOM     31  C   UNL     1      -2.270  -3.015  -5.728  0.00  0.00    -0.074 C 
BRANCH  31  32
ATOM     32  C   UNL     1      -1.251  -2.004  -6.257  0.00  0.00    +0.016 C 
BRANCH  32  33
ATOM     33  C   UNL     1      -1.825  -1.293  -7.455  0.00  0.00    -0.049 A 
ATOM     34  C   UNL     1      -1.633  -1.809  -8.723  0.00  0.00    +0.003 A 
ATOM     35  C   UNL     1      -2.159  -1.156  -9.822  0.00  0.00    +0.000 A 
ATOM     36  C   UNL     1      -2.877   0.013  -9.653  0.00  0.00    +0.000 A 
ATOM     37  C   UNL     1      -3.070   0.529  -8.385  0.00  0.00    +0.000 A 
ATOM     38  C   UNL     1      -2.547  -0.127  -7.286  0.00  0.00    +0.003 A 
ENDBRANCH  32  33
ENDBRANCH  31  32
ENDBRANCH  14  31
TORSDOF 5
