REMARK  Name = ZINC12870737
REMARK  9 active torsions:
REMARK  status: ('A' for Active; 'I' for Inactive)
REMARK    1  A    between atoms: C_1  and  C_2
REMARK    2  A    between atoms: C_2  and  C_3
REMARK    3  A    between atoms: C_2  and  C_4
REMARK    4  A    between atoms: C_2  and  N_5
REMARK    5  A    between atoms: C_6  and  C_8
REMARK    6  A    between atoms: C_8  and  C_10
REMARK    7  A    between atoms: C_8  and  N_15
REMARK    8  A    between atoms: N_15  and  C_16
REMARK    9  A    between atoms: C_26  and  C_28
REMARK                            x       y       z     vdW  Elec       q    Type
REMARK                         _______ _______ _______ _____ _____    ______ ____
ROOT
ATOM      1  N   UNL     1      -3.327   2.232   0.916  0.00  0.00    -0.246 N 
ATOM      2  C   UNL     1      -3.425   3.556   0.682  0.00  0.00    +0.273 C 
ATOM      3  O   UNL     1      -2.855   4.048  -0.272  0.00  0.00    -0.268 OA
ENDROOT
BRANCH   1   4
ATOM      4  C   UNL     1      -3.981   1.667   2.011  0.00  0.00    +0.046 A 
ATOM      5  C   UNL     1      -3.345   1.575   3.231  0.00  0.00    +0.024 A 
ATOM      6  C   UNL     1      -3.988   1.013   4.329  0.00  0.00    +0.002 A 
ATOM      7  C   UNL     1      -5.261   0.539   4.231  0.00  0.00    +0.008 A 
ATOM      8  C   UNL     1      -5.945   0.613   3.006  0.00  0.00    -0.016 A 
ATOM      9  C   UNL     1      -5.303   1.189   1.882  0.00  0.00    +0.004 A 
ATOM     10  C   UNL     1      -5.986   1.257   0.658  0.00  0.00    +0.010 A 
ATOM     11  C   UNL     1      -7.258   0.781   0.568  0.00  0.00    +0.001 A 
ATOM     12  C   UNL     1      -7.893   0.219   1.674  0.00  0.00    +0.001 A 
ATOM     13  C   UNL     1      -7.259   0.131   2.876  0.00  0.00    +0.008 A 
ENDBRANCH   1   4
BRANCH   2  14
ATOM     14  C   UNL     1      -4.223   4.406   1.583  0.00  0.00    +0.157 A 
ATOM     15  C   UNL     1      -4.372   5.775   1.409  0.00  0.00    +0.101 A 
ATOM     16  S   UNL     1      -5.391   6.171   2.753  0.00  0.00    +0.029 S 
ATOM     17  N   UNL     1      -5.551   4.735   3.388  0.00  0.00    -0.110 NA
ATOM     18  N   UNL     1      -4.877   3.939   2.640  0.00  0.00    -0.136 NA
ENDBRANCH   2  14
BRANCH   1  19
ATOM     19  C   UNL     1      -2.533   1.387   0.021  0.00  0.00    +0.233 C 
BRANCH  19  20
ATOM     20  C   UNL     1      -1.103   1.863   0.017  0.00  0.00    +0.135 A 
ATOM     21  C   UNL     1      -0.013   1.076   0.008  0.00  0.00    +0.047 A 
ATOM     22  C   UNL     1       1.111   1.934   0.002  0.00  0.00    +0.041 A 
ATOM     23  C   UNL     1       0.640   3.193   0.012  0.00  0.00    +0.195 A 
ATOM     24  O   UNL     1      -0.702   3.144   0.024  0.00  0.00    -0.465 OA
ENDBRANCH  19  20
BRANCH  19  26
ATOM     25  N   UNL     1      -2.521   0.769  -2.374  0.00  0.00    -0.309 N 
ATOM     26  C   UNL     1      -3.094   1.469  -1.376  0.00  0.00    +0.242 C 
ATOM     27  O   UNL     1      -4.061   2.165  -1.601  0.00  0.00    -0.273 OA
ATOM     28  H   UNL     1      -1.747   0.212  -2.195  0.00  0.00    +0.149 HD
BRANCH  25  30
ATOM     29  C   UNL     1      -3.012   2.299  -4.218  0.00  0.00    +0.031 C 
ATOM     30  C   UNL     1      -3.066   0.849  -3.732  0.00  0.00    +0.026 C 
ATOM     31  C   UNL     1      -2.237  -0.034  -4.667  0.00  0.00    +0.031 C 
ATOM     32  C   UNL     1      -4.518   0.366  -3.728  0.00  0.00    +0.031 C 
ENDBRANCH  25  30
ENDBRANCH  19  26
ENDBRANCH   1  19
TORSDOF 6
