REMARK  Name = ZINC42014953
REMARK  3 active torsions:
REMARK  status: ('A' for Active; 'I' for Inactive)
REMARK    1  A    between atoms: C_6  and  N_7
REMARK    2  A    between atoms: C_8  and  C_12
REMARK    3  A    between atoms: C_17  and  N_18
REMARK                            x       y       z     vdW  Elec       q    Type
REMARK                         _______ _______ _______ _____ _____    ______ ____
ROOT
ATOM      1  N   UNL     1      -1.192  -0.739   0.033  0.00  0.00    -0.193 N 
ATOM      2  C   UNL     1      -1.494  -1.860  -0.685  0.00  0.00    +0.189 A 
ATOM      3  N   UNL     1      -2.743  -2.171  -0.401  0.00  0.00    -0.108 NA
ATOM      4  N   UNL     1      -3.236  -1.332   0.436  0.00  0.00    -0.022 NA
ATOM      5  N   UNL     1      -2.361  -0.440   0.753  0.00  0.00    -0.039 NA
ENDROOT
BRANCH   1  11
ATOM      6  C   UNL     1       0.715   0.185  -1.129  0.00  0.00    +0.029 A 
ATOM      7  C   UNL     1       1.913   0.873  -1.108  0.00  0.00    +0.023 A 
ATOM      8  C   UNL     1       2.425   1.336   0.091  0.00  0.00    +0.059 A 
ATOM      9  C   UNL     1       1.738   1.111   1.273  0.00  0.00    +0.061 A 
ATOM     10  C   UNL     1       0.539   0.423   1.256  0.00  0.00    +0.049 A 
ATOM     11  C   UNL     1       0.024  -0.042   0.053  0.00  0.00    +0.071 A 
ATOM     12 CL   UNL     1       2.383   1.692   2.776  0.00  0.00    -0.082 Cl
ATOM     13 CL   UNL     1       3.930   2.200   0.115  0.00  0.00    -0.082 Cl
ENDBRANCH   1  11
BRANCH   2  14
ATOM     14  C   UNL     1      -0.594  -2.585  -1.606  0.00  0.00    +0.044 A 
ATOM     15  C   UNL     1       0.698  -2.922  -1.202  0.00  0.00    +0.051 A 
ATOM     16  C   UNL     1       1.535  -3.600  -2.067  0.00  0.00    +0.124 A 
ATOM     17  C   UNL     1       1.096  -3.947  -3.336  0.00  0.00    +0.040 A 
ATOM     18  C   UNL     1      -0.181  -3.618  -3.747  0.00  0.00    +0.026 A 
ATOM     19  C   UNL     1      -1.036  -2.942  -2.887  0.00  0.00    +0.036 A 
ATOM     20  F   UNL     1       2.786  -3.926  -1.676  0.00  0.00    -0.205 F 
BRANCH  19  21
ATOM     21  N   UNL     1      -2.327  -2.614  -3.299  0.00  0.00    -0.357 N 
ATOM     22  H   UNL     1      -2.921  -2.138  -2.698  0.00  0.00    +0.142 HD
ATOM     23  H   UNL     1      -2.631  -2.862  -4.186  0.00  0.00    +0.142 HD
ENDBRANCH  19  21
ENDBRANCH   2  14
TORSDOF 3
