REMARK  Name = ZINC39893283
REMARK  7 active torsions:
REMARK  status: ('A' for Active; 'I' for Inactive)
REMARK    1  A    between atoms: C_1  and  C_2
REMARK    2  A    between atoms: C_2  and  C_3
REMARK    3  A    between atoms: C_9  and  C_12
REMARK    4  A    between atoms: C_12  and  C_13
REMARK    5  A    between atoms: N_15  and  N_16
REMARK    6  A    between atoms: C_17  and  C_19
REMARK    7  A    between atoms: C_22  and  N_25
REMARK                            x       y       z     vdW  Elec       q    Type
REMARK                         _______ _______ _______ _____ _____    ______ ____
ROOT
ATOM      1  C   UNL     1       5.395  -2.673  -0.968  0.00  0.00    +0.234 C 
ATOM      2  O   UNL     1       4.582  -3.559  -1.131  0.00  0.00    -0.274 OA
ATOM      3  N   UNL     1       6.391  -2.828  -0.073  0.00  0.00    -0.234 N 
ATOM      4  H   UNL     1       7.041  -2.120   0.057  0.00  0.00    +0.173 HD
ENDROOT
BRANCH   3   5
ATOM      5  N   UNL     1       6.487  -4.012   0.670  0.00  0.00    -0.230 N 
ATOM      6  C   UNL     1       7.482  -4.167   1.565  0.00  0.00    +0.260 C 
ATOM      7  O   UNL     1       8.297  -3.279   1.728  0.00  0.00    -0.269 OA
ATOM      8  H   UNL     1       5.837  -4.720   0.540  0.00  0.00    +0.173 HD
BRANCH   6   9
ATOM      9  C   UNL     1       7.584  -5.416   2.349  0.00  0.00    +0.038 A 
ATOM     10  C   UNL     1       6.654  -6.439   2.161  0.00  0.00    +0.015 A 
ATOM     11  C   UNL     1       6.755  -7.603   2.895  0.00  0.00    +0.033 A 
ATOM     12  C   UNL     1       7.774  -7.756   3.817  0.00  0.00    +0.126 A 
ATOM     13  C   UNL     1       8.700  -6.745   4.009  0.00  0.00    +0.033 A 
ATOM     14  C   UNL     1       8.614  -5.579   3.277  0.00  0.00    +0.015 A 
BRANCH  12  15
ATOM     15  N   UNL     1       7.876  -9.007   4.603  0.00  0.00    +0.056 N 
ATOM     16  O   UNL     1       7.069  -9.891   4.438  0.00  0.00    -0.126 OA
ATOM     17  O   UNL     1       8.766  -9.143   5.409  0.00  0.00    -0.126 OA
ENDBRANCH  12  15
ENDBRANCH   6   9
ENDBRANCH   3   5
BRANCH   1  18
ATOM     18  C   UNL     1       5.292  -1.400  -1.767  0.00  0.00    +0.136 C 
BRANCH  18  25
ATOM     19  C   UNL     1       0.707  -0.490  -1.238  0.00  0.00    -0.047 A 
ATOM     20  C   UNL     1      -0.017  -0.718  -2.399  0.00  0.00    +0.007 A 
ATOM     21  C   UNL     1       0.609  -1.163  -3.543  0.00  0.00    +0.047 A 
ATOM     22  C   UNL     1       1.980  -1.386  -3.538  0.00  0.00    +0.135 A 
ATOM     23  C   UNL     1       2.709  -1.153  -2.360  0.00  0.00    +0.024 A 
ATOM     24  C   UNL     1       2.059  -0.698  -1.213  0.00  0.00    +0.015 A 
ATOM     25  C   UNL     1       4.101  -1.480  -2.688  0.00  0.00    +0.007 A 
ATOM     26  C   UNL     1       4.102  -1.864  -3.972  0.00  0.00    +0.200 A 
ATOM     27  O   UNL     1       2.855  -1.809  -4.473  0.00  0.00    -0.463 OA
BRANCH  19  29
ATOM     28  C   UNL     1      -0.019   1.526   0.010  0.00  0.00    +0.009 C 
ATOM     29  C   UNL     1       0.002  -0.004   0.002  0.00  0.00    +0.032 C 
ENDBRANCH  19  29
ENDBRANCH  18  25
ENDBRANCH   1  18
TORSDOF 6
