REMARK  Name = ZINC13063961
REMARK  10 active torsions:
REMARK  status: ('A' for Active; 'I' for Inactive)
REMARK    1  A    between atoms: C_1  and  C_2
REMARK    2  A    between atoms: C_2  and  C_3
REMARK    3  A    between atoms: C_3  and  C_5
REMARK    4  A    between atoms: C_3  and  N_66
REMARK    5  A    between atoms: N_9  and  C_10
REMARK    6  A    between atoms: C_10  and  C_11
REMARK    7  A    between atoms: C_16  and  C_17
REMARK    8  A    between atoms: C_16  and  N_66
REMARK    9  A    between atoms: C_22  and  C_29
REMARK   10  A    between atoms: C_30  and  N_66
REMARK                            x       y       z     vdW  Elec       q    Type
REMARK                         _______ _______ _______ _____ _____    ______ ____
ROOT
ATOM      1  N   UNL     1      -3.074   0.328  -1.475  0.00  0.00    +0.391 N 
ATOM      2  H   UNL     1      -2.889   1.134  -2.084  0.00  0.00    -0.080 HD
ENDROOT
BRANCH   1   3
ATOM      3  C   UNL     1      -2.481  -0.881  -2.085  0.00  0.00    -0.067 C 
ATOM      4  C   UNL     1      -2.686  -2.095  -1.178  0.00  0.00    -0.015 C 
ATOM      5  C   UNL     1      -2.063  -3.331  -1.831  0.00  0.00    -0.002 C 
ATOM      6  C   UNL     1      -0.566  -3.097  -2.040  0.00  0.00    -0.000 C 
ATOM      7  C   UNL     1      -0.361  -1.883  -2.948  0.00  0.00    -0.002 C 
ATOM      8  C   UNL     1      -0.984  -0.647  -2.295  0.00  0.00    -0.015 C 
ENDBRANCH   1   3
BRANCH   1   9
ATOM      9  C   UNL     1      -4.535   0.158  -1.334  0.00  0.00    +0.003 C 
BRANCH   9  10
ATOM     10  C   UNL     1      -4.862  -0.507  -0.021  0.00  0.00    +0.139 A 
ATOM     11  N   UNL     1      -4.165  -1.441   0.578  0.00  0.00    -0.115 NA
ATOM     12  N   UNL     1      -4.769  -1.747   1.674  0.00  0.00    -0.023 NA
ATOM     13  N   UNL     1      -5.837  -1.037   1.786  0.00  0.00    -0.044 NA
ATOM     14  N   UNL     1      -5.930  -0.260   0.760  0.00  0.00    -0.223 N 
BRANCH  14  15
ATOM     15  C   UNL     1      -6.997   0.708   0.496  0.00  0.00    +0.221 C 
BRANCH  15  16
ATOM     16  C   UNL     1      -8.099   0.040  -0.285  0.00  0.00    +0.126 A 
ATOM     17  C   UNL     1      -9.161  -0.597   0.240  0.00  0.00    +0.046 A 
ATOM     18  C   UNL     1      -9.935  -1.066  -0.845  0.00  0.00    +0.041 A 
ATOM     19  C   UNL     1      -9.296  -0.694  -1.969  0.00  0.00    +0.195 A 
ATOM     20  O   UNL     1      -8.185  -0.024  -1.624  0.00  0.00    -0.466 OA
ENDBRANCH  15  16
ENDBRANCH  14  15
ENDBRANCH   9  10
BRANCH   9  22
ATOM     21  C   UNL     1      -4.856   0.040  -3.809  0.00  0.00    +0.002 C 
ATOM     22  C   UNL     1      -5.061  -0.701  -2.486  0.00  0.00    -0.011 C 
ENDBRANCH   9  22
ENDBRANCH   1   9
BRANCH   1  23
ATOM     23  C   UNL     1      -2.463   0.577  -0.152  0.00  0.00    -0.036 C 
BRANCH  23  24
ATOM     24  C   UNL     1      -2.877   1.946   0.323  0.00  0.00    +0.001 A 
ATOM     25  C   UNL     1      -3.950   2.083   1.139  0.00  0.00    +0.017 A 
ATOM     26  C   UNL     1      -4.330   3.427   1.577  0.00  0.00    -0.001 A 
ATOM     27  C   UNL     1      -5.432   3.631   2.414  0.00  0.00    +0.010 A 
ATOM     28  C   UNL     1      -5.760   4.898   2.805  0.00  0.00    +0.004 A 
ATOM     29  C   UNL     1      -5.009   5.986   2.379  0.00  0.00    -0.048 A 
ATOM     30  C   UNL     1      -3.919   5.808   1.555  0.00  0.00    +0.029 A 
ATOM     31  C   UNL     1      -3.566   4.527   1.144  0.00  0.00    +0.049 A 
ATOM     32  N   UNL     1      -2.481   4.320   0.319  0.00  0.00    -0.322 N 
ATOM     33  H   UNL     1      -1.955   5.079   0.021  0.00  0.00    +0.169 HD
ATOM     34  C   UNL     1      -2.140   3.082  -0.079  0.00  0.00    +0.251 A 
ATOM     35  O   UNL     1      -1.175   2.936  -0.808  0.00  0.00    -0.268 OA
ATOM     36  C   UNL     1      -5.389   7.375   2.824  0.00  0.00    +0.044 C 
ENDBRANCH  23  24
ENDBRANCH   1  23
TORSDOF 8
