REMARK  Name = ZINC38673074
REMARK  9 active torsions:
REMARK  status: ('A' for Active; 'I' for Inactive)
REMARK    1  A    between atoms: C_1  and  N_2
REMARK    2  A    between atoms: N_5  and  C_8
REMARK    3  A    between atoms: C_8  and  C_10
REMARK    4  A    between atoms: C_8  and  C_29
REMARK    5  A    between atoms: C_10  and  N_11
REMARK    6  A    between atoms: C_12  and  C_14
REMARK    7  A    between atoms: C_17  and  S_20
REMARK    8  A    between atoms: S_20  and  N_23
REMARK    9  A    between atoms: N_38  and  C_39
REMARK                            x       y       z     vdW  Elec       q    Type
REMARK                         _______ _______ _______ _____ _____    ______ ____
ROOT
ATOM      1  C   UNL     1       1.470  -3.956  -0.035  0.00  0.00    +0.104 C 
ENDROOT
BRANCH   1   2
ATOM      2  C   UNL     1       2.221  -4.369   1.204  0.00  0.00    -0.028 A 
ATOM      3  C   UNL     1       1.978  -3.727   2.405  0.00  0.00    +0.007 A 
ATOM      4  C   UNL     1       2.668  -4.105   3.539  0.00  0.00    +0.024 A 
ATOM      5  C   UNL     1       3.605  -5.130   3.475  0.00  0.00    +0.033 A 
ATOM      6  C   UNL     1       3.846  -5.776   2.272  0.00  0.00    -0.026 A 
ATOM      7  C   UNL     1       3.147  -5.392   1.140  0.00  0.00    +0.010 A 
ATOM      8  C   UNL     1       4.846  -6.897   2.167  0.00  0.00    +0.038 C 
ATOM      9  C   UNL     1       5.837  -6.841   3.330  0.00  0.00    +0.024 C 
ATOM     10  C   UNL     1       5.053  -6.754   4.646  0.00  0.00    +0.105 C 
ATOM     11  N   UNL     1       4.297  -5.495   4.636  0.00  0.00    -0.333 N 
ATOM     12  C   UNL     1       4.267  -4.634   5.821  0.00  0.00    +0.129 C 
ENDBRANCH   1   2
BRANCH   1  17
ATOM     13  C   UNL     1       4.304   0.807  -1.049  0.00  0.00    -0.096 C 
ATOM     14  N   UNL     1       3.829  -0.484  -0.535  0.00  0.00    +0.379 N 
ATOM     15  C   UNL     1       2.474  -0.326   0.010  0.00  0.00    -0.064 C 
ATOM     16  C   UNL     1       1.987  -1.667   0.564  0.00  0.00    +0.066 C 
ATOM     17  N   UNL     1       1.986  -2.667  -0.513  0.00  0.00    -0.297 NA
ATOM     18  C   UNL     1       3.332  -2.818  -1.086  0.00  0.00    +0.066 C 
ATOM     19  C   UNL     1       3.808  -1.468  -1.625  0.00  0.00    -0.064 C 
ATOM     20  H   UNL     1       4.449  -0.804   0.194  0.00  0.00    -0.082 HD
ENDBRANCH   1  17
BRANCH   1  21
ATOM     21  C   UNL     1      -0.018  -3.819   0.293  0.00  0.00    +0.128 C 
BRANCH  21  22
ATOM     22  N   UNL     1      -0.736  -3.334  -0.888  0.00  0.00    -0.310 N 
ATOM     23  C   UNL     1      -2.079  -3.226  -0.863  0.00  0.00    +0.244 C 
ATOM     24  O   UNL     1      -2.695  -3.531   0.139  0.00  0.00    -0.270 OA
ATOM     25  H   UNL     1      -0.245  -3.091  -1.688  0.00  0.00    +0.149 HD
BRANCH  23  26
ATOM     26  C   UNL     1      -2.804  -2.737  -2.056  0.00  0.00    +0.037 A 
ATOM     27  C   UNL     1      -2.100  -2.392  -3.211  0.00  0.00    +0.015 A 
ATOM     28  C   UNL     1      -2.782  -1.936  -4.320  0.00  0.00    +0.029 A 
ATOM     29  C   UNL     1      -4.161  -1.821  -4.289  0.00  0.00    +0.106 A 
ATOM     30  C   UNL     1      -4.864  -2.161  -3.147  0.00  0.00    +0.029 A 
ATOM     31  C   UNL     1      -4.195  -2.624  -2.033  0.00  0.00    +0.015 A 
BRANCH  29  32
ATOM     32  S   UNL     1      -5.024  -1.238  -5.710  0.00  0.00    +0.061 S 
ATOM     33  O   UNL     1      -6.256  -0.703  -5.246  0.00  0.00    -0.153 OA
ATOM     34  O   UNL     1      -4.095  -0.469  -6.463  0.00  0.00    -0.153 OA
BRANCH  32  35
ATOM     35  N   UNL     1      -5.400  -2.561  -6.632  0.00  0.00    -0.177 NA
ATOM     36  C   UNL     1      -4.470  -3.044  -7.662  0.00  0.00    +0.109 C 
ATOM     37  C   UNL     1      -4.196  -4.532  -7.420  0.00  0.00    +0.017 C 
ATOM     38  C   UNL     1      -5.524  -5.290  -7.367  0.00  0.00    +0.003 C 
ATOM     39  C   UNL     1      -6.370  -4.760  -6.207  0.00  0.00    +0.017 C 
ATOM     40  C   UNL     1      -6.666  -3.278  -6.431  0.00  0.00    +0.109 C 
ENDBRANCH  32  35
ENDBRANCH  29  32
ENDBRANCH  23  26
ENDBRANCH  21  22
ENDBRANCH   1  21
TORSDOF 7
