REMARK  Name = ZINC52426235
REMARK  8 active torsions:
REMARK  status: ('A' for Active; 'I' for Inactive)
REMARK    1  A    between atoms: C_1  and  C_2
REMARK    2  A    between atoms: C_2  and  C_3
REMARK    3  A    between atoms: C_2  and  C_4
REMARK    4  A    between atoms: C_2  and  N_37
REMARK    5  A    between atoms: N_6  and  C_7
REMARK    6  A    between atoms: C_7  and  C_9
REMARK    7  A    between atoms: C_7  and  C_19
REMARK    8  A    between atoms: C_9  and  C_10
REMARK                            x       y       z     vdW  Elec       q    Type
REMARK                         _______ _______ _______ _____ _____    ______ ____
ROOT
ATOM      1  C   UNL     1      -3.057  -2.256  -0.474  0.00  0.00    +0.163 C 
ENDROOT
BRANCH   1   2
ATOM      2  C   UNL     1      -3.558  -2.321   0.946  0.00  0.00    +0.236 C 
ATOM      3  O   UNL     1      -3.017  -1.664   1.810  0.00  0.00    -0.274 OA
ATOM      4  N   UNL     1      -4.606  -3.110   1.255  0.00  0.00    -0.300 N 
ATOM      5  C   UNL     1      -5.267  -3.916   0.220  0.00  0.00    +0.109 C 
ATOM      6  C   UNL     1      -5.308  -5.375   0.682  0.00  0.00    +0.032 C 
ATOM      7  C   UNL     1      -5.974  -5.451   2.059  0.00  0.00    +0.020 C 
ATOM      8  C   UNL     1      -5.151  -4.646   3.070  0.00  0.00    +0.032 C 
ATOM      9  C   UNL     1      -5.105  -3.183   2.635  0.00  0.00    +0.109 C 
ATOM     10  C   UNL     1      -7.383  -4.822   1.961  0.00  0.00    +0.183 C 
ATOM     11  S   UNL     1      -8.274  -5.876   3.178  0.00  0.00    -0.002 S 
ATOM     12  O   UNL     1      -9.519  -6.318   2.656  0.00  0.00    -0.169 OA
ATOM     13  O   UNL     1      -8.168  -5.341   4.490  0.00  0.00    -0.169 OA
ATOM     14  C   UNL     1      -7.200  -7.294   3.142  0.00  0.00    +0.092 A 
ATOM     15  C   UNL     1      -6.037  -6.893   2.505  0.00  0.00    -0.015 A 
ATOM     16  C   UNL     1      -5.036  -7.856   2.339  0.00  0.00    +0.006 A 
ATOM     17  C   UNL     1      -5.202  -9.141   2.801  0.00  0.00    +0.000 A 
ATOM     18  C   UNL     1      -6.367  -9.514   3.444  0.00  0.00    +0.002 A 
ATOM     19  C   UNL     1      -7.370  -8.576   3.611  0.00  0.00    +0.027 A 
ENDBRANCH   1   2
BRANCH   1  22
ATOM     20  C   UNL     1      -1.412  -0.526   0.013  0.00  0.00    +0.202 C 
ATOM     21  O   UNL     1      -2.306   0.155   0.469  0.00  0.00    -0.277 OA
ATOM     22  N   UNL     1      -1.683  -1.749  -0.485  0.00  0.00    -0.305 N 
ATOM     23  H   UNL     1      -0.968  -2.293  -0.849  0.00  0.00    +0.149 HD
BRANCH  20  25
ATOM     24  C   UNL     1      -0.019   1.526   0.010  0.00  0.00    -0.001 C 
ATOM     25  C   UNL     1       0.002  -0.004   0.002  0.00  0.00    +0.001 C 
ATOM     26  C   UNL     1       0.742  -0.511   1.242  0.00  0.00    -0.001 C 
BRANCH  25  27
ATOM     27  N   UNL     1       0.690  -0.478  -1.207  0.00  0.00    +0.387 N 
ATOM     28  H   UNL     1       1.636  -0.129  -1.214  0.00  0.00    -0.089 HD
ATOM     29  H   UNL     1       0.703  -1.487  -1.212  0.00  0.00    -0.089 HD
ATOM     30  H   UNL     1       0.202  -0.144  -2.024  0.00  0.00    -0.089 HD
ENDBRANCH  25  27
ENDBRANCH  20  25
ENDBRANCH   1  22
BRANCH   1  31
ATOM     31  C   UNL     1      -3.952  -1.319  -1.288  0.00  0.00    +0.065 C 
BRANCH  31  32
ATOM     32  C   UNL     1      -3.527  -1.349  -2.734  0.00  0.00    -0.039 C 
ATOM     33  C   UNL     1      -4.052  -2.111  -3.720  0.00  0.00    -0.001 A 
ATOM     34  C   UNL     1      -5.133  -3.104  -3.741  0.00  0.00    +0.010 A 
ATOM     35  C   UNL     1      -5.437  -3.718  -4.907  0.00  0.00    +0.001 A 
ATOM     36  C   UNL     1      -4.747  -3.431  -6.093  0.00  0.00    +0.002 A 
ATOM     37  C   UNL     1      -3.742  -2.531  -6.153  0.00  0.00    +0.026 A 
ATOM     38  C   UNL     1      -3.339  -1.825  -4.986  0.00  0.00    +0.043 A 
ATOM     39  N   UNL     1      -2.410  -0.922  -4.789  0.00  0.00    -0.380 N 
ATOM     40  C   UNL     1      -2.433  -0.527  -3.376  0.00  0.00    +0.144 C 
ATOM     41  H   UNL     1      -1.811  -0.570  -5.466  0.00  0.00    +0.160 HD
ENDBRANCH  31  32
ENDBRANCH   1  31
TORSDOF 6
