REMARK  Name = ZINC35539422
REMARK  8 active torsions:
REMARK  status: ('A' for Active; 'I' for Inactive)
REMARK    1  A    between atoms: C_1  and  C_2
REMARK    2  A    between atoms: C_5  and  N_9
REMARK    3  A    between atoms: C_7  and  C_8
REMARK    4  A    between atoms: N_9  and  S_10
REMARK    5  A    between atoms: S_10  and  C_13
REMARK    6  A    between atoms: C_15  and  C_19
REMARK    7  A    between atoms: C_17  and  C_18
REMARK    8  A    between atoms: C_21  and  C_24
REMARK                            x       y       z     vdW  Elec       q    Type
REMARK                         _______ _______ _______ _____ _____    ______ ____
ROOT
ATOM      1  C   UNL     1       0.087  -6.708  -1.079  0.00  0.00    +0.121 A 
ATOM      2  C   UNL     1      -0.978  -7.512  -1.417  0.00  0.00    +0.048 A 
ATOM      3  C   UNL     1      -0.922  -8.844  -1.105  0.00  0.00    +0.062 A 
ATOM      4  S   UNL     1       0.672  -8.970  -0.312  0.00  0.00    -0.088 S 
ATOM      5  C   UNL     1       1.159  -7.258  -0.452  0.00  0.00    +0.014 A 
ATOM      6  C   UNL     1       2.431  -6.594   0.009  0.00  0.00    +0.053 C 
ENDROOT
BRANCH   3   7
ATOM      7  C   UNL     1      -1.922  -9.902  -1.358  0.00  0.00    +0.209 A 
ATOM      8  N   UNL     1      -1.799 -11.199  -1.014  0.00  0.00    -0.191 NA
ATOM      9  C   UNL     1      -2.859 -11.860  -1.383  0.00  0.00    +0.231 A 
ATOM     10  O   UNL     1      -3.705 -11.010  -1.979  0.00  0.00    -0.337 OA
ATOM     11  N   UNL     1      -3.082  -9.735  -1.950  0.00  0.00    -0.056 NA
BRANCH   9  12
ATOM     12  C   UNL     1      -3.093 -13.334  -1.174  0.00  0.00    +0.078 C 
ATOM     13  C   UNL     1      -4.311 -13.959  -1.858  0.00  0.00    +0.014 C 
ATOM     14  C   UNL     1      -4.310 -13.745  -0.343  0.00  0.00    +0.014 C 
ENDBRANCH   9  12
ENDBRANCH   3   7
BRANCH   1  15
ATOM     15  S   UNL     1       0.062  -4.987  -1.460  0.00  0.00    +0.092 S 
ATOM     16  O   UNL     1      -1.190  -4.727  -2.079  0.00  0.00    -0.148 OA
ATOM     17  O   UNL     1       1.300  -4.694  -2.091  0.00  0.00    -0.148 OA
BRANCH  15  18
ATOM     18  N   UNL     1       0.058  -4.167  -0.021  0.00  0.00    -0.098 NA
BRANCH  18  23
ATOM     19  C   UNL     1      -0.018   1.503   0.010  0.00  0.00    +0.044 C 
ATOM     20  C   UNL     1       0.002  -0.004   0.002  0.00  0.00    -0.047 A 
ATOM     21  C   UNL     1       0.006  -0.687  -1.200  0.00  0.00    +0.005 A 
ATOM     22  C   UNL     1       0.024  -2.068  -1.212  0.00  0.00    +0.027 A 
ATOM     23  C   UNL     1       0.040  -2.771  -0.013  0.00  0.00    +0.075 A 
ATOM     24  C   UNL     1       0.036  -2.081   1.192  0.00  0.00    +0.030 A 
ATOM     25  C   UNL     1       0.023  -0.700   1.196  0.00  0.00    -0.046 A 
ATOM     26  C   UNL     1       0.025   0.049   2.504  0.00  0.00    +0.044 C 
ENDBRANCH  18  23
ENDBRANCH  15  18
ENDBRANCH   1  15
TORSDOF 5
