REMARK  Name = ZINC12888346
REMARK  5 active torsions:
REMARK  status: ('A' for Active; 'I' for Inactive)
REMARK    1  A    between atoms: C_1  and  C_2
REMARK    2  A    between atoms: C_2  and  C_4
REMARK    3  A    between atoms: C_2  and  O_15
REMARK    4  A    between atoms: O_15  and  C_16
REMARK    5  A    between atoms: C_19  and  C_22
REMARK                            x       y       z     vdW  Elec       q    Type
REMARK                         _______ _______ _______ _____ _____    ______ ____
ROOT
ATOM      1  C   UNL     1      -0.012   1.031   0.158  0.00  0.00    +0.259 C 
ATOM      2  O   UNL     1       0.079  -0.161  -0.045  0.00  0.00    -0.271 OA
ATOM      3  N   UNL     1      -1.224   1.593   0.336  0.00  0.00    -0.262 N 
ATOM      4  C   UNL     1      -2.369   0.807   0.286  0.00  0.00    +0.165 A 
ATOM      5  N   UNL     1      -2.475  -0.485   0.074  0.00  0.00    -0.229 NA
ATOM      6  C   UNL     1      -3.660  -1.113   0.059  0.00  0.00    +0.054 A 
ATOM      7  C   UNL     1      -4.746  -0.332   0.265  0.00  0.00    +0.014 A 
ATOM      8  S   UNL     1      -4.029   1.280   0.480  0.00  0.00    -0.057 S 
ATOM      9  C   UNL     1      -6.024  -1.115   0.228  0.00  0.00    +0.045 C 
ATOM     10  C   UNL     1      -5.583  -2.587   0.396  0.00  0.00    +0.011 C 
ATOM     11  C   UNL     1      -4.141  -2.550  -0.147  0.00  0.00    +0.056 C 
ATOM     12  H   UNL     1      -1.297   2.547   0.498  0.00  0.00    +0.157 HD
ENDROOT
BRANCH   1  14
ATOM     13  C   UNL     1       1.151   2.959  -0.881  0.00  0.00    +0.062 C 
ATOM     14  C   UNL     1       1.229   1.885   0.206  0.00  0.00    +0.256 C 
BRANCH  14  15
ATOM     15  O   UNL     1       2.379   1.066  -0.015  0.00  0.00    -0.480 OA
BRANCH  15  16
ATOM     16  C   UNL     1       3.559   1.512   0.487  0.00  0.00    +0.122 A 
ATOM     17  C   UNL     1       4.691   0.710   0.413  0.00  0.00    +0.047 A 
ATOM     18  C   UNL     1       5.891   1.161   0.916  0.00  0.00    +0.022 A 
ATOM     19  C   UNL     1       5.967   2.423   1.512  0.00  0.00    +0.052 A 
ATOM     20  C   UNL     1       4.824   3.224   1.590  0.00  0.00    +0.022 A 
ATOM     21  C   UNL     1       3.629   2.767   1.080  0.00  0.00    +0.047 A 
BRANCH  19  22
ATOM     22  C   UNL     1       7.211   2.894   2.042  0.00  0.00    +0.099 C 
ATOM     23  N   UNL     1       8.198   3.267   2.461  0.00  0.00    -0.191 NA
ENDBRANCH  19  22
ENDBRANCH  15  16
ENDBRANCH  14  15
ENDBRANCH   1  14
TORSDOF 4
