REMARK  Name = ZINC22734851
REMARK  11 active torsions:
REMARK  status: ('A' for Active; 'I' for Inactive)
REMARK    1  A    between atoms: C_1  and  C_2
REMARK    2  A    between atoms: C_2  and  C_3
REMARK    3  A    between atoms: C_2  and  C_4
REMARK    4  A    between atoms: C_2  and  C_5
REMARK    5  A    between atoms: C_8  and  C_11
REMARK    6  A    between atoms: N_13  and  C_14
REMARK    7  A    between atoms: C_14  and  C_15
REMARK    8  A    between atoms: C_15  and  C_17
REMARK    9  A    between atoms: C_15  and  N_28
REMARK   10  A    between atoms: N_26  and  C_27
REMARK   11  A    between atoms: N_31  and  C_34
REMARK                            x       y       z     vdW  Elec       q    Type
REMARK                         _______ _______ _______ _____ _____    ______ ____
ROOT
ATOM      1  C   UNL     1       3.047  -2.199   4.212  0.00  0.00    +0.104 C 
ENDROOT
BRANCH   1   2
ATOM      2  C   UNL     1       2.358  -1.335   3.187  0.00  0.00    -0.028 A 
ATOM      3  C   UNL     1       1.075  -1.643   2.772  0.00  0.00    +0.007 A 
ATOM      4  C   UNL     1       0.448  -0.854   1.832  0.00  0.00    +0.024 A 
ATOM      5  C   UNL     1       1.099   0.258   1.294  0.00  0.00    +0.033 A 
ATOM      6  C   UNL     1       2.381   0.564   1.717  0.00  0.00    -0.026 A 
ATOM      7  C   UNL     1       3.006  -0.236   2.660  0.00  0.00    +0.010 A 
ATOM      8  C   UNL     1       3.132   1.759   1.188  0.00  0.00    +0.038 C 
ATOM      9  C   UNL     1       2.454   2.272  -0.085  0.00  0.00    +0.024 C 
ATOM     10  C   UNL     1       0.948   2.366   0.188  0.00  0.00    +0.105 C 
ATOM     11  N   UNL     1       0.414   1.011   0.342  0.00  0.00    -0.333 N 
ATOM     12  C   UNL     1      -1.026   1.043   0.632  0.00  0.00    +0.129 C 
ENDBRANCH   1   2
BRANCH   1  13
ATOM     13  N   UNL     1       3.302  -3.528   3.640  0.00  0.00    -0.297 NA
ATOM     14  C   UNL     1       3.674  -3.429   2.222  0.00  0.00    +0.066 C 
ATOM     15  C   UNL     1       4.008  -4.823   1.686  0.00  0.00    -0.064 C 
ATOM     16  N   UNL     1       2.845  -5.704   1.862  0.00  0.00    +0.379 N 
ATOM     17  C   UNL     1       2.473  -5.803   3.280  0.00  0.00    -0.064 C 
ATOM     18  C   UNL     1       2.139  -4.409   3.816  0.00  0.00    +0.066 C 
ATOM     19  C   UNL     1       3.100  -7.033   1.290  0.00  0.00    -0.096 C 
ATOM     20  H   UNL     1       1.998  -5.260   1.318  0.00  0.00    -0.082 HD
ENDBRANCH   1  13
BRANCH   1  21
ATOM     21  C   UNL     1       2.154  -2.338   5.446  0.00  0.00    +0.128 C 
BRANCH  21  24
ATOM     22  C   UNL     1       2.202  -3.485   7.595  0.00  0.00    +0.244 C 
ATOM     23  O   UNL     1       1.058  -3.118   7.783  0.00  0.00    -0.270 OA
ATOM     24  N   UNL     1       2.839  -3.147   6.457  0.00  0.00    -0.310 N 
ATOM     25  H   UNL     1       3.874  -3.478   6.286  0.00  0.00    +0.149 HD
BRANCH  22  29
ATOM     26  C   UNL     1       4.189  -5.831  10.525  0.00  0.00    -0.042 A 
ATOM     27  C   UNL     1       2.888  -5.415  10.743  0.00  0.00    +0.005 A 
ATOM     28  C   UNL     1       2.237  -4.653   9.795  0.00  0.00    +0.013 A 
ATOM     29  C   UNL     1       2.894  -4.301   8.615  0.00  0.00    +0.037 A 
ATOM     30  C   UNL     1       4.205  -4.728   8.400  0.00  0.00    +0.013 A 
ATOM     31  C   UNL     1       4.846  -5.486   9.357  0.00  0.00    +0.005 A 
BRANCH  26  33
ATOM     32  C   UNL     1       4.120  -7.965  11.787  0.00  0.00    +0.015 C 
ATOM     33  C   UNL     1       4.894  -6.664  11.565  0.00  0.00    -0.013 C 
ATOM     34  C   UNL     1       6.310  -6.989  11.084  0.00  0.00    +0.015 C 
ATOM     35  C   UNL     1       4.969  -5.884  12.879  0.00  0.00    +0.015 C 
ENDBRANCH  26  33
ENDBRANCH  22  29
ENDBRANCH  21  24
ENDBRANCH   1  21
TORSDOF 6
