REMARK  Name = ZINC27576147
REMARK  9 active torsions:
REMARK  status: ('A' for Active; 'I' for Inactive)
REMARK    1  A    between atoms: C_3  and  C_6
REMARK    2  A    between atoms: C_6  and  N_7
REMARK    3  A    between atoms: N_7  and  C_8
REMARK    4  A    between atoms: N_7  and  C_21
REMARK    5  A    between atoms: C_8  and  C_9
REMARK    6  A    between atoms: C_12  and  C_15
REMARK    7  A    between atoms: N_17  and  C_18
REMARK    8  A    between atoms: C_21  and  C_22
REMARK    9  A    between atoms: C_24  and  C_27
REMARK                            x       y       z     vdW  Elec       q    Type
REMARK                         _______ _______ _______ _____ _____    ______ ____
ROOT
ATOM      1  N   UNL     1       1.125  -2.504  -1.650  0.00  0.00    +0.393 N 
ATOM      2  H   UNL     1       0.362  -2.046  -2.296  0.00  0.00    -0.080 HD
ENDROOT
BRANCH   1   3
ATOM      3  C   UNL     1       2.444  -2.087  -2.144  0.00  0.00    -0.002 C 
BRANCH   3   6
ATOM      4  C   UNL     1       2.342  -1.883  -5.823  0.00  0.00    +0.041 A 
ATOM      5  C   UNL     1       2.140  -1.314  -4.545  0.00  0.00    +0.042 A 
ATOM      6  C   UNL     1       2.493  -2.247  -3.642  0.00  0.00    +0.089 A 
ATOM      7  O   UNL     1       2.902  -3.342  -4.302  0.00  0.00    -0.470 OA
ATOM      8  C   UNL     1       2.808  -3.130  -5.625  0.00  0.00    +0.195 A 
ENDBRANCH   3   6
ENDBRANCH   1   3
BRANCH   1   9
ATOM      9  C   UNL     1       0.902  -2.027  -0.279  0.00  0.00    -0.042 C 
BRANCH   9  10
ATOM     10  C   UNL     1       0.825  -0.522  -0.277  0.00  0.00    -0.064 A 
ATOM     11  C   UNL     1      -0.396   0.106  -0.449  0.00  0.00    +0.002 A 
ATOM     12  C   UNL     1      -0.473   1.483  -0.448  0.00  0.00    +0.013 A 
ATOM     13  C   UNL     1       0.685   2.244  -0.273  0.00  0.00    +0.037 A 
ATOM     14  C   UNL     1       1.913   1.604  -0.100  0.00  0.00    +0.013 A 
ATOM     15  C   UNL     1       1.976   0.226  -0.103  0.00  0.00    +0.002 A 
BRANCH  13  16
ATOM     16  C   UNL     1       0.610   3.720  -0.271  0.00  0.00    +0.244 C 
ATOM     17  O   UNL     1      -0.462   4.274  -0.422  0.00  0.00    -0.270 OA
ATOM     18  N   UNL     1       1.729   4.452  -0.102  0.00  0.00    -0.308 N 
ATOM     19  H   UNL     1       2.698   3.950   0.034  0.00  0.00    +0.149 HD
BRANCH  18  20
ATOM     20  C   UNL     1       1.655   5.915  -0.100  0.00  0.00    +0.073 C 
ATOM     21  C   UNL     1       2.724   6.678  -0.884  0.00  0.00    +0.024 C 
ATOM     22  C   UNL     1       2.752   6.677   0.646  0.00  0.00    +0.024 C 
ENDBRANCH  18  20
ENDBRANCH  13  16
ENDBRANCH   9  10
ENDBRANCH   1   9
BRANCH   1  23
ATOM     23  C   UNL     1       0.970  -3.963  -1.732  0.00  0.00    +0.023 C 
BRANCH  23  24
ATOM     24  C   UNL     1      -0.494  -4.316  -1.685  0.00  0.00    +0.211 A 
ATOM     25  N   UNL     1      -1.322  -4.337  -2.700  0.00  0.00    -0.193 NA
ATOM     26  C   UNL     1      -2.517  -4.707  -2.186  0.00  0.00    +0.202 A 
ATOM     27  N   UNL     1      -2.346  -4.886  -0.902  0.00  0.00    -0.056 NA
ATOM     28  O   UNL     1      -1.191  -4.671  -0.601  0.00  0.00    -0.340 OA
BRANCH  26  29
ATOM     29  C   UNL     1      -3.785  -4.876  -2.939  0.00  0.00    +0.023 A 
ATOM     30  C   UNL     1      -3.796  -4.750  -4.326  0.00  0.00    +0.013 A 
ATOM     31  C   UNL     1      -4.977  -4.914  -5.022  0.00  0.00    +0.021 A 
ATOM     32  C   UNL     1      -6.150  -5.192  -4.342  0.00  0.00    +0.041 A 
ATOM     33  C   UNL     1      -6.145  -5.314  -2.963  0.00  0.00    +0.021 A 
ATOM     34  C   UNL     1      -4.968  -5.157  -2.259  0.00  0.00    +0.013 A 
ATOM     35 CL   UNL     1      -7.633  -5.390  -5.222  0.00  0.00    -0.084 Cl
ENDBRANCH  26  29
ENDBRANCH  23  24
ENDBRANCH   1  23
TORSDOF 9
