REMARK  Name = ZINC02542455
REMARK  10 active torsions:
REMARK  status: ('A' for Active; 'I' for Inactive)
REMARK    1  A    between atoms: C_1  and  O_2
REMARK    2  A    between atoms: O_2  and  C_3
REMARK    3  A    between atoms: C_6  and  C_9
REMARK    4  A    between atoms: C_9  and  O_11
REMARK    5  A    between atoms: O_11  and  C_12
REMARK    6  A    between atoms: C_16  and  C_18
REMARK    7  A    between atoms: N_19  and  N_20
REMARK    8  A    between atoms: C_21  and  C_23
REMARK    9  A    between atoms: N_25  and  C_26
REMARK   10  A    between atoms: C_27  and  C_35
REMARK                            x       y       z     vdW  Elec       q    Type
REMARK                         _______ _______ _______ _____ _____    ______ ____
ROOT
ATOM      1  C   UNL     1      -3.441  10.559  -6.181  0.00  0.00    +0.138 C 
ATOM      2  N   UNL     1      -3.126  10.266  -4.955  0.00  0.00    -0.187 NA
ENDROOT
BRANCH   1   7
ATOM      3  C   UNL     1      -4.675  13.514  -8.144  0.00  0.00    +0.133 A 
ATOM      4  C   UNL     1      -4.772  14.476  -7.146  0.00  0.00    +0.046 A 
ATOM      5  C   UNL     1      -4.437  14.163  -5.842  0.00  0.00    +0.004 A 
ATOM      6  C   UNL     1      -4.004  12.892  -5.522  0.00  0.00    +0.010 A 
ATOM      7  C   UNL     1      -3.904  11.918  -6.518  0.00  0.00    -0.002 A 
ATOM      8  C   UNL     1      -4.238  12.238  -7.836  0.00  0.00    +0.055 A 
BRANCH   3   9
ATOM      9  O   UNL     1      -5.005  13.829  -9.424  0.00  0.00    -0.422 OA
BRANCH   9  10
ATOM     10  C   UNL     1      -6.119  13.259  -9.926  0.00  0.00    +0.344 C 
ATOM     11  O   UNL     1      -6.833  12.586  -9.209  0.00  0.00    -0.245 OA
BRANCH  10  15
ATOM     12  C   UNL     1      -7.130  13.814 -14.012  0.00  0.00    +0.120 A 
ATOM     13  C   UNL     1      -7.949  13.044 -13.194  0.00  0.00    +0.046 A 
ATOM     14  C   UNL     1      -7.624  12.861 -11.868  0.00  0.00    +0.018 A 
ATOM     15  C   UNL     1      -6.470  13.451 -11.345  0.00  0.00    +0.060 A 
ATOM     16  C   UNL     1      -5.652  14.229 -12.170  0.00  0.00    +0.018 A 
ATOM     17  C   UNL     1      -5.981  14.403 -13.496  0.00  0.00    +0.046 A 
BRANCH  12  19
ATOM     18  C   UNL     1      -6.569  14.794 -16.102  0.00  0.00    +0.277 C 
ATOM     19  O   UNL     1      -7.454  13.991 -15.318  0.00  0.00    -0.495 OA
ENDBRANCH  12  19
ENDBRANCH  10  15
ENDBRANCH   9  10
ENDBRANCH   3   9
ENDBRANCH   1   7
BRANCH   2  20
ATOM     20  N   UNL     1      -2.687   8.975  -4.634  0.00  0.00    -0.199 N 
ATOM     21  C   UNL     1      -2.360   8.671  -3.363  0.00  0.00    +0.318 C 
ATOM     22  O   UNL     1      -2.446   9.516  -2.495  0.00  0.00    -0.263 OA
ATOM     23  H   UNL     1      -2.618   8.300  -5.328  0.00  0.00    +0.178 HD
BRANCH  21  24
ATOM     24  C   UNL     1      -1.892   7.298  -3.022  0.00  0.00    +0.305 C 
ATOM     25  O   UNL     1      -1.806   6.453  -3.889  0.00  0.00    -0.265 OA
ATOM     26  N   UNL     1      -1.565   6.994  -1.750  0.00  0.00    -0.271 N 
ATOM     27  H   UNL     1      -1.634   7.668  -1.057  0.00  0.00    +0.156 HD
BRANCH  26  28
ATOM     28  C   UNL     1      -1.131   5.717  -1.433  0.00  0.00    +0.090 A 
ATOM     29  C   UNL     1      -0.750   5.207  -0.197  0.00  0.00    +0.084 A 
ATOM     30  C   UNL     1      -0.331   3.818  -0.137  0.00  0.00    -0.018 A 
ATOM     31  C   UNL     1      -0.348   3.137  -1.305  0.00  0.00    -0.004 A 
ATOM     32  S   UNL     1      -0.917   4.309  -2.507  0.00  0.00    -0.077 S 
ATOM     33  C   UNL     1       0.032   1.706  -1.525  0.00  0.00    +0.043 C 
ATOM     34  C   UNL     1       0.805   1.214  -0.293  0.00  0.00    +0.005 C 
ATOM     35  C   UNL     1       0.036   1.622   0.967  0.00  0.00    +0.005 C 
ATOM     36  C   UNL     1       0.110   3.137   1.155  0.00  0.00    +0.037 C 
BRANCH  29  37
ATOM     37  C   UNL     1      -0.771   6.026   0.978  0.00  0.00    +0.102 C 
ATOM     38  N   UNL     1      -0.787   6.674   1.910  0.00  0.00    -0.191 NA
ENDBRANCH  29  37
ENDBRANCH  26  28
ENDBRANCH  21  24
ENDBRANCH   2  20
TORSDOF 9
