REMARK  Name = ZINC34678780
REMARK  7 active torsions:
REMARK  status: ('A' for Active; 'I' for Inactive)
REMARK    1  A    between atoms: C_4  and  N_7
REMARK    2  A    between atoms: N_7  and  C_8
REMARK    3  A    between atoms: N_7  and  S_24
REMARK    4  A    between atoms: N_11  and  C_14
REMARK    5  A    between atoms: C_14  and  C_15
REMARK    6  A    between atoms: C_18  and  N_21
REMARK    7  A    between atoms: S_24  and  C_27
REMARK                            x       y       z     vdW  Elec       q    Type
REMARK                         _______ _______ _______ _____ _____    ______ ____
ROOT
ATOM      1  N   UNL     1       3.611  -0.637  -0.040  0.00  0.00    -0.200 N 
ENDROOT
BRANCH   1   2
ATOM      2  C   UNL     1       3.709  -1.943   0.615  0.00  0.00    +0.095 C 
ATOM      3  C   UNL     1       2.832  -2.956  -0.126  0.00  0.00    +0.006 C 
ATOM      4  C   UNL     1       2.876  -4.297   0.609  0.00  0.00    -0.077 C 
ATOM      5  N   UNL     1       2.377  -4.125   1.979  0.00  0.00    +0.382 N 
ATOM      6  C   UNL     1       3.255  -3.210   2.718  0.00  0.00    -0.077 C 
ATOM      7  C   UNL     1       3.225  -1.827   2.064  0.00  0.00    +0.006 C 
ATOM      8  H   UNL     1       1.444  -3.743   1.950  0.00  0.00    -0.081 HD
BRANCH   5   9
ATOM      9  C   UNL     1       2.349  -5.428   2.656  0.00  0.00    -0.043 C 
BRANCH   9  10
ATOM     10  C   UNL     1       1.722  -5.274   4.018  0.00  0.00    -0.064 A 
ATOM     11  C   UNL     1       2.512  -4.976   5.112  0.00  0.00    +0.004 A 
ATOM     12  C   UNL     1       1.938  -4.834   6.361  0.00  0.00    +0.033 A 
ATOM     13  C   UNL     1       0.573  -4.989   6.516  0.00  0.00    +0.126 A 
ATOM     14  C   UNL     1      -0.218  -5.286   5.421  0.00  0.00    +0.033 A 
ATOM     15  C   UNL     1       0.356  -5.424   4.171  0.00  0.00    +0.004 A 
BRANCH  13  16
ATOM     16  N   UNL     1      -0.043  -4.838   7.854  0.00  0.00    +0.056 N 
ATOM     17  O   UNL     1       0.649  -4.580   8.811  0.00  0.00    -0.126 OA
ATOM     18  O   UNL     1      -1.236  -4.974   7.989  0.00  0.00    -0.126 OA
ENDBRANCH  13  16
ENDBRANCH   9  10
ENDBRANCH   5   9
ENDBRANCH   1   2
BRANCH   1  22
ATOM     19  C   UNL     1      -0.119   1.101  -0.672  0.00  0.00    +0.000 A 
ATOM     20  C   UNL     1       0.402   1.033   0.607  0.00  0.00    +0.002 A 
ATOM     21  C   UNL     1       1.639   0.457   0.820  0.00  0.00    +0.025 A 
ATOM     22  C   UNL     1       2.360  -0.054  -0.252  0.00  0.00    +0.052 A 
ATOM     23  C   UNL     1       1.833   0.016  -1.536  0.00  0.00    +0.025 A 
ATOM     24  C   UNL     1       0.595   0.593  -1.742  0.00  0.00    +0.002 A 
ENDBRANCH   1  22
BRANCH   1  25
ATOM     25  S   UNL     1       4.984   0.149  -0.530  0.00  0.00    +0.075 S 
ATOM     26  O   UNL     1       5.935  -0.857  -0.850  0.00  0.00    -0.150 OA
ATOM     27  O   UNL     1       4.575   1.137  -1.466  0.00  0.00    -0.150 OA
BRANCH  25  28
ATOM     28  C   UNL     1       5.617   1.013   0.869  0.00  0.00    +0.109 A 
ATOM     29  C   UNL     1       5.278   2.338   1.074  0.00  0.00    +0.030 A 
ATOM     30  C   UNL     1       5.774   3.016   2.171  0.00  0.00    +0.022 A 
ATOM     31  C   UNL     1       6.610   2.369   3.065  0.00  0.00    +0.041 A 
ATOM     32  C   UNL     1       6.948   1.044   2.859  0.00  0.00    +0.022 A 
ATOM     33  C   UNL     1       6.447   0.365   1.764  0.00  0.00    +0.030 A 
ATOM     34 CL   UNL     1       7.234   3.221   4.443  0.00  0.00    -0.084 Cl
ENDBRANCH  25  28
ENDBRANCH   1  25
TORSDOF 7
