REMARK  Name = ZINC06785203
REMARK  3 active torsions:
REMARK  status: ('A' for Active; 'I' for Inactive)
REMARK    1  A    between atoms: C_1  and  C_2
REMARK    2  A    between atoms: C_9  and  C_14
REMARK    3  A    between atoms: N_16  and  C_17
REMARK                            x       y       z     vdW  Elec       q    Type
REMARK                         _______ _______ _______ _____ _____    ______ ____
ROOT
ATOM      1  C   UNL     1      -2.539   4.999  -2.118  0.00  0.00    +0.038 C 
ATOM      2  C   UNL     1      -2.472   5.162  -0.598  0.00  0.00    +0.154 C 
ATOM      3  C   UNL     1      -1.220   5.916  -0.227  0.00  0.00    +0.237 C 
ATOM      4  O   UNL     1      -1.245   7.127  -0.168  0.00  0.00    -0.273 OA
ATOM      5  N   UNL     1      -0.075   5.259   0.039  0.00  0.00    -0.282 N 
ATOM      6  C   UNL     1      -0.036   3.859   0.025  0.00  0.00    +0.055 A 
ATOM      7  C   UNL     1       1.171   3.189   0.009  0.00  0.00    +0.038 A 
ATOM      8  C   UNL     1       1.188   1.791   0.000  0.00  0.00    +0.039 A 
ATOM      9  C   UNL     1      -0.013   1.076   0.008  0.00  0.00    +0.015 A 
ATOM     10  C   UNL     1      -1.216   1.748   0.017  0.00  0.00    +0.025 A 
ATOM     11  C   UNL     1      -1.234   3.135   0.029  0.00  0.00    +0.049 A 
ATOM     12  N   UNL     1      -2.440   3.837   0.038  0.00  0.00    -0.332 N 
ATOM     13  H   UNL     1       0.730   5.760   0.244  0.00  0.00    +0.155 HD
ATOM     14  H   UNL     1      -3.233   3.462   0.451  0.00  0.00    +0.147 HD
ENDROOT
BRANCH   8  15
ATOM     15  C   UNL     1       2.475   1.069  -0.017  0.00  0.00    +0.244 C 
ATOM     16  O   UNL     1       3.521   1.691  -0.024  0.00  0.00    -0.270 OA
ATOM     17  N   UNL     1       2.493  -0.278  -0.025  0.00  0.00    -0.308 N 
ATOM     18  H   UNL     1       1.659  -0.774  -0.020  0.00  0.00    +0.149 HD
BRANCH  17  19
ATOM     19  C   UNL     1       3.771  -0.994  -0.043  0.00  0.00    +0.073 C 
ATOM     20  C   UNL     1       3.897  -2.191  -0.987  0.00  0.00    +0.024 C 
ATOM     21  C   UNL     1       3.791  -2.416   0.522  0.00  0.00    +0.024 C 
ENDBRANCH  17  19
ENDBRANCH   8  15
TORSDOF 2
