REMARK  Name = ZINC09089988
REMARK  4 active torsions:
REMARK  status: ('A' for Active; 'I' for Inactive)
REMARK    1  A    between atoms: C_1  and  C_2
REMARK    2  A    between atoms: C_7  and  C_17
REMARK    3  A    between atoms: C_20  and  O_23
REMARK    4  A    between atoms: O_23  and  C_24
REMARK                            x       y       z     vdW  Elec       q    Type
REMARK                         _______ _______ _______ _____ _____    ______ ____
ROOT
ATOM      1  C   UNL     1       3.273  -1.272  -1.027  0.00  0.00    +0.008 C 
ATOM      2  C   UNL     1       2.041  -0.367  -0.968  0.00  0.00    -0.001 C 
ATOM      3  C   UNL     1       2.351   0.877  -0.137  0.00  0.00    +0.055 C 
ATOM      4  C   UNL     1       1.124   1.771  -0.066  0.00  0.00    +0.017 C 
ATOM      5  C   UNL     1      -0.108   1.236  -0.065  0.00  0.00    +0.036 C 
ATOM      6  C   UNL     1      -1.407   2.002   0.020  0.00  0.00    +0.136 C 
ATOM      7  N   UNL     1      -1.272   3.432  -0.154  0.00  0.00    -0.331 N 
ATOM      8  C   UNL     1      -0.559   4.208   0.759  0.00  0.00    +0.049 A 
ATOM      9  C   UNL     1      -1.194   5.131   1.573  0.00  0.00    +0.025 A 
ATOM     10  C   UNL     1      -0.465   5.801   2.541  0.00  0.00    +0.002 A 
ATOM     11  C   UNL     1       0.887   5.552   2.694  0.00  0.00    +0.002 A 
ATOM     12  C   UNL     1       1.529   4.645   1.868  0.00  0.00    +0.025 A 
ATOM     13  C   UNL     1       0.804   3.988   0.889  0.00  0.00    +0.052 A 
ATOM     14  N   UNL     1       1.394   3.100  -0.003  0.00  0.00    -0.316 N 
ATOM     15  C   UNL     1      -0.276  -0.166  -0.157  0.00  0.00    +0.163 C 
ATOM     16  O   UNL     1      -1.401  -0.624  -0.129  0.00  0.00    -0.292 OA
ATOM     17  C   UNL     1       0.884  -1.107  -0.285  0.00  0.00    +0.083 C 
ATOM     18  H   UNL     1      -1.736   3.927  -1.020  0.00  0.00    +0.147 HD
ATOM     19  H   UNL     1       2.126   3.545  -0.692  0.00  0.00    +0.152 HD
ENDROOT
BRANCH   6  20
ATOM     20  C   UNL     1      -2.026   1.744   1.369  0.00  0.00    -0.023 A 
ATOM     21  C   UNL     1      -1.371   2.148   2.518  0.00  0.00    +0.009 A 
ATOM     22  C   UNL     1      -1.939   1.917   3.756  0.00  0.00    +0.046 A 
ATOM     23  C   UNL     1      -3.163   1.270   3.847  0.00  0.00    +0.120 A 
ATOM     24  C   UNL     1      -3.816   0.862   2.693  0.00  0.00    +0.046 A 
ATOM     25  C   UNL     1      -3.246   1.099   1.457  0.00  0.00    +0.009 A 
BRANCH  23  26
ATOM     26  O   UNL     1      -3.722   1.038   5.064  0.00  0.00    -0.495 OA
ATOM     27  C   UNL     1      -2.993   1.487   6.208  0.00  0.00    +0.277 C 
ENDBRANCH  23  26
ENDBRANCH   6  20
TORSDOF 2
