REMARK  Name = ZINC08835228
REMARK  7 active torsions:
REMARK  status: ('A' for Active; 'I' for Inactive)
REMARK    1  A    between atoms: C_1  and  C_2
REMARK    2  A    between atoms: C_5  and  C_9
REMARK    3  A    between atoms: C_12  and  C_14
REMARK    4  A    between atoms: N_16  and  C_17
REMARK    5  A    between atoms: C_17  and  N_19
REMARK    6  A    between atoms: N_19  and  C_20
REMARK    7  A    between atoms: C_23  and  N_27
REMARK                            x       y       z     vdW  Elec       q    Type
REMARK                         _______ _______ _______ _____ _____    ______ ____
ROOT
ATOM      1  C   UNL     1      -1.175   1.524  -0.465  0.00  0.00    +0.285 C 
ATOM      2  O   UNL     1      -1.200   2.719  -0.697  0.00  0.00    -0.266 OA
ATOM      3  N   UNL     1      -0.000   0.909  -0.225  0.00  0.00    -0.261 N 
ATOM      4  H   UNL     1       0.019  -0.043  -0.040  0.00  0.00    +0.157 HD
ENDROOT
BRANCH   1   8
ATOM      5  C   UNL     1      -3.827  -0.923  -0.267  0.00  0.00    +0.136 A 
ATOM      6  C   UNL     1      -4.572   0.184  -0.556  0.00  0.00    +0.050 A 
ATOM      7  C   UNL     1      -3.685   1.259  -0.671  0.00  0.00    +0.055 A 
ATOM      8  C   UNL     1      -2.421   0.757  -0.445  0.00  0.00    +0.190 A 
ATOM      9  O   UNL     1      -2.533  -0.567  -0.207  0.00  0.00    -0.450 OA
BRANCH   5  14
ATOM     10  C   UNL     1      -5.884  -6.236   0.543  0.00  0.00    +0.045 C 
ATOM     11  C   UNL     1      -5.346  -4.844   0.330  0.00  0.00    -0.032 A 
ATOM     12  C   UNL     1      -3.985  -4.610   0.425  0.00  0.00    +0.005 A 
ATOM     13  C   UNL     1      -3.486  -3.339   0.232  0.00  0.00    +0.012 A 
ATOM     14  C   UNL     1      -4.356  -2.287  -0.060  0.00  0.00    +0.019 A 
ATOM     15  C   UNL     1      -5.728  -2.527  -0.149  0.00  0.00    +0.031 A 
ATOM     16  C   UNL     1      -6.215  -3.805   0.042  0.00  0.00    +0.045 A 
ATOM     17 CL   UNL     1      -7.920  -4.109  -0.074  0.00  0.00    -0.083 Cl
ENDBRANCH   5  14
ENDBRANCH   1   8
BRANCH   3  18
ATOM     18  C   UNL     1       1.148   1.615  -0.249  0.00  0.00    +0.141 C 
ATOM     19  S   UNL     1       1.113   3.295  -0.576  0.00  0.00    -0.018 S 
BRANCH  18  20
ATOM     20  N   UNL     1       2.323   0.998  -0.015  0.00  0.00    -0.296 N 
ATOM     21  H   UNL     1       2.338   0.060   0.232  0.00  0.00    +0.154 HD
BRANCH  20  22
ATOM     22  C   UNL     1       3.522   1.710  -0.128  0.00  0.00    +0.047 A 
ATOM     23  C   UNL     1       3.649   2.958   0.469  0.00  0.00    +0.026 A 
ATOM     24  C   UNL     1       4.833   3.659   0.355  0.00  0.00    +0.034 A 
ATOM     25  C   UNL     1       5.893   3.120  -0.352  0.00  0.00    +0.127 A 
ATOM     26  C   UNL     1       5.770   1.878  -0.947  0.00  0.00    +0.049 A 
ATOM     27  C   UNL     1       4.590   1.169  -0.833  0.00  0.00    +0.041 A 
ATOM     28 BR   UNL     1       4.425  -0.533  -1.641  0.00  0.00    -0.048 Br
BRANCH  25  29
ATOM     29  N   UNL     1       7.161   3.874  -0.471  0.00  0.00    +0.056 N 
ATOM     30  O   UNL     1       7.270   4.968   0.053  0.00  0.00    -0.126 OA
ATOM     31  O   UNL     1       8.095   3.401  -1.094  0.00  0.00    -0.126 OA
ENDBRANCH  25  29
ENDBRANCH  20  22
ENDBRANCH  18  20
ENDBRANCH   3  18
TORSDOF 6
