REMARK  Name = ZINC08901708
REMARK  11 active torsions:
REMARK  status: ('A' for Active; 'I' for Inactive)
REMARK    1  A    between atoms: C_1  and  C_2
REMARK    2  A    between atoms: C_2  and  O_3
REMARK    3  A    between atoms: O_3  and  C_4
REMARK    4  A    between atoms: C_5  and  C_29
REMARK    5  A    between atoms: C_7  and  S_11
REMARK    6  A    between atoms: C_9  and  C_10
REMARK    7  A    between atoms: S_11  and  N_14
REMARK    8  A    between atoms: N_14  and  C_15
REMARK    9  A    between atoms: C_15  and  C_16
REMARK   10  A    between atoms: C_16  and  C_18
REMARK   11  A    between atoms: C_16  and  N_61
REMARK                            x       y       z     vdW  Elec       q    Type
REMARK                         _______ _______ _______ _____ _____    ______ ____
ROOT
ATOM      1  N   UNL     1      -2.361   7.875   3.376  0.00  0.00    -0.191 NA
ATOM      2  H   UNL     1      -3.310   7.964   3.555  0.00  0.00    +0.148 HD
ENDROOT
BRANCH   1   3
ATOM      3  S   UNL     1      -1.812   7.845   1.814  0.00  0.00    +0.058 S 
ATOM      4  O   UNL     1      -0.739   8.773   1.742  0.00  0.00    -0.153 OA
ATOM      5  O   UNL     1      -2.958   7.939   0.979  0.00  0.00    -0.153 OA
BRANCH   3   9
ATOM      6  C   UNL     1      -0.026   3.745   1.102  0.00  0.00    +0.126 A 
ATOM      7  C   UNL     1       0.768   4.775   1.585  0.00  0.00    -0.007 A 
ATOM      8  C   UNL     1       0.222   6.026   1.795  0.00  0.00    +0.035 A 
ATOM      9  C   UNL     1      -1.117   6.250   1.537  0.00  0.00    +0.106 A 
ATOM     10  C   UNL     1      -1.913   5.223   1.062  0.00  0.00    +0.035 A 
ATOM     11  C   UNL     1      -1.370   3.972   0.843  0.00  0.00    -0.007 A 
ATOM     12  C   UNL     1      -2.238   2.854   0.326  0.00  0.00    +0.047 C 
ATOM     13  C   UNL     1       2.227   4.530   1.872  0.00  0.00    +0.047 C 
BRANCH   6  14
ATOM     14  O   UNL     1       0.509   2.514   0.888  0.00  0.00    -0.492 OA
BRANCH  14  16
ATOM     15  C   UNL     1       1.605   0.834  -0.460  0.00  0.00    +0.048 C 
ATOM     16  C   UNL     1       1.052   2.259  -0.409  0.00  0.00    +0.226 C 
ENDBRANCH  14  16
ENDBRANCH   6  14
ENDBRANCH   3   9
ENDBRANCH   1   3
BRANCH   1  17
ATOM     17  C   UNL     1      -1.413   7.769   4.488  0.00  0.00    +0.095 C 
BRANCH  17  18
ATOM     18  C   UNL     1      -2.008   8.433   5.731  0.00  0.00    -0.021 C 
BRANCH  18  25
ATOM     19  C   UNL     1      -1.855  10.649   6.718  0.00  0.00    -0.078 C 
ATOM     20  C   UNL     1      -2.252  12.096   6.606  0.00  0.00    -0.019 C 
ATOM     21  C   UNL     1      -3.672  12.260   7.186  0.00  0.00    -0.002 C 
ATOM     22  C   UNL     1      -4.703  11.822   6.252  0.00  0.00    -0.002 C 
ATOM     23  C   UNL     1      -4.568  10.328   5.893  0.00  0.00    -0.019 C 
ATOM     24  C   UNL     1      -3.467  10.178   4.878  0.00  0.00    -0.078 C 
ATOM     25  N   UNL     1      -2.114   9.874   5.456  0.00  0.00    +0.385 N 
ATOM     26  H   UNL     1      -1.401  10.134   4.765  0.00  0.00    -0.081 HD
ENDBRANCH  18  25
BRANCH  18  27
ATOM     27  C   UNL     1      -1.091   8.210   6.907  0.00  0.00    -0.053 A 
ATOM     28  C   UNL     1      -1.479   7.395   7.954  0.00  0.00    +0.009 A 
ATOM     29  C   UNL     1      -0.632   7.216   8.996  0.00  0.00    +0.045 A 
ATOM     30  S   UNL     1       0.766   8.216   8.512  0.00  0.00    -0.105 S 
ATOM     31  C   UNL     1       0.128   8.801   6.951  0.00  0.00    +0.047 A 
ENDBRANCH  18  27
ENDBRANCH  17  18
ENDBRANCH   1  17
TORSDOF 8
