REMARK  Name = ZINC28311845
REMARK  8 active torsions:
REMARK  status: ('A' for Active; 'I' for Inactive)
REMARK    1  A    between atoms: C_1  and  C_2
REMARK    2  A    between atoms: C_5  and  N_9
REMARK    3  A    between atoms: C_6  and  C_8
REMARK    4  A    between atoms: C_10  and  C_12
REMARK    5  A    between atoms: C_12  and  N_20
REMARK    6  A    between atoms: C_13  and  C_14
REMARK    7  A    between atoms: C_21  and  C_23
REMARK    8  A    between atoms: C_28  and  C_29
REMARK                            x       y       z     vdW  Elec       q    Type
REMARK                         _______ _______ _______ _____ _____    ______ ____
ROOT
ATOM      1  C   UNL     1       1.515   0.970  -1.060  0.00  0.00    +0.098 C 
ATOM      2  C   UNL     1       1.512   2.329  -1.056  0.00  0.00    +0.054 C 
ENDROOT
BRANCH   2   3
ATOM      3  C   UNL     1       0.286   3.035  -0.959  0.00  0.00    +0.041 A 
ATOM      4  C   UNL     1       0.139   4.403  -0.831  0.00  0.00    +0.027 A 
ATOM      5  C   UNL     1      -1.234   4.665  -0.771  0.00  0.00    +0.019 A 
ATOM      6  C   UNL     1      -1.888   3.483  -0.867  0.00  0.00    +0.083 A 
ATOM      7  N   UNL     1      -0.974   2.482  -0.976  0.00  0.00    -0.361 N 
ATOM      8  H   UNL     1      -1.096   1.393  -1.068  0.00  0.00    +0.165 HD
ENDBRANCH   2   3
BRANCH   1  10
ATOM      9  N   UNL     1      -0.318  -0.064   0.166  0.00  0.00    -0.280 N 
ATOM     10  C   UNL     1       0.250   0.234  -1.019  0.00  0.00    +0.262 C 
ATOM     11  O   UNL     1      -0.289  -0.108  -2.055  0.00  0.00    -0.268 OA
ATOM     12  H   UNL     1       0.124   0.315   1.099  0.00  0.00    +0.155 HD
BRANCH   9  17
ATOM     13  C   UNL     1      -4.991  -3.275   0.344  0.00  0.00    +0.044 C 
ATOM     14  C   UNL     1      -3.750  -2.421   0.297  0.00  0.00    -0.050 A 
ATOM     15  C   UNL     1      -2.926  -2.462  -0.814  0.00  0.00    +0.005 A 
ATOM     16  C   UNL     1      -1.788  -1.682  -0.860  0.00  0.00    +0.024 A 
ATOM     17  C   UNL     1      -1.470  -0.855   0.210  0.00  0.00    +0.037 A 
ATOM     18  C   UNL     1      -2.297  -0.821   1.326  0.00  0.00    -0.029 A 
ATOM     19  C   UNL     1      -3.437  -1.600   1.364  0.00  0.00    +0.008 A 
ATOM     20  C   UNL     1      -1.953   0.071   2.491  0.00  0.00    +0.045 C 
ENDBRANCH   9  17
ENDBRANCH   1  10
BRANCH   1  21
ATOM     21  N   UNL     1       2.729   0.273  -1.102  0.00  0.00    -0.277 N 
ATOM     22  C   UNL     1       2.738  -1.071  -0.999  0.00  0.00    +0.249 C 
ATOM     23  O   UNL     1       1.690  -1.685  -0.958  0.00  0.00    -0.270 OA
ATOM     24  H   UNL     1       3.675   0.822  -1.219  0.00  0.00    +0.155 HD
BRANCH  22  25
ATOM     25  C   UNL     1       4.024  -1.798  -0.935  0.00  0.00    +0.040 A 
ATOM     26  C   UNL     1       5.229  -1.095  -0.958  0.00  0.00    +0.013 A 
ATOM     27  C   UNL     1       6.425  -1.779  -0.893  0.00  0.00    +0.001 A 
ATOM     28  C   UNL     1       6.431  -3.161  -0.816  0.00  0.00    +0.000 A 
ATOM     29  C   UNL     1       5.240  -3.865  -0.799  0.00  0.00    +0.004 A 
ATOM     30  C   UNL     1       4.037  -3.192  -0.858  0.00  0.00    -0.038 A 
ATOM     31  C   UNL     1       2.741  -3.960  -0.840  0.00  0.00    +0.044 C 
ENDBRANCH  22  25
ENDBRANCH   1  21
TORSDOF 5
