REMARK  Name = ZINC35290842
REMARK  6 active torsions:
REMARK  status: ('A' for Active; 'I' for Inactive)
REMARK    1  A    between atoms: C_1  and  C_2
REMARK    2  A    between atoms: C_2  and  C_3
REMARK    3  A    between atoms: C_2  and  C_4
REMARK    4  A    between atoms: C_2  and  N_5
REMARK    5  A    between atoms: C_12  and  C_15
REMARK    6  A    between atoms: C_17  and  C_20
REMARK                            x       y       z     vdW  Elec       q    Type
REMARK                         _______ _______ _______ _____ _____    ______ ____
ROOT
ATOM      1  N   UNL     1       2.624   0.647  -0.542  0.00  0.00    -0.294 N 
ATOM      2  C   UNL     1       1.972  -0.132  -1.427  0.00  0.00    +0.303 C 
ATOM      3  O   UNL     1       0.845  -0.518  -1.182  0.00  0.00    -0.253 OA
ATOM      4  N   UNL     1       2.568  -0.484  -2.583  0.00  0.00    -0.285 N 
ATOM      5  C   UNL     1       1.830  -1.235  -3.608  0.00  0.00    +0.109 C 
ATOM      6  C   UNL     1       1.932  -0.484  -4.939  0.00  0.00    +0.020 C 
ATOM      7  C   UNL     1       3.406  -0.246  -5.274  0.00  0.00    +0.016 C 
ATOM      8  C   UNL     1       4.047   0.615  -4.183  0.00  0.00    +0.095 C 
ATOM      9  C   UNL     1       3.966  -0.118  -2.846  0.00  0.00    +0.122 C 
ATOM     10  H   UNL     1       3.548   0.895  -0.703  0.00  0.00    +0.151 HD
ENDROOT
BRANCH   8  11
ATOM     11  C   UNL     1       5.490   0.876  -4.531  0.00  0.00    +0.232 A 
ATOM     12  N   UNL     1       6.029   2.048  -4.711  0.00  0.00    -0.191 NA
ATOM     13  C   UNL     1       7.334   1.913  -5.007  0.00  0.00    +0.202 A 
ATOM     14  N   UNL     1       7.632   0.638  -5.016  0.00  0.00    -0.056 NA
ATOM     15  O   UNL     1       6.435  -0.057  -4.700  0.00  0.00    -0.337 OA
BRANCH  13  16
ATOM     16  C   UNL     1       8.279   3.025  -5.280  0.00  0.00    +0.022 A 
ATOM     17  C   UNL     1       7.837   4.346  -5.235  0.00  0.00    +0.012 A 
ATOM     18  C   UNL     1       8.720   5.375  -5.489  0.00  0.00    +0.001 A 
ATOM     19  C   UNL     1      10.042   5.098  -5.788  0.00  0.00    +0.000 A 
ATOM     20  C   UNL     1      10.486   3.789  -5.835  0.00  0.00    +0.001 A 
ATOM     21  C   UNL     1       9.613   2.752  -5.576  0.00  0.00    +0.012 A 
ENDBRANCH  13  16
ENDBRANCH   8  11
BRANCH   1  23
ATOM     22  C   UNL     1       1.482  -0.081   1.494  0.00  0.00    +0.031 C 
ATOM     23  C   UNL     1       1.938   1.120   0.663  0.00  0.00    +0.028 C 
ATOM     24  C   UNL     1       0.720   1.955   0.262  0.00  0.00    +0.031 C 
ATOM     25  C   UNL     1       2.896   1.979   1.491  0.00  0.00    +0.031 C 
ENDBRANCH   1  23
TORSDOF 3
