REMARK  Name = ZINC37128272
REMARK  4 active torsions:
REMARK  status: ('A' for Active; 'I' for Inactive)
REMARK    1  A    between atoms: C_3  and  N_15
REMARK    2  A    between atoms: C_6  and  N_7
REMARK    3  A    between atoms: N_7  and  C_8
REMARK    4  A    between atoms: C_8  and  C_9
REMARK                            x       y       z     vdW  Elec       q    Type
REMARK                         _______ _______ _______ _____ _____    ______ ____
ROOT
ATOM      1  C   UNL     1      -0.017   1.385   0.010  0.00  0.00    +0.025 A 
ATOM      2  C   UNL     1       1.169   2.091   0.002  0.00  0.00    +0.031 A 
ATOM      3  C   UNL     1       2.381   1.413  -0.013  0.00  0.00    +0.086 A 
ATOM      4  C   UNL     1       2.400   0.025  -0.021  0.00  0.00    +0.031 A 
ATOM      5  C   UNL     1       1.215  -0.682  -0.014  0.00  0.00    +0.025 A 
ATOM      6  C   UNL     1       0.002  -0.004   0.002  0.00  0.00    +0.028 A 
ENDROOT
BRANCH   3   7
ATOM      7  N   UNL     1       3.586   2.131  -0.022  0.00  0.00    -0.150 N 
ATOM      8  N   UNL     1       3.672   3.414  -0.011  0.00  0.00    -0.156 NA
ATOM      9  C   UNL     1       4.942   3.752  -0.024  0.00  0.00    +0.156 A 
ATOM     10  C   UNL     1       5.657   2.552  -0.044  0.00  0.00    +0.156 A 
ATOM     11  N   UNL     1       4.755   1.596  -0.037  0.00  0.00    -0.156 NA
ENDBRANCH   3   7
BRANCH   6  12
ATOM     12  N   UNL     1      -1.198  -0.719   0.010  0.00  0.00    -0.337 N 
ATOM     13  H   UNL     1      -2.045  -0.246   0.021  0.00  0.00    +0.147 HD
BRANCH  12  14
ATOM     14  C   UNL     1      -1.178  -2.184   0.002  0.00  0.00    +0.176 C 
BRANCH  14  15
ATOM     15  C   UNL     1      -2.592  -2.706   0.013  0.00  0.00    +0.123 A 
ATOM     16  C   UNL     1      -3.339  -2.978  -1.072  0.00  0.00    +0.047 A 
ATOM     17  C   UNL     1      -4.590  -3.441  -0.603  0.00  0.00    +0.057 A 
ATOM     18  C   UNL     1      -4.532  -3.425   0.742  0.00  0.00    +0.170 A 
ATOM     19  O   UNL     1      -3.318  -2.984   1.109  0.00  0.00    -0.452 OA
ATOM     20 BR   UNL     1      -5.923  -3.942   1.914  0.00  0.00    -0.008 Br
ENDBRANCH  14  15
ENDBRANCH  12  14
ENDBRANCH   6  12
TORSDOF 4
