REMARK  Name = ZINC64507198
REMARK  10 active torsions:
REMARK  status: ('A' for Active; 'I' for Inactive)
REMARK    1  A    between atoms: C_1  and  N_2
REMARK    2  A    between atoms: N_2  and  C_3
REMARK    3  A    between atoms: N_2  and  S_4
REMARK    4  A    between atoms: S_4  and  C_7
REMARK    5  A    between atoms: C_14  and  C_20
REMARK    6  A    between atoms: N_16  and  C_17
REMARK    7  A    between atoms: C_17  and  C_18
REMARK    8  A    between atoms: N_22  and  C_23
REMARK    9  A    between atoms: C_23  and  C_24
REMARK   10  A    between atoms: C_24  and  C_25
REMARK                            x       y       z     vdW  Elec       q    Type
REMARK                         _______ _______ _______ _____ _____    ______ ____
ROOT
ATOM      1  C   UNL     1       1.682  -1.059  -1.905  0.00  0.00    +0.106 A 
ATOM      2  C   UNL     1       2.326  -0.110  -2.677  0.00  0.00    +0.030 A 
ATOM      3  C   UNL     1       3.641  -0.291  -3.046  0.00  0.00    +0.025 A 
ATOM      4  C   UNL     1       4.335  -1.434  -2.643  0.00  0.00    +0.034 A 
ATOM      5  C   UNL     1       3.681  -2.379  -1.868  0.00  0.00    -0.022 A 
ATOM      6  C   UNL     1       2.363  -2.191  -1.497  0.00  0.00    +0.034 A 
ATOM      7  C   UNL     1       4.644  -3.506  -1.570  0.00  0.00    +0.069 C 
ATOM      8  C   UNL     1       5.948  -3.095  -2.272  0.00  0.00    +0.164 C 
ATOM      9  N   UNL     1       5.655  -1.806  -2.903  0.00  0.00    -0.314 N 
ENDROOT
BRANCH   8  10
ATOM     10  C   UNL     1       6.325  -4.116  -3.314  0.00  0.00    +0.234 C 
ATOM     11  O   UNL     1       6.398  -3.793  -4.481  0.00  0.00    -0.274 OA
ATOM     12  N   UNL     1       6.581  -5.388  -2.950  0.00  0.00    -0.313 N 
ATOM     13  H   UNL     1       6.522  -5.647  -2.017  0.00  0.00    +0.149 HD
BRANCH  12  14
ATOM     14  C   UNL     1       6.947  -6.381  -3.964  0.00  0.00    +0.108 C 
BRANCH  14  15
ATOM     15  C   UNL     1       7.183  -7.734  -3.290  0.00  0.00    +0.052 C 
BRANCH  15  16
ATOM     16  C   UNL     1       7.560  -8.755  -4.333  0.00  0.00    -0.040 C 
ATOM     17  C   UNL     1       8.809  -9.129  -4.691  0.00  0.00    -0.001 A 
ATOM     18  C   UNL     1      10.141  -8.711  -4.235  0.00  0.00    +0.010 A 
ATOM     19  C   UNL     1      11.233  -9.277  -4.796  0.00  0.00    +0.001 A 
ATOM     20  C   UNL     1      11.127 -10.251  -5.799  0.00  0.00    +0.002 A 
ATOM     21  C   UNL     1       9.938 -10.685  -6.270  0.00  0.00    +0.026 A 
ATOM     22  C   UNL     1       8.724 -10.158  -5.751  0.00  0.00    +0.043 A 
ATOM     23  N   UNL     1       7.470 -10.411  -6.037  0.00  0.00    -0.380 N 
ATOM     24  C   UNL     1       6.617  -9.574  -5.186  0.00  0.00    +0.144 C 
ATOM     25  H   UNL     1       7.158 -11.048  -6.699  0.00  0.00    +0.160 HD
ENDBRANCH  15  16
ENDBRANCH  14  15
ENDBRANCH  12  14
ENDBRANCH   8  10
BRANCH   1  26
ATOM     26  S   UNL     1      -0.000  -0.824  -1.437  0.00  0.00    +0.060 S 
ATOM     27  O   UNL     1      -0.531  -2.115  -1.167  0.00  0.00    -0.153 OA
ATOM     28  O   UNL     1      -0.572   0.049  -2.401  0.00  0.00    -0.153 OA
BRANCH  26  30
ATOM     29  C   UNL     1      -0.018   1.461   0.010  0.00  0.00    +0.131 C 
ATOM     30  N   UNL     1       0.002  -0.004   0.002  0.00  0.00    -0.183 NA
ATOM     31  C   UNL     1       0.024  -0.743   1.267  0.00  0.00    +0.131 C 
ENDBRANCH  26  30
ENDBRANCH   1  26
BRANCH   9  32
ATOM     32  C   UNL     1       6.607  -1.022  -3.693  0.00  0.00    +0.132 C 
BRANCH  32  33
ATOM     33  C   UNL     1       7.356  -0.080  -2.786  0.00  0.00    -0.016 C 
ATOM     34  C   UNL     1       8.666  -0.095  -2.764  0.00  0.00    +0.005 C 
ENDBRANCH  32  33
ENDBRANCH   9  32
TORSDOF 8
