REMARK  Name = ZINC33729282
REMARK  8 active torsions:
REMARK  status: ('A' for Active; 'I' for Inactive)
REMARK    1  A    between atoms: C_1  and  C_2
REMARK    2  A    between atoms: C_17  and  C_29
REMARK    3  A    between atoms: C_22  and  C_23
REMARK    4  A    between atoms: C_22  and  O_28
REMARK    5  A    between atoms: C_23  and  S_24
REMARK    6  A    between atoms: S_24  and  C_25
REMARK    7  A    between atoms: C_25  and  C_26
REMARK    8  A    between atoms: C_26  and  N_27
REMARK                            x       y       z     vdW  Elec       q    Type
REMARK                         _______ _______ _______ _____ _____    ______ ____
ROOT
ATOM      1  C   UNL     1       0.942   1.037  -2.938  0.00  0.00    +0.012 C 
ATOM      2  C   UNL     1      -0.515   0.892  -2.514  0.00  0.00    -0.026 C 
ATOM      3  C   UNL     1      -0.859  -0.594  -2.360  0.00  0.00    +0.007 C 
ATOM      4  C   UNL     1      -0.759  -1.315  -3.701  0.00  0.00    +0.001 C 
ATOM      5  C   UNL     1      -1.683  -0.669  -4.732  0.00  0.00    +0.000 C 
ATOM      6  C   UNL     1      -1.326   0.811  -4.893  0.00  0.00    +0.004 C 
ATOM      7  C   UNL     1      -1.473   1.507  -3.544  0.00  0.00    -0.005 C 
ATOM      8  C   UNL     1      -1.284   3.012  -3.680  0.00  0.00    +0.004 C 
ATOM      9  C   UNL     1      -1.498   3.705  -2.321  0.00  0.00    +0.004 C 
ATOM     10  C   UNL     1      -0.495   3.108  -1.350  0.00  0.00    -0.004 C 
ATOM     11  C   UNL     1      -0.778   1.609  -1.195  0.00  0.00    -0.001 C 
ATOM     12  C   UNL     1      -0.013   1.085   0.008  0.00  0.00    +0.005 C 
ATOM     13  C   UNL     1      -0.740   1.584   1.277  0.00  0.00    +0.010 C 
ATOM     14  C   UNL     1      -1.173   3.015   1.095  0.00  0.00    +0.001 C 
ATOM     15  C   UNL     1      -0.370   3.742  -0.001  0.00  0.00    +0.001 C 
ATOM     16  C   UNL     1      -0.870   5.188   0.132  0.00  0.00    +0.007 C 
ATOM     17  C   UNL     1      -1.071   5.372   1.660  0.00  0.00    +0.036 C 
ATOM     18  C   UNL     1      -0.968   3.958   2.292  0.00  0.00    +0.081 C 
ATOM     19  C   UNL     1      -2.679   3.051   0.778  0.00  0.00    +0.014 C 
ENDROOT
BRANCH  18  20
ATOM     20  O   UNL     1      -2.012   3.768   3.246  0.00  0.00    -0.387 OA
ATOM     21  H   UNL     1      -2.026   4.362   4.172  0.00  0.00    +0.210 HD
ENDBRANCH  18  20
BRANCH  18  22
ATOM     22  C   UNL     1       0.400   3.776   2.939  0.00  0.00    +0.104 C 
BRANCH  22  23
ATOM     23  S   UNL     1       0.670   5.090   4.160  0.00  0.00    -0.160 S 
BRANCH  23  24
ATOM     24  C   UNL     1       2.318   4.735   4.829  0.00  0.00    +0.050 C 
BRANCH  24  25
ATOM     25  C   UNL     1       2.677   5.782   5.885  0.00  0.00    -0.076 C 
BRANCH  25  26
ATOM     26  N   UNL     1       4.012   5.494   6.427  0.00  0.00    +0.379 N 
ATOM     27  H   UNL     1       4.270   6.247   7.186  0.00  0.00    -0.090 HD
ATOM     28  H   UNL     1       4.752   5.524   5.614  0.00  0.00    -0.090 HD
ATOM     29  H   UNL     1       4.013   4.495   6.887  0.00  0.00    -0.090 HD
ENDBRANCH  25  26
ENDBRANCH  24  25
ENDBRANCH  23  24
ENDBRANCH  22  23
ENDBRANCH  18  22
TORSDOF 6
