REMARK  Name = ZINC65215667
REMARK  4 active torsions:
REMARK  status: ('A' for Active; 'I' for Inactive)
REMARK    1  A    between atoms: C_4  and  C_6
REMARK    2  A    between atoms: C_4  and  N_8
REMARK    3  A    between atoms: C_9  and  C_11
REMARK    4  A    between atoms: C_13  and  C_17
REMARK                            x       y       z     vdW  Elec       q    Type
REMARK                         _______ _______ _______ _____ _____    ______ ____
ROOT
ATOM      1  N   UNL     1       1.136  -1.207  -1.821  0.00  0.00    -0.292 N 
ATOM      2  C   UNL     1       0.493  -2.389  -1.755  0.00  0.00    +0.264 C 
ATOM      3  O   UNL     1       0.093  -2.805  -0.684  0.00  0.00    -0.268 OA
ATOM      4  H   UNL     1       1.455  -0.876  -2.675  0.00  0.00    +0.151 HD
ENDROOT
BRANCH   2   5
ATOM      5  C   UNL     1       0.275  -3.177  -2.978  0.00  0.00    +0.134 A 
ATOM      6  C   UNL     1      -0.369  -4.400  -3.075  0.00  0.00    +0.071 A 
ATOM      7  C   UNL     1      -0.320  -4.736  -4.431  0.00  0.00    +0.081 A 
ATOM      8  N   UNL     1       0.306  -3.775  -5.061  0.00  0.00    -0.177 NA
ATOM      9  N   UNL     1       0.662  -2.847  -4.247  0.00  0.00    -0.271 N 
ATOM     10  H   UNL     1       1.135  -2.038  -4.494  0.00  0.00    +0.189 HD
ATOM     11 BR   UNL     1      -1.148  -5.401  -1.673  0.00  0.00    -0.046 Br
BRANCH   7  12
ATOM     12  C   UNL     1      -0.888  -5.984  -5.057  0.00  0.00    +0.041 C 
ATOM     13  C   UNL     1      -0.551  -6.254  -6.525  0.00  0.00    +0.010 C 
ATOM     14  C   UNL     1      -1.962  -5.809  -6.133  0.00  0.00    +0.010 C 
ENDBRANCH   7  12
ENDBRANCH   2   5
BRANCH   1  18
ATOM     15  C   UNL     1      -0.019   1.538   0.011  0.00  0.00    +0.003 C 
ATOM     16  C   UNL     1       1.477   1.939  -0.002  0.00  0.00    +0.003 C 
ATOM     17  C   UNL     1       2.107   0.881  -0.942  0.00  0.00    +0.041 C 
ATOM     18  C   UNL     1       1.353  -0.422  -0.604  0.00  0.00    +0.122 C 
ATOM     19  C   UNL     1       0.002  -0.004   0.002  0.00  0.00    +0.041 C 
BRANCH  18  20
ATOM     20  C   UNL     1       2.122  -1.209   0.374  0.00  0.00    +0.088 C 
ATOM     21  N   UNL     1       2.716  -1.817   1.128  0.00  0.00    -0.194 NA
ENDBRANCH  18  20
ENDBRANCH   1  18
TORSDOF 4
