REMARK  Name = ZINC20205920
REMARK  10 active torsions:
REMARK  status: ('A' for Active; 'I' for Inactive)
REMARK    1  A    between atoms: C_1  and  C_2
REMARK    2  A    between atoms: C_5  and  O_9
REMARK    3  A    between atoms: C_6  and  C_8
REMARK    4  A    between atoms: O_9  and  C_10
REMARK    5  A    between atoms: C_10  and  C_11
REMARK    6  A    between atoms: C_11  and  O_12
REMARK    7  A    between atoms: O_12  and  C_13
REMARK    8  A    between atoms: C_16  and  C_19
REMARK    9  A    between atoms: C_30  and  S_31
REMARK   10  A    between atoms: S_31  and  C_34
REMARK                            x       y       z     vdW  Elec       q    Type
REMARK                         _______ _______ _______ _____ _____    ______ ____
ROOT
ATOM      1  C   UNL     1      -1.780  -8.110  -0.854  0.00  0.00    +0.121 A 
ATOM      2  C   UNL     1      -0.577  -8.807  -0.905  0.00  0.00    +0.046 A 
ATOM      3  C   UNL     1      -0.532 -10.129  -0.545  0.00  0.00    +0.011 A 
ATOM      4  C   UNL     1      -1.701 -10.778  -0.124  0.00  0.00    -0.024 A 
ATOM      5  C   UNL     1      -2.911 -10.070  -0.075  0.00  0.00    +0.011 A 
ATOM      6  C   UNL     1      -2.942  -8.748  -0.432  0.00  0.00    +0.046 A 
ENDROOT
BRANCH   4   7
ATOM      7  C   UNL     1      -1.659 -12.191   0.261  0.00  0.00    +0.024 C 
ATOM      8  C   UNL     1      -2.394 -12.632   1.338  0.00  0.00    +0.078 C 
ATOM      9  C   UNL     1      -2.535 -14.083   1.655  0.00  0.00    +0.117 C 
ATOM     10  N   UNL     1      -1.601 -14.964   1.418  0.00  0.00    -0.386 N 
ATOM     11  N   UNL     1      -3.778 -14.406   2.235  0.00  0.00    -0.203 N 
ATOM     12  C   UNL     1      -4.480 -13.410   2.880  0.00  0.00    +0.183 C 
ATOM     13  N   UNL     1      -4.162 -12.136   2.933  0.00  0.00    -0.152 NA
ATOM     14  C   UNL     1      -3.085 -11.691   2.254  0.00  0.00    +0.273 C 
ATOM     15  O   UNL     1      -2.691 -10.543   2.384  0.00  0.00    -0.268 OA
ATOM     16  S   UNL     1      -5.787 -14.219   3.523  0.00  0.00    +0.049 S 
ATOM     17  N   UNL     1      -5.498 -15.746   2.894  0.00  0.00    -0.174 NA
ATOM     18  C   UNL     1      -4.382 -15.617   2.245  0.00  0.00    +0.257 C 
ATOM     19  H   UNL     1      -0.803 -14.707   0.930  0.00  0.00    +0.157 HD
ATOM     20  H   UNL     1      -1.704 -15.876   1.732  0.00  0.00    +0.157 HD
BRANCH  18  21
ATOM     21  S   UNL     1      -3.671 -16.987   1.395  0.00  0.00    +0.026 S 
ATOM     22  O   UNL     1      -4.754 -17.880   1.174  0.00  0.00    -0.167 OA
ATOM     23  O   UNL     1      -2.972 -16.411   0.300  0.00  0.00    -0.167 OA
ATOM     24  C   UNL     1      -2.497 -17.709   2.575  0.00  0.00    +0.203 C 
ENDBRANCH  18  21
ENDBRANCH   4   7
BRANCH   1  25
ATOM     25  O   UNL     1      -1.818  -6.801  -1.211  0.00  0.00    -0.489 OA
BRANCH  25  26
ATOM     26  C   UNL     1      -0.589  -6.208  -1.634  0.00  0.00    +0.270 C 
BRANCH  26  27
ATOM     27  C   UNL     1      -0.829  -4.740  -1.993  0.00  0.00    +0.270 C 
BRANCH  27  28
ATOM     28  O   UNL     1      -1.213  -4.019  -0.821  0.00  0.00    -0.488 OA
BRANCH  28  33
ATOM     29  C   UNL     1      -2.259   1.482  -1.430  0.00  0.00    +0.044 C 
ATOM     30  C   UNL     1      -1.979   0.010  -1.267  0.00  0.00    -0.050 A 
ATOM     31  C   UNL     1      -1.601  -0.746  -2.361  0.00  0.00    +0.007 A 
ATOM     32  C   UNL     1      -1.344  -2.095  -2.215  0.00  0.00    +0.046 A 
ATOM     33  C   UNL     1      -1.465  -2.692  -0.968  0.00  0.00    +0.124 A 
ATOM     34  C   UNL     1      -1.843  -1.931   0.129  0.00  0.00    -0.009 A 
ATOM     35  C   UNL     1      -2.094  -0.581  -0.022  0.00  0.00    +0.010 A 
ATOM     36  C   UNL     1      -1.975  -2.575   1.485  0.00  0.00    +0.047 C 
ENDBRANCH  28  33
ENDBRANCH  27  28
ENDBRANCH  26  27
ENDBRANCH  25  26
ENDBRANCH   1  25
TORSDOF 7
