REMARK  Name = ZINC66643264
REMARK  7 active torsions:
REMARK  status: ('A' for Active; 'I' for Inactive)
REMARK    1  A    between atoms: C_1  and  C_2
REMARK    2  A    between atoms: C_5  and  C_12
REMARK    3  A    between atoms: C_8  and  C_10
REMARK    4  A    between atoms: C_8  and  C_11
REMARK    5  A    between atoms: C_12  and  C_13
REMARK    6  A    between atoms: C_20  and  C_22
REMARK    7  A    between atoms: C_22  and  C_23
REMARK                            x       y       z     vdW  Elec       q    Type
REMARK                         _______ _______ _______ _____ _____    ______ ____
ROOT
ATOM      1  C   UNL     1      -3.449  -2.636  -1.524  0.00  0.00    +0.216 C 
ATOM      2  O   UNL     1      -2.849  -1.978  -2.347  0.00  0.00    -0.276 OA
ATOM      3  N   UNL     1      -4.781  -2.804  -1.635  0.00  0.00    -0.298 N 
ATOM      4  C   UNL     1      -5.501  -3.703  -0.724  0.00  0.00    +0.108 C 
ATOM      5  C   UNL     1      -6.309  -4.705  -1.555  0.00  0.00    +0.019 C 
ATOM      6  C   UNL     1      -7.211  -3.943  -2.529  0.00  0.00    +0.003 C 
ATOM      7  C   UNL     1      -6.349  -3.110  -3.480  0.00  0.00    +0.023 C 
ATOM      8  C   UNL     1      -5.542  -2.086  -2.667  0.00  0.00    +0.085 C 
ENDROOT
BRANCH   1   9
ATOM      9  C   UNL     1      -2.703  -3.267  -0.376  0.00  0.00    +0.099 C 
BRANCH   9  13
ATOM     10  C   UNL     1       0.652   0.434  -0.245  0.00  0.00    +0.007 C 
ATOM     11  C   UNL     1       0.462  -1.074  -0.419  0.00  0.00    -0.013 C 
ATOM     12  C   UNL     1      -1.026  -1.417  -0.310  0.00  0.00    +0.007 C 
ATOM     13  C   UNL     1      -1.216  -2.925  -0.484  0.00  0.00    -0.002 C 
ATOM     14  C   UNL     1      -0.441  -3.666   0.608  0.00  0.00    +0.010 C 
ATOM     15  C   UNL     1       1.046  -3.323   0.499  0.00  0.00    -0.034 C 
ATOM     16  C   UNL     1       1.236  -1.815   0.673  0.00  0.00    +0.009 C 
ATOM     17  C   UNL     1       1.821  -4.064   1.591  0.00  0.00    +0.011 C 
ATOM     18  C   UNL     1       1.569  -3.748  -0.874  0.00  0.00    +0.011 C 
ENDBRANCH   9  13
ENDBRANCH   1   9
BRANCH   8  19
ATOM     19  C   UNL     1      -4.577  -1.340  -3.591  0.00  0.00    +0.118 C 
BRANCH  19  20
ATOM     20  C   UNL     1      -3.994  -0.159  -2.859  0.00  0.00    +0.212 C 
ATOM     21  O   UNL     1      -4.318   0.065  -1.712  0.00  0.00    -0.276 OA
ATOM     22  N   UNL     1      -3.112   0.649  -3.480  0.00  0.00    -0.329 N 
ATOM     23  H   UNL     1      -2.852   0.471  -4.397  0.00  0.00    +0.145 HD
ATOM     24  H   UNL     1      -2.736   1.410  -3.009  0.00  0.00    +0.145 HD
ENDBRANCH  19  20
ENDBRANCH   8  19
TORSDOF 4
