REMARK  Name = ZINC34981899
REMARK  13 active torsions:
REMARK  status: ('A' for Active; 'I' for Inactive)
REMARK    1  A    between atoms: C_1  and  C_2
REMARK    2  A    between atoms: C_2  and  C_3
REMARK    3  A    between atoms: C_3  and  C_4
REMARK    4  A    between atoms: C_4  and  C_5
REMARK    5  A    between atoms: C_5  and  C_7
REMARK    6  A    between atoms: C_5  and  C_9
REMARK    7  A    between atoms: C_7  and  C_8
REMARK    8  A    between atoms: C_9  and  N_10
REMARK    9  A    between atoms: C_14  and  C_15
REMARK   10  A    between atoms: C_16  and  N_26
REMARK   11  A    between atoms: N_29  and  C_32
REMARK   12  A    between atoms: C_32  and  C_33
REMARK   13  A    between atoms: C_33  and  O_34
REMARK                            x       y       z     vdW  Elec       q    Type
REMARK                         _______ _______ _______ _____ _____    ______ ____
ROOT
ATOM      1  C   UNL     1       6.175  -4.992   3.905  0.00  0.00    +0.081 A 
ATOM      2  C   UNL     1       7.521  -5.427   3.889  0.00  0.00    +0.136 A 
ATOM      3  N   UNL     1       8.244  -5.272   2.789  0.00  0.00    -0.214 NA
ATOM      4  C   UNL     1       7.736  -4.713   1.691  0.00  0.00    +0.142 A 
ATOM      5  C   UNL     1       8.551  -4.574   0.553  0.00  0.00    +0.047 A 
ATOM      6  C   UNL     1       8.041  -4.003  -0.575  0.00  0.00    +0.005 A 
ATOM      7  C   UNL     1       6.710  -3.563  -0.585  0.00  0.00    +0.018 A 
ATOM      8  C   UNL     1       5.940  -3.704   0.517  0.00  0.00    +0.096 A 
ATOM      9  N   UNL     1       6.441  -4.274   1.650  0.00  0.00    -0.268 N 
ATOM     10  C   UNL     1       5.644  -4.405   2.732  0.00  0.00    +0.267 A 
ATOM     11  O   UNL     1       4.488  -4.020   2.700  0.00  0.00    -0.267 OA
ENDROOT
BRANCH   1  16
ATOM     12  N   UNL     1       2.791  -7.610   4.256  0.00  0.00    -0.255 N 
ATOM     13  C   UNL     1       3.879  -6.892   4.034  0.00  0.00    +0.258 C 
ATOM     14  O   UNL     1       4.499  -7.001   2.991  0.00  0.00    -0.269 OA
ATOM     15  C   UNL     1       4.305  -5.987   5.048  0.00  0.00    +0.077 C 
ATOM     16  C   UNL     1       5.378  -5.145   5.064  0.00  0.00    +0.037 C 
ATOM     17  S   UNL     1       3.050  -6.255   6.293  0.00  0.00    -0.061 S 
ATOM     18  C   UNL     1       2.100  -7.484   5.411  0.00  0.00    +0.121 C 
ATOM     19  S   UNL     1       0.677  -8.298   5.904  0.00  0.00    -0.027 S 
BRANCH  12  20
ATOM     20  C   UNL     1       2.325  -8.550   3.235  0.00  0.00    +0.118 C 
BRANCH  20  21
ATOM     21  C   UNL     1       1.361  -7.836   2.286  0.00  0.00    +0.007 C 
BRANCH  21  22
ATOM     22  C   UNL     1       2.113  -6.746   1.520  0.00  0.00    +0.002 C 
ATOM     23  C   UNL     1       1.128  -5.962   0.650  0.00  0.00    +0.004 C 
ENDBRANCH  21  22
BRANCH  21  24
ATOM     24  C   UNL     1       0.778  -8.846   1.295  0.00  0.00    +0.005 C 
BRANCH  24  25
ATOM     25  C   UNL     1      -0.079  -9.864   2.050  0.00  0.00    +0.000 C 
BRANCH  25  27
ATOM     26  C   UNL     1      -1.624 -11.812   1.803  0.00  0.00    +0.004 C 
ATOM     27  C   UNL     1      -0.767 -10.794   1.048  0.00  0.00    -0.003 C 
ENDBRANCH  25  27
ENDBRANCH  24  25
ENDBRANCH  21  24
ENDBRANCH  20  21
ENDBRANCH  12  20
ENDBRANCH   1  16
BRANCH   2  28
ATOM     28  N   UNL     1       8.076  -6.009   5.008  0.00  0.00    -0.312 N 
ATOM     29  C   UNL     1       7.299  -6.939   5.839  0.00  0.00    +0.122 C 
ATOM     30  C   UNL     1       8.120  -8.218   6.038  0.00  0.00    +0.103 C 
ATOM     31  N   UNL     1       9.444  -7.867   6.569  0.00  0.00    -0.297 NA
ATOM     32  C   UNL     1      10.199  -7.041   5.618  0.00  0.00    +0.103 C 
ATOM     33  C   UNL     1       9.464  -5.719   5.399  0.00  0.00    +0.122 C 
BRANCH  31  34
ATOM     34  C   UNL     1      10.200  -9.072   6.935  0.00  0.00    +0.112 C 
BRANCH  34  35
ATOM     35  C   UNL     1      11.458  -8.670   7.708  0.00  0.00    +0.171 C 
BRANCH  35  36
ATOM     36  O   UNL     1      11.082  -8.069   8.949  0.00  0.00    -0.394 OA
ATOM     37  H   UNL     1      11.831  -7.788   9.492  0.00  0.00    +0.209 HD
ENDBRANCH  35  36
ENDBRANCH  34  35
ENDBRANCH  31  34
ENDBRANCH   2  28
TORSDOF 11
