REMARK  Name = ZINC01266728
REMARK  6 active torsions:
REMARK  status: ('A' for Active; 'I' for Inactive)
REMARK    1  A    between atoms: C_1  and  C_2
REMARK    2  A    between atoms: N_8  and  C_9
REMARK    3  A    between atoms: C_9  and  C_10
REMARK    4  A    between atoms: C_15  and  C_23
REMARK    5  A    between atoms: C_17  and  C_21
REMARK    6  A    between atoms: C_18  and  N_20
REMARK                            x       y       z     vdW  Elec       q    Type
REMARK                         _______ _______ _______ _____ _____    ______ ____
ROOT
ATOM      1  C   UNL     1      -0.210   5.069  -1.175  0.00  0.00    +0.064 C 
ATOM      2  C   UNL     1      -1.126   4.153  -1.946  0.00  0.00    +0.023 A 
ATOM      3  C   UNL     1      -1.465   4.464  -3.215  0.00  0.00    +0.068 A 
ATOM      4  C   UNL     1      -2.326   3.614  -3.939  0.00  0.00    +0.141 A 
ATOM      5  C   UNL     1      -2.802   2.471  -3.331  0.00  0.00    +0.072 A 
ATOM      6  C   UNL     1      -2.418   2.186  -2.014  0.00  0.00    +0.259 A 
ATOM      7  O   UNL     1      -2.831   1.177  -1.463  0.00  0.00    -0.267 OA
ATOM      8  N   UNL     1      -1.594   3.022  -1.356  0.00  0.00    -0.307 N 
ATOM      9  C   UNL     1      -3.722   1.535  -4.066  0.00  0.00    +0.105 C 
ATOM     10  C   UNL     1      -4.301   2.221  -5.272  0.00  0.00    +0.098 C 
ATOM     11  C   UNL     1      -3.754   3.356  -5.766  0.00  0.00    +0.199 C 
ATOM     12  O   UNL     1      -2.671   3.925  -5.206  0.00  0.00    -0.441 OA
ENDROOT
BRANCH   9  13
ATOM     13  C   UNL     1      -2.949   0.319  -4.506  0.00  0.00    -0.015 A 
ATOM     14  C   UNL     1      -1.868   0.457  -5.357  0.00  0.00    +0.006 A 
ATOM     15  C   UNL     1      -1.155  -0.658  -5.757  0.00  0.00    +0.002 A 
ATOM     16  C   UNL     1      -1.530  -1.914  -5.315  0.00  0.00    +0.021 A 
ATOM     17  C   UNL     1      -2.614  -2.054  -4.468  0.00  0.00    +0.060 A 
ATOM     18  C   UNL     1      -3.324  -0.937  -4.063  0.00  0.00    +0.063 A 
ATOM     19 CL   UNL     1      -4.685  -1.111  -3.000  0.00  0.00    -0.082 Cl
ATOM     20 CL   UNL     1      -3.083  -3.630  -3.913  0.00  0.00    -0.082 Cl
ENDBRANCH   9  13
BRANCH  11  21
ATOM     21  N   UNL     1      -4.320   3.944  -6.869  0.00  0.00    -0.328 N 
ATOM     22  H   UNL     1      -3.939   4.758  -7.234  0.00  0.00    +0.145 HD
ATOM     23  H   UNL     1      -5.101   3.545  -7.284  0.00  0.00    +0.145 HD
ENDBRANCH  11  21
BRANCH  10  24
ATOM     24  C   UNL     1      -5.455   1.662  -5.911  0.00  0.00    +0.101 C 
ATOM     25  N   UNL     1      -6.369   1.218  -6.418  0.00  0.00    -0.191 NA
ENDBRANCH  10  24
BRANCH   8  26
ATOM     26  C   UNL     1      -1.201   2.711   0.021  0.00  0.00    +0.167 C 
BRANCH  26  27
ATOM     27  C   UNL     1      -0.023   1.772   0.007  0.00  0.00    +0.010 A 
ATOM     28  C   UNL     1       1.301   2.063  -0.008  0.00  0.00    +0.013 A 
ATOM     29  C   UNL     1       2.215   1.027  -0.024  0.00  0.00    +0.008 A 
ATOM     30  C   UNL     1       1.761  -0.250  -0.025  0.00  0.00    +0.045 A 
ATOM     31  S   UNL     1      -0.008  -0.013  -0.002  0.00  0.00    -0.100 S 
ENDBRANCH  26  27
ENDBRANCH   8  26
TORSDOF 5
