REMARK  Name = ZINC27603063
REMARK  11 active torsions:
REMARK  status: ('A' for Active; 'I' for Inactive)
REMARK    1  A    between atoms: C_1  and  C_2
REMARK    2  A    between atoms: C_3  and  C_34
REMARK    3  A    between atoms: C_11  and  C_13
REMARK    4  A    between atoms: C_13  and  S_14
REMARK    5  A    between atoms: S_14  and  C_15
REMARK    6  A    between atoms: C_15  and  C_17
REMARK    7  A    between atoms: C_15  and  C_18
REMARK    8  A    between atoms: N_20  and  C_21
REMARK    9  A    between atoms: C_21  and  C_22
REMARK   10  A    between atoms: C_22  and  C_24
REMARK   11  A    between atoms: C_22  and  N_29
REMARK                            x       y       z     vdW  Elec       q    Type
REMARK                         _______ _______ _______ _____ _____    ______ ____
ROOT
ATOM      1  C   UNL     1      -0.281  -6.099   5.314  0.00  0.00    +0.129 C 
ATOM      2  C   UNL     1       1.084  -5.709   5.885  0.00  0.00    +0.029 C 
ENDROOT
BRANCH   1   3
ATOM      3  C   UNL     1      -0.283  -7.569   4.979  0.00  0.00    +0.226 C 
ATOM      4  O   UNL     1      -0.029  -7.934   3.851  0.00  0.00    -0.275 OA
ATOM      5  N   UNL     1      -0.567  -8.477   5.934  0.00  0.00    -0.316 N 
ATOM      6  H   UNL     1      -0.770  -8.184   6.836  0.00  0.00    +0.149 HD
BRANCH   5   7
ATOM      7  C   UNL     1      -0.570  -9.905   5.608  0.00  0.00    +0.094 C 
BRANCH   7   8
ATOM      8  C   UNL     1      -1.046 -10.704   6.823  0.00  0.00    -0.013 C 
BRANCH   8   9
ATOM      9  N   UNL     1      -0.922 -12.141   6.543  0.00  0.00    +0.386 N 
ATOM     10  C   UNL     1      -1.470 -12.917   7.676  0.00  0.00    -0.078 C 
ATOM     11  C   UNL     1      -0.552 -14.161   7.784  0.00  0.00    -0.020 C 
ATOM     12  C   UNL     1       0.835 -13.556   7.443  0.00  0.00    -0.020 C 
ATOM     13  C   UNL     1       0.499 -12.494   6.376  0.00  0.00    -0.078 C 
ATOM     14  H   UNL     1      -1.430 -12.368   5.701  0.00  0.00    -0.081 HD
ENDBRANCH   8   9
BRANCH   8  15
ATOM     15  C   UNL     1      -2.487 -10.370   7.111  0.00  0.00    -0.022 A 
ATOM     16  C   UNL     1      -2.998  -9.523   8.037  0.00  0.00    +0.009 A 
ATOM     17  C   UNL     1      -4.370  -9.371   8.122  0.00  0.00    +0.008 A 
ATOM     18  C   UNL     1      -5.162 -10.074   7.277  0.00  0.00    +0.045 A 
ATOM     19  S   UNL     1      -3.963 -10.982   6.315  0.00  0.00    -0.103 S 
ENDBRANCH   8  15
ENDBRANCH   7   8
ENDBRANCH   5   7
ENDBRANCH   1   3
BRANCH   1  20
ATOM     20  S   UNL     1      -0.605  -5.136   3.811  0.00  0.00    -0.141 S 
BRANCH  20  21
ATOM     21  C   UNL     1      -0.720  -3.425   4.403  0.00  0.00    +0.144 C 
BRANCH  21  32
ATOM     22  C   UNL     1      -1.919   1.363  -0.134  0.00  0.00    +0.045 C 
ATOM     23  C   UNL     1      -1.744  -0.133  -0.129  0.00  0.00    -0.026 A 
ATOM     24  C   UNL     1      -1.820  -0.830  -1.274  0.00  0.00    -0.008 A 
ATOM     25  S   UNL     1      -1.552  -2.514  -0.751  0.00  0.00    -0.073 S 
ATOM     26  C   UNL     1      -1.346  -2.232   0.988  0.00  0.00    +0.116 A 
ATOM     27  C   UNL     1      -1.486  -0.838   1.113  0.00  0.00    +0.075 A 
ATOM     28  C   UNL     1      -1.358  -0.320   2.443  0.00  0.00    +0.260 A 
ATOM     29  O   UNL     1      -1.468   0.876   2.655  0.00  0.00    -0.267 OA
ATOM     30  N   UNL     1      -1.116  -1.174   3.455  0.00  0.00    -0.310 N 
ATOM     31  H   UNL     1      -1.028  -0.829   4.357  0.00  0.00    +0.170 HD
ATOM     32  C   UNL     1      -0.991  -2.508   3.238  0.00  0.00    +0.121 A 
ATOM     33  N   UNL     1      -1.112  -3.013   2.039  0.00  0.00    -0.226 NA
ATOM     34  C   UNL     1      -2.072  -0.313  -2.667  0.00  0.00    +0.052 C 
ENDBRANCH  21  32
ENDBRANCH  20  21
ENDBRANCH   1  20
TORSDOF 8
