REMARK  Name = ZINC34685732
REMARK  9 active torsions:
REMARK  status: ('A' for Active; 'I' for Inactive)
REMARK    1  A    between atoms: C_1  and  C_2
REMARK    2  A    between atoms: C_2  and  C_3
REMARK    3  A    between atoms: C_2  and  C_4
REMARK    4  A    between atoms: C_12  and  O_24
REMARK    5  A    between atoms: C_15  and  C_17
REMARK    6  A    between atoms: O_24  and  C_25
REMARK    7  A    between atoms: C_25  and  C_26
REMARK    8  A    between atoms: C_29  and  C_31
REMARK    9  A    between atoms: N_36  and  C_39
REMARK                            x       y       z     vdW  Elec       q    Type
REMARK                         _______ _______ _______ _____ _____    ______ ____
ROOT
ATOM      1  C   UNL     1      -1.345  -0.806  -0.261  0.00  0.00    +0.219 C 
ATOM      2  O   UNL     1      -2.286  -0.041  -0.266  0.00  0.00    -0.275 OA
ATOM      3  N   UNL     1      -1.528  -2.098   0.076  0.00  0.00    -0.290 N 
ATOM      4  C   UNL     1      -0.393  -3.030   0.184  0.00  0.00    +0.113 C 
ATOM      5  C   UNL     1      -0.292  -3.481   1.640  0.00  0.00    +0.054 C 
ATOM      6  C   UNL     1      -1.641  -3.895   2.168  0.00  0.00    -0.040 A 
ATOM      7  C   UNL     1      -1.669  -4.714   3.291  0.00  0.00    +0.007 A 
ATOM      8  C   UNL     1      -2.868  -5.122   3.833  0.00  0.00    +0.046 A 
ATOM      9  C   UNL     1      -4.061  -4.713   3.254  0.00  0.00    +0.121 A 
ATOM     10  C   UNL     1      -4.034  -3.900   2.134  0.00  0.00    +0.051 A 
ATOM     11  C   UNL     1      -2.824  -3.495   1.587  0.00  0.00    -0.016 A 
ATOM     12  C   UNL     1      -2.865  -2.631   0.357  0.00  0.00    +0.137 C 
ENDROOT
BRANCH  12  13
ATOM     13  C   UNL     1      -3.823  -1.489   0.579  0.00  0.00    -0.022 A 
ATOM     14  C   UNL     1      -3.629  -0.620   1.637  0.00  0.00    +0.008 A 
ATOM     15  C   UNL     1      -4.506   0.428   1.841  0.00  0.00    +0.038 A 
ATOM     16  C   UNL     1      -5.581   0.607   0.987  0.00  0.00    +0.123 A 
ATOM     17  C   UNL     1      -5.775  -0.265  -0.072  0.00  0.00    +0.038 A 
ATOM     18  C   UNL     1      -4.893  -1.308  -0.278  0.00  0.00    +0.008 A 
ATOM     19  F   UNL     1      -6.440   1.630   1.186  0.00  0.00    -0.205 F 
ENDBRANCH  12  13
BRANCH   1  21
ATOM     20  C   UNL     1      -0.073   1.108  -1.192  0.00  0.00    +0.017 C 
ATOM     21  C   UNL     1       0.030  -0.312  -0.633  0.00  0.00    +0.069 C 
ATOM     22  C   UNL     1       0.923  -0.308   0.609  0.00  0.00    +0.017 C 
ENDBRANCH   1  21
BRANCH   9  23
ATOM     23  O   UNL     1      -5.249  -5.107   3.784  0.00  0.00    -0.484 OA
BRANCH  23  24
ATOM     24  C   UNL     1      -5.197  -5.945   4.941  0.00  0.00    +0.303 C 
BRANCH  24  25
ATOM     25  C   UNL     1      -6.599  -6.278   5.383  0.00  0.00    +0.143 A 
ATOM     26  C   UNL     1      -7.321  -7.344   4.973  0.00  0.00    +0.049 A 
ATOM     27  C   UNL     1      -8.563  -7.276   5.625  0.00  0.00    +0.055 A 
ATOM     28  C   UNL     1      -8.534  -6.159   6.409  0.00  0.00    +0.190 A 
ATOM     29  O   UNL     1      -7.331  -5.569   6.252  0.00  0.00    -0.452 OA
BRANCH  28  30
ATOM     30  C   UNL     1      -9.620  -5.685   7.274  0.00  0.00    +0.282 C 
ATOM     31  O   UNL     1     -10.615  -6.368   7.431  0.00  0.00    -0.267 OA
ATOM     32  N   UNL     1      -9.516  -4.492   7.894  0.00  0.00    -0.299 N 
ATOM     33  C   UNL     1      -8.388  -3.591   7.615  0.00  0.00    +0.089 C 
ATOM     34  C   UNL     1      -8.944  -2.199   7.300  0.00  0.00    -0.060 C 
ATOM     35  N   UNL     1      -9.814  -1.760   8.399  0.00  0.00    +0.380 N 
ATOM     36  C   UNL     1     -10.984  -2.641   8.493  0.00  0.00    -0.060 C 
ATOM     37  C   UNL     1     -10.532  -4.053   8.863  0.00  0.00    +0.089 C 
ATOM     38  C   UNL     1     -10.259  -0.383   8.148  0.00  0.00    -0.096 C 
ATOM     39  H   UNL     1      -9.300  -1.792   9.266  0.00  0.00    -0.082 HD
ENDBRANCH  28  30
ENDBRANCH  24  25
ENDBRANCH  23  24
ENDBRANCH   9  23
TORSDOF 6
