REMARK  Name = ZINC39344693
REMARK  10 active torsions:
REMARK  status: ('A' for Active; 'I' for Inactive)
REMARK    1  A    between atoms: C_1  and  C_2
REMARK    2  A    between atoms: C_2  and  C_3
REMARK    3  A    between atoms: C_2  and  N_4
REMARK    4  A    between atoms: N_4  and  S_5
REMARK    5  A    between atoms: S_5  and  C_8
REMARK    6  A    between atoms: C_10  and  C_22
REMARK    7  A    between atoms: C_12  and  N_14
REMARK    8  A    between atoms: N_14  and  C_15
REMARK    9  A    between atoms: C_15  and  C_16
REMARK   10  A    between atoms: N_24  and  C_25
REMARK                            x       y       z     vdW  Elec       q    Type
REMARK                         _______ _______ _______ _____ _____    ______ ____
ROOT
ATOM      1  C   UNL     1      -0.878  -3.218  -0.043  0.00  0.00    +0.108 A 
ATOM      2  C   UNL     1       0.393  -3.546  -0.471  0.00  0.00    +0.041 A 
ATOM      3  C   UNL     1       1.086  -4.592   0.138  0.00  0.00    +0.040 A 
ATOM      4  C   UNL     1       0.491  -5.304   1.180  0.00  0.00    +0.036 A 
ATOM      5  C   UNL     1      -0.785  -4.966   1.603  0.00  0.00    +0.030 A 
ATOM      6  C   UNL     1      -1.466  -3.919   0.993  0.00  0.00    +0.051 A 
ENDROOT
BRANCH   3   7
ATOM      7  C   UNL     1       2.447  -4.946  -0.319  0.00  0.00    +0.244 C 
ATOM      8  O   UNL     1       2.963  -4.325  -1.228  0.00  0.00    -0.270 OA
ATOM      9  N   UNL     1       3.115  -5.958   0.271  0.00  0.00    -0.308 N 
ATOM     10  H   UNL     1       2.702  -6.453   0.996  0.00  0.00    +0.149 HD
BRANCH   9  11
ATOM     11  C   UNL     1       4.463  -6.308  -0.183  0.00  0.00    +0.082 C 
ATOM     12  C   UNL     1       4.409  -7.403  -1.270  0.00  0.00    +0.058 C 
ATOM     13  C   UNL     1       5.629  -8.264  -1.025  0.00  0.00    -0.042 A 
ATOM     14  C   UNL     1       6.262  -9.179  -1.851  0.00  0.00    +0.004 A 
ATOM     15  C   UNL     1       7.379  -9.859  -1.407  0.00  0.00    +0.000 A 
ATOM     16  C   UNL     1       7.867  -9.628  -0.134  0.00  0.00    +0.000 A 
ATOM     17  C   UNL     1       7.237  -8.717   0.691  0.00  0.00    +0.004 A 
ATOM     18  C   UNL     1       6.117  -8.033   0.247  0.00  0.00    -0.042 A 
ATOM     19  C   UNL     1       5.258  -7.000   0.945  0.00  0.00    +0.058 C 
ENDBRANCH   9  11
ENDBRANCH   3   7
BRANCH   1  20
ATOM     20  S   UNL     1      -1.750  -1.895  -0.814  0.00  0.00    +0.059 S 
ATOM     21  O   UNL     1      -3.133  -2.137  -0.591  0.00  0.00    -0.153 OA
ATOM     22  O   UNL     1      -1.202  -1.753  -2.117  0.00  0.00    -0.153 OA
BRANCH  20  23
ATOM     23  N   UNL     1      -1.372  -0.511   0.012  0.00  0.00    -0.187 NA
ATOM     24  H   UNL     1      -2.061  -0.036   0.503  0.00  0.00    +0.148 HD
BRANCH  23  26
ATOM     25  C   UNL     1      -0.019   1.526   0.010  0.00  0.00    +0.025 C 
ATOM     26  C   UNL     1       0.002  -0.004   0.002  0.00  0.00    +0.070 C 
ATOM     27  C   UNL     1       0.742  -0.511   1.242  0.00  0.00    +0.025 C 
ENDBRANCH  23  26
ENDBRANCH  20  23
ENDBRANCH   1  20
BRANCH   5  28
ATOM     28  N   UNL     1      -1.386  -5.676   2.646  0.00  0.00    -0.341 N 
ATOM     29  H   UNL     1      -2.279  -5.440   2.942  0.00  0.00    +0.146 HD
BRANCH  28  30
ATOM     30  C   UNL     1      -0.667  -6.777   3.292  0.00  0.00    +0.134 C 
BRANCH  30  31
ATOM     31  C   UNL     1      -1.542  -7.381   4.393  0.00  0.00    +0.169 C 
ATOM     32  C   UNL     1      -0.902  -8.637   4.959  0.00  0.00    +0.024 C 
ATOM     33  C   UNL     1      -1.787  -9.598   4.687  0.00  0.00    +0.132 C 
ATOM     34  N   UNL     1      -2.861  -9.093   4.040  0.00  0.00    -0.162 NA
ATOM     35  N   UNL     1      -2.813  -7.874   3.837  0.00  0.00    -0.179 NA
ENDBRANCH  30  31
ENDBRANCH  28  30
ENDBRANCH   5  28
TORSDOF 8
