REMARK  Name = ZINC15613986
REMARK  12 active torsions:
REMARK  status: ('A' for Active; 'I' for Inactive)
REMARK    1  A    between atoms: C_1  and  C_2
REMARK    2  A    between atoms: C_2  and  C_3
REMARK    3  A    between atoms: C_3  and  C_4
REMARK    4  A    between atoms: C_4  and  C_31
REMARK    5  A    between atoms: N_7  and  C_11
REMARK    6  A    between atoms: C_11  and  C_12
REMARK    7  A    between atoms: N_14  and  C_15
REMARK    8  A    between atoms: N_14  and  C_17
REMARK    9  A    between atoms: C_15  and  C_16
REMARK   10  A    between atoms: C_17  and  C_18
REMARK   11  A    between atoms: C_31  and  C_32
REMARK   12  A    between atoms: C_32  and  C_33
REMARK                            x       y       z     vdW  Elec       q    Type
REMARK                         _______ _______ _______ _____ _____    ______ ____
ROOT
ATOM      1  C   UNL     1      -0.353   2.738   1.767  0.00  0.00    +0.234 C 
ATOM      2  O   UNL     1      -0.921   3.129   2.764  0.00  0.00    -0.274 OA
ATOM      3  N   UNL     1      -0.698   1.558   1.213  0.00  0.00    -0.293 N 
ENDROOT
BRANCH   3   4
ATOM      4  C   UNL     1      -0.013   1.086   0.008  0.00  0.00    +0.105 C 
ATOM      5  C   UNL     1      -0.753   1.593  -1.232  0.00  0.00    +0.024 C 
ENDBRANCH   3   4
BRANCH   1   6
ATOM      6  C   UNL     1       0.739   3.570   1.145  0.00  0.00    +0.213 C 
BRANCH   6  10
ATOM      7  C   UNL     1       0.771   6.926   2.738  0.00  0.00    +0.113 C 
ATOM      8  C   UNL     1       0.267   5.949   1.695  0.00  0.00    +0.247 C 
ATOM      9  O   UNL     1      -0.558   6.160   0.831  0.00  0.00    -0.273 OA
ATOM     10  N   UNL     1       0.923   4.795   1.928  0.00  0.00    -0.215 N 
ATOM     11  C   UNL     1       1.770   4.909   2.958  0.00  0.00    +0.310 C 
ATOM     12  O   UNL     1       2.476   4.003   3.354  0.00  0.00    -0.252 OA
ATOM     13  N   UNL     1       1.751   6.137   3.505  0.00  0.00    -0.285 N 
ATOM     14  H   UNL     1       2.279   6.444   4.259  0.00  0.00    +0.151 HD
BRANCH   7  15
ATOM     15  C   UNL     1      -0.372   7.391   3.643  0.00  0.00    +0.035 C 
BRANCH  15  17
ATOM     16  C   UNL     1      -2.127   6.648   5.258  0.00  0.00    +0.004 C 
ATOM     17  C   UNL     1      -0.985   6.183   4.353  0.00  0.00    -0.001 C 
ENDBRANCH  15  17
ENDBRANCH   7  15
BRANCH   7  18
ATOM     18  C   UNL     1       1.449   8.121   2.067  0.00  0.00    +0.035 C 
BRANCH  18  19
ATOM     19  C   UNL     1       2.550   7.622   1.128  0.00  0.00    -0.001 C 
ATOM     20  C   UNL     1       3.228   8.818   0.456  0.00  0.00    +0.004 C 
ENDBRANCH  18  19
ENDBRANCH   7  18
ENDBRANCH   6  10
ENDBRANCH   1   6
BRANCH   3  21
ATOM     21  C   UNL     1      -1.760   0.749   1.817  0.00  0.00    +0.182 C 
BRANCH  21  22
ATOM     22  C   UNL     1      -1.159  -0.190   2.832  0.00  0.00    +0.128 A 
ATOM     23  N   UNL     1      -1.990  -1.029   3.504  0.00  0.00    -0.309 N 
ATOM     24  H   UNL     1      -2.943  -1.010   3.322  0.00  0.00    +0.170 HD
ATOM     25  C   UNL     1      -1.501  -1.892   4.425  0.00  0.00    +0.259 A 
ATOM     26  O   UNL     1      -2.234  -2.649   5.034  0.00  0.00    -0.267 OA
ATOM     27  C   UNL     1      -0.050  -1.879   4.661  0.00  0.00    +0.065 A 
ATOM     28  C   UNL     1       0.554  -2.727   5.587  0.00  0.00    +0.017 A 
ATOM     29  C   UNL     1       1.908  -2.675   5.769  0.00  0.00    +0.021 A 
ATOM     30  C   UNL     1       2.689  -1.786   5.039  0.00  0.00    +0.043 A 
ATOM     31  C   UNL     1       2.116  -0.937   4.117  0.00  0.00    +0.048 A 
ATOM     32  C   UNL     1       0.735  -0.972   3.915  0.00  0.00    +0.080 A 
ATOM     33  N   UNL     1       0.126  -0.159   3.015  0.00  0.00    -0.232 NA
ATOM     34 CL   UNL     1       4.406  -1.745   5.292  0.00  0.00    -0.083 Cl
ENDBRANCH  21  22
ENDBRANCH   3  21
TORSDOF 9
