REMARK  Name = ZINC34981040
REMARK  7 active torsions:
REMARK  status: ('A' for Active; 'I' for Inactive)
REMARK    1  A    between atoms: C_1  and  C_2
REMARK    2  A    between atoms: C_2  and  C_3
REMARK    3  A    between atoms: C_3  and  C_5
REMARK    4  A    between atoms: C_3  and  N_12
REMARK    5  A    between atoms: C_8  and  C_11
REMARK    6  A    between atoms: N_12  and  C_13
REMARK    7  A    between atoms: C_18  and  N_19
REMARK                            x       y       z     vdW  Elec       q    Type
REMARK                         _______ _______ _______ _____ _____    ______ ____
ROOT
ATOM      1  N   UNL     1      -0.482   0.104  -2.204  0.00  0.00    -0.335 N 
ATOM      2  H   UNL     1      -0.973  -0.592  -2.667  0.00  0.00    +0.147 HD
ENDROOT
BRANCH   1   3
ATOM      3  C   UNL     1      -0.100   1.262  -2.886  0.00  0.00    +0.058 A 
ATOM      4  C   UNL     1       0.726   2.193  -2.269  0.00  0.00    +0.026 A 
ATOM      5  C   UNL     1       1.102   3.337  -2.946  0.00  0.00    +0.017 A 
ATOM      6  C   UNL     1       0.657   3.556  -4.237  0.00  0.00    +0.020 A 
ATOM      7  C   UNL     1      -0.166   2.631  -4.854  0.00  0.00    +0.050 A 
ATOM      8  C   UNL     1      -0.540   1.482  -4.185  0.00  0.00    +0.148 A 
ATOM      9 BR   UNL     1       1.173   5.124  -5.160  0.00  0.00    -0.050 Br
BRANCH   8  10
ATOM     10  N   UNL     1      -1.415   0.490  -4.848  0.00  0.00    +0.058 N 
ATOM     11  O   UNL     1      -1.233  -0.692  -4.670  0.00  0.00    -0.126 OA
ATOM     12  O   UNL     1      -2.313   0.861  -5.568  0.00  0.00    -0.126 OA
ENDBRANCH   8  10
ENDBRANCH   1   3
BRANCH   1  13
ATOM     13  C   UNL     1      -0.140  -0.058  -0.789  0.00  0.00    +0.100 C 
BRANCH  13  14
ATOM     14  C   UNL     1      -0.085  -1.526  -0.451  0.00  0.00    -0.027 A 
ATOM     15  C   UNL     1      -1.019  -2.394  -0.985  0.00  0.00    +0.006 A 
ATOM     16  C   UNL     1      -0.969  -3.740  -0.675  0.00  0.00    +0.004 A 
ATOM     17  C   UNL     1       0.015  -4.218   0.169  0.00  0.00    -0.050 A 
ATOM     18  C   UNL     1       0.950  -3.351   0.703  0.00  0.00    +0.004 A 
ATOM     19  C   UNL     1       0.902  -2.005   0.389  0.00  0.00    +0.006 A 
ATOM     20  C   UNL     1       0.069  -5.686   0.508  0.00  0.00    +0.044 C 
ENDBRANCH  13  14
BRANCH  13  22
ATOM     21  C   UNL     1      -1.173   2.133  -0.178  0.00  0.00    +0.006 C 
ATOM     22  C   UNL     1      -1.203   0.625   0.074  0.00  0.00    +0.023 C 
ENDBRANCH  13  22
ENDBRANCH   1  13
TORSDOF 5
