REMARK  Name = ZINC49679854
REMARK  5 active torsions:
REMARK  status: ('A' for Active; 'I' for Inactive)
REMARK    1  A    between atoms: C_1  and  C_2
REMARK    2  A    between atoms: N_5  and  C_8
REMARK    3  A    between atoms: C_11  and  N_14
REMARK    4  A    between atoms: C_15  and  C_17
REMARK    5  A    between atoms: N_20  and  C_22
REMARK                            x       y       z     vdW  Elec       q    Type
REMARK                         _______ _______ _______ _____ _____    ______ ____
ROOT
ATOM      1  C   UNL     1       2.360  -3.420  -0.026  0.00  0.00    +0.030 A 
ATOM      2  C   UNL     1       2.804  -3.942  -1.235  0.00  0.00    +0.025 A 
ATOM      3  C   UNL     1       3.844  -4.849  -1.255  0.00  0.00    +0.025 A 
ATOM      4  C   UNL     1       4.447  -5.241  -0.067  0.00  0.00    +0.034 A 
ATOM      5  C   UNL     1       4.004  -4.719   1.142  0.00  0.00    +0.025 A 
ATOM      6  C   UNL     1       2.967  -3.808   1.162  0.00  0.00    +0.025 A 
ENDROOT
BRANCH   1  11
ATOM      7  C   UNL     1      -2.887  -1.779   0.034  0.00  0.00    +0.007 C 
ATOM      8  C   UNL     1      -1.369  -1.585   0.026  0.00  0.00    -0.011 C 
ATOM      9  C   UNL     1      -0.763  -2.252   1.262  0.00  0.00    +0.022 C 
ATOM     10  C   UNL     1       0.752  -2.026   1.269  0.00  0.00    +0.105 C 
ATOM     11  N   UNL     1       1.307  -2.500  -0.006  0.00  0.00    -0.330 N 
ATOM     12  C   UNL     1       0.734  -1.990  -1.259  0.00  0.00    +0.105 C 
ATOM     13  C   UNL     1      -0.781  -2.217  -1.238  0.00  0.00    +0.022 C 
ENDBRANCH   1  11
BRANCH   4  14
ATOM     14  N   UNL     1       5.502  -6.162  -0.087  0.00  0.00    -0.280 N 
ATOM     15  C   UNL     1       5.638  -7.053   0.915  0.00  0.00    +0.269 C 
ATOM     16  O   UNL     1       4.792  -7.123   1.785  0.00  0.00    -0.268 OA
ATOM     17  H   UNL     1       6.135  -6.159  -0.822  0.00  0.00    +0.155 HD
BRANCH  15  18
ATOM     18  C   UNL     1       6.816  -7.943   0.957  0.00  0.00    +0.151 A 
ATOM     19  C   UNL     1       7.095  -8.926   1.934  0.00  0.00    +0.006 A 
ATOM     20  C   UNL     1       8.268  -9.486   1.567  0.00  0.00    +0.043 A 
ATOM     21  N   UNL     1       8.665  -8.868   0.431  0.00  0.00    -0.270 N 
ATOM     22  N   UNL     1       7.806  -7.977   0.087  0.00  0.00    -0.166 NA
ATOM     23  C   UNL     1       9.894  -9.175  -0.304  0.00  0.00    +0.172 C 
ATOM     24  C   UNL     1       8.662 -10.563   2.553  0.00  0.00    +0.056 C 
ATOM     25  C   UNL     1       7.797 -10.296   3.805  0.00  0.00    +0.011 C 
ATOM     26  C   UNL     1       6.579  -9.561   3.202  0.00  0.00    +0.039 C 
ENDBRANCH  15  18
ENDBRANCH   4  14
TORSDOF 3
