REMARK  Name = ZINC63818965
REMARK  7 active torsions:
REMARK  status: ('A' for Active; 'I' for Inactive)
REMARK    1  A    between atoms: C_4  and  C_7
REMARK    2  A    between atoms: C_7  and  C_9
REMARK    3  A    between atoms: C_7  and  O_17
REMARK    4  A    between atoms: C_9  and  C_11
REMARK    5  A    between atoms: O_17  and  C_18
REMARK    6  A    between atoms: C_18  and  C_20
REMARK    7  A    between atoms: C_20  and  C_21
REMARK                            x       y       z     vdW  Elec       q    Type
REMARK                         _______ _______ _______ _____ _____    ______ ____
ROOT
ATOM      1  C   UNL     1       3.692  -0.700  -0.044  0.00  0.00    +0.277 C 
ENDROOT
BRANCH   1   5
ATOM      2  C   UNL     1       0.104   1.617  -0.101  0.00  0.00    +0.000 A 
ATOM      3  C   UNL     1       1.333   2.248  -0.065  0.00  0.00    +0.000 A 
ATOM      4  C   UNL     1       2.495   1.498  -0.047  0.00  0.00    +0.008 A 
ATOM      5  C   UNL     1       2.426   0.117  -0.064  0.00  0.00    +0.000 A 
ATOM      6  C   UNL     1       1.197  -0.514  -0.099  0.00  0.00    +0.008 A 
ATOM      7  C   UNL     1       0.036   0.236  -0.119  0.00  0.00    +0.000 A 
ENDBRANCH   1   5
BRANCH   1   8
ATOM      8  C   UNL     1       4.014  -1.161  -1.442  0.00  0.00    +0.208 C 
ATOM      9  O   UNL     1       3.729  -2.286  -1.791  0.00  0.00    -0.288 OA
BRANCH   8  10
ATOM     10  C   UNL     1       4.676  -0.244  -2.385  0.00  0.00    +0.022 A 
ATOM     11  C   UNL     1       5.123   1.008  -1.951  0.00  0.00    +0.011 A 
ATOM     12  C   UNL     1       5.742   1.861  -2.840  0.00  0.00    +0.001 A 
ATOM     13  C   UNL     1       5.921   1.481  -4.159  0.00  0.00    +0.000 A 
ATOM     14  C   UNL     1       5.481   0.244  -4.596  0.00  0.00    +0.001 A 
ATOM     15  C   UNL     1       4.865  -0.623  -3.718  0.00  0.00    +0.011 A 
ENDBRANCH   8  10
ENDBRANCH   1   8
BRANCH   1  16
ATOM     16  O   UNL     1       3.512  -1.837   0.802  0.00  0.00    -0.448 OA
BRANCH  16  17
ATOM     17  C   UNL     1       3.830  -1.689   2.098  0.00  0.00    +0.312 C 
ATOM     18  O   UNL     1       4.247  -0.629   2.500  0.00  0.00    -0.250 OA
BRANCH  17  19
ATOM     19  C   UNL     1       3.666  -2.845   3.051  0.00  0.00    +0.153 C 
BRANCH  19  20
ATOM     20  C   UNL     1       4.089  -2.420   4.434  0.00  0.00    -0.031 C 
ATOM     21  C   UNL     1       3.289  -1.965   5.425  0.00  0.00    -0.001 A 
ATOM     22  C   UNL     1       1.841  -1.738   5.509  0.00  0.00    +0.010 A 
ATOM     23  C   UNL     1       1.317  -1.264   6.662  0.00  0.00    +0.001 A 
ATOM     24  C   UNL     1       2.121  -0.984   7.776  0.00  0.00    +0.002 A 
ATOM     25  C   UNL     1       3.458  -1.167   7.775  0.00  0.00    +0.026 A 
ATOM     26  C   UNL     1       4.115  -1.663   6.615  0.00  0.00    +0.043 A 
ATOM     27  N   UNL     1       5.377  -1.920   6.370  0.00  0.00    -0.380 N 
ATOM     28  C   UNL     1       5.493  -2.421   4.996  0.00  0.00    +0.145 C 
ATOM     29  H   UNL     1       6.110  -1.802   6.993  0.00  0.00    +0.160 HD
ENDBRANCH  19  20
ENDBRANCH  17  19
ENDBRANCH  16  17
ENDBRANCH   1  16
TORSDOF 7
