REMARK  Name = ZINC06149208
REMARK  12 active torsions:
REMARK  status: ('A' for Active; 'I' for Inactive)
REMARK    1  A    between atoms: C_1  and  C_2
REMARK    2  A    between atoms: C_2  and  C_3
REMARK    3  A    between atoms: C_3  and  C_4
REMARK    4  A    between atoms: C_3  and  C_5
REMARK    5  A    between atoms: C_3  and  N_6
REMARK    6  A    between atoms: C_7  and  C_11
REMARK    7  A    between atoms: C_11  and  C_13
REMARK    8  A    between atoms: C_11  and  N_64
REMARK    9  A    between atoms: C_17  and  O_25
REMARK   10  A    between atoms: O_25  and  C_26
REMARK   11  A    between atoms: C_26  and  C_27
REMARK   12  A    between atoms: C_30  and  O_33
REMARK                            x       y       z     vdW  Elec       q    Type
REMARK                         _______ _______ _______ _____ _____    ______ ____
ROOT
ATOM      1  C   UNL     1       2.528   1.003  -0.063  0.00  0.00    +0.039 C 
ENDROOT
BRANCH   1   2
ATOM      2  C   UNL     1       1.340   1.913  -0.232  0.00  0.00    +0.011 A 
ATOM      3  C   UNL     1       0.087   1.395  -0.240  0.00  0.00    +0.017 A 
ATOM      4  C   UNL     1      -1.047   2.305  -0.412  0.00  0.00    +0.002 A 
ATOM      5  C   UNL     1      -2.361   1.826  -0.434  0.00  0.00    +0.055 A 
ATOM      6  C   UNL     1      -3.406   2.712  -0.599  0.00  0.00    +0.121 A 
ATOM      7  C   UNL     1      -3.157   4.075  -0.744  0.00  0.00    +0.047 A 
ATOM      8  C   UNL     1      -1.868   4.560  -0.712  0.00  0.00    +0.030 A 
ATOM      9  C   UNL     1      -0.800   3.684  -0.552  0.00  0.00    +0.049 A 
ATOM     10  N   UNL     1       0.500   4.148  -0.536  0.00  0.00    -0.322 N 
ATOM     11  H   UNL     1       0.675   5.127  -0.639  0.00  0.00    +0.169 HD
ATOM     12  C   UNL     1       1.534   3.303  -0.382  0.00  0.00    +0.251 A 
ATOM     13  O   UNL     1       2.669   3.748  -0.373  0.00  0.00    -0.268 OA
BRANCH   6  14
ATOM     14  O   UNL     1      -4.686   2.253  -0.621  0.00  0.00    -0.492 OA
BRANCH  14  15
ATOM     15  C   UNL     1      -5.720   3.222  -0.796  0.00  0.00    +0.225 C 
ATOM     16  C   UNL     1      -7.081   2.522  -0.795  0.00  0.00    +0.048 C 
ENDBRANCH  14  15
ENDBRANCH   6  14
ENDBRANCH   1   2
BRANCH   1  22
ATOM     17  C   UNL     1       4.727   0.498  -0.941  0.00  0.00    -0.075 C 
ATOM     18  C   UNL     1       5.724   0.847  -2.049  0.00  0.00    +0.013 C 
ATOM     19  C   UNL     1       5.137   0.437  -3.403  0.00  0.00    +0.111 C 
ATOM     20  C   UNL     1       3.796   1.147  -3.606  0.00  0.00    +0.013 C 
ATOM     21  C   UNL     1       2.856   0.791  -2.452  0.00  0.00    -0.075 C 
ATOM     22  N   UNL     1       3.467   1.233  -1.181  0.00  0.00    +0.389 N 
ATOM     23  H   UNL     1       3.673   2.237  -1.242  0.00  0.00    -0.080 HD
BRANCH  19  24
ATOM     24  O   UNL     1       6.039   0.811  -4.447  0.00  0.00    -0.392 OA
ATOM     25  H   UNL     1       6.910   0.397  -4.381  0.00  0.00    +0.210 HD
ENDBRANCH  19  24
ENDBRANCH   1  22
BRANCH   1  27
ATOM     26  N   UNL     1       3.273   0.540   2.332  0.00  0.00    -0.225 N 
ATOM     27  C   UNL     1       3.224   1.320   1.236  0.00  0.00    +0.143 A 
ATOM     28  N   UNL     1       3.893   2.410   1.519  0.00  0.00    -0.115 NA
ATOM     29  N   UNL     1       4.335   2.304   2.725  0.00  0.00    -0.023 NA
ATOM     30  N   UNL     1       3.965   1.174   3.218  0.00  0.00    -0.043 NA
BRANCH  26  31
ATOM     31  C   UNL     1       2.659  -0.780   2.489  0.00  0.00    +0.061 C 
ATOM     32  C   UNL     1       1.153  -0.676   2.237  0.00  0.00    +0.036 C 
ATOM     33  C   UNL     1       3.278  -1.753   1.483  0.00  0.00    +0.036 C 
BRANCH  31  35
ATOM     34  C   UNL     1       2.263  -2.671   4.074  0.00  0.00    +0.006 C 
ATOM     35  C   UNL     1       2.904  -1.291   3.910  0.00  0.00    +0.026 C 
ENDBRANCH  31  35
ENDBRANCH  26  31
ENDBRANCH   1  27
TORSDOF 8
