REMARK  Name = ZINC58436682
REMARK  8 active torsions:
REMARK  status: ('A' for Active; 'I' for Inactive)
REMARK    1  A    between atoms: C_1  and  C_2
REMARK    2  A    between atoms: C_2  and  N_3
REMARK    3  A    between atoms: C_12  and  C_14
REMARK    4  A    between atoms: N_16  and  N_17
REMARK    5  A    between atoms: C_18  and  C_20
REMARK    6  A    between atoms: C_20  and  C_22
REMARK    7  A    between atoms: C_20  and  N_33
REMARK    8  A    between atoms: C_22  and  C_23
REMARK                            x       y       z     vdW  Elec       q    Type
REMARK                         _______ _______ _______ _____ _____    ______ ____
ROOT
ATOM      1  N   UNL     1      -2.563  -1.245  -5.561  0.00  0.00    -0.233 N 
ATOM      2  C   UNL     1      -3.884  -0.997  -5.456  0.00  0.00    +0.250 C 
ATOM      3  O   UNL     1      -4.345  -0.608  -4.404  0.00  0.00    -0.272 OA
ATOM      4  H   UNL     1      -2.194  -1.556  -6.403  0.00  0.00    +0.173 HD
ENDROOT
BRANCH   1   7
ATOM      5  C   UNL     1      -0.403  -1.301  -4.562  0.00  0.00    +0.281 C 
ATOM      6  O   UNL     1       0.060  -1.691  -5.616  0.00  0.00    -0.267 OA
ATOM      7  N   UNL     1      -1.724  -1.053  -4.456  0.00  0.00    -0.229 N 
ATOM      8  H   UNL     1      -2.093  -0.741  -3.615  0.00  0.00    +0.173 HD
BRANCH   5  18
ATOM      9  N   UNL     1       0.688  -0.476  -1.203  0.00  0.00    -0.229 N 
ATOM     10  C   UNL     1       2.020  -0.677  -1.143  0.00  0.00    +0.275 A 
ATOM     11  O   UNL     1       2.635  -0.470  -0.112  0.00  0.00    -0.266 OA
ATOM     12  C   UNL     1       2.713  -1.151  -2.349  0.00  0.00    +0.050 A 
ATOM     13  C   UNL     1       4.083  -1.387  -2.390  0.00  0.00    +0.014 A 
ATOM     14  C   UNL     1       4.657  -1.831  -3.562  0.00  0.00    +0.001 A 
ATOM     15  C   UNL     1       3.884  -2.042  -4.696  0.00  0.00    +0.001 A 
ATOM     16  C   UNL     1       2.524  -1.814  -4.676  0.00  0.00    +0.011 A 
ATOM     17  C   UNL     1       1.925  -1.366  -3.503  0.00  0.00    +0.020 A 
ATOM     18  C   UNL     1       0.481  -1.098  -3.397  0.00  0.00    +0.155 A 
ATOM     19  N   UNL     1      -0.010  -0.682  -2.256  0.00  0.00    -0.163 NA
BRANCH   9  21
ATOM     20  C   UNL     1      -0.019   1.526   0.010  0.00  0.00    +0.029 C 
ATOM     21  C   UNL     1       0.002  -0.004   0.002  0.00  0.00    +0.144 C 
ENDBRANCH   9  21
ENDBRANCH   5  18
ENDBRANCH   1   7
BRANCH   2  22
ATOM     22  C   UNL     1      -4.787  -1.204  -6.644  0.00  0.00    +0.166 C 
BRANCH  22  23
ATOM     23  N   UNL     1      -6.025  -0.445  -6.455  0.00  0.00    -0.288 N 
ATOM     24  C   UNL     1      -6.818  -0.703  -5.395  0.00  0.00    +0.298 C 
ATOM     25  O   UNL     1      -6.504  -1.565  -4.597  0.00  0.00    -0.253 OA
ATOM     26  N   UNL     1      -7.957  -0.005  -5.221  0.00  0.00    -0.313 N 
ATOM     27  H   UNL     1      -6.275   0.243  -7.091  0.00  0.00    +0.151 HD
ATOM     28  H   UNL     1      -8.207   0.683  -5.857  0.00  0.00    +0.146 HD
ATOM     29  H   UNL     1      -8.528  -0.190  -4.458  0.00  0.00    +0.146 HD
ENDBRANCH  22  23
BRANCH  22  30
ATOM     30  C   UNL     1      -5.116  -2.691  -6.782  0.00  0.00    +0.069 C 
BRANCH  30  31
ATOM     31  C   UNL     1      -5.917  -2.914  -8.039  0.00  0.00    -0.020 A 
ATOM     32  C   UNL     1      -7.255  -2.969  -8.135  0.00  0.00    +0.087 A 
ATOM     33  N   UNL     1      -7.621  -3.186  -9.435  0.00  0.00    -0.360 N 
ATOM     34  H   UNL     1      -8.535  -3.263  -9.751  0.00  0.00    +0.165 HD
ATOM     35  C   UNL     1      -6.500  -3.279 -10.228  0.00  0.00    +0.047 A 
ATOM     36  C   UNL     1      -5.383  -3.107  -9.390  0.00  0.00    +0.003 A 
ATOM     37  C   UNL     1      -4.095  -3.147  -9.928  0.00  0.00    +0.010 A 
ATOM     38  C   UNL     1      -3.926  -3.350 -11.268  0.00  0.00    +0.001 A 
ATOM     39  C   UNL     1      -5.025  -3.517 -12.100  0.00  0.00    +0.002 A 
ATOM     40  C   UNL     1      -6.304  -3.490 -11.589  0.00  0.00    +0.026 A 
ENDBRANCH  30  31
ENDBRANCH  22  30
ENDBRANCH   2  22
TORSDOF 7
