REMARK  Name = ZINC39863096
REMARK  5 active torsions:
REMARK  status: ('A' for Active; 'I' for Inactive)
REMARK    1  A    between atoms: C_1  and  C_2
REMARK    2  A    between atoms: C_2  and  C_22
REMARK    3  A    between atoms: N_6  and  C_16
REMARK    4  A    between atoms: N_8  and  C_9
REMARK    5  A    between atoms: C_26  and  N_28
REMARK                            x       y       z     vdW  Elec       q    Type
REMARK                         _______ _______ _______ _____ _____    ______ ____
ROOT
ATOM      1  C   UNL     1      -1.034   1.636   0.143  0.00  0.00    +0.045 C 
ATOM      2  C   UNL     1      -0.875   0.142   0.034  0.00  0.00    -0.024 C 
ATOM      3  C   UNL     1      -0.726  -0.608   1.155  0.00  0.00    +0.081 C 
ATOM      4  C   UNL     1      -0.698  -0.183   2.569  0.00  0.00    +0.260 C 
ATOM      5  O   UNL     1      -0.816   0.986   2.886  0.00  0.00    -0.269 OA
ATOM      6  N   UNL     1      -0.538  -1.133   3.476  0.00  0.00    -0.243 N 
ATOM      7  C   UNL     1      -0.407  -2.450   3.098  0.00  0.00    +0.170 C 
ATOM      8  N   UNL     1      -0.243  -3.508   3.864  0.00  0.00    -0.206 NA
ATOM      9  S   UNL     1      -0.521  -2.375   1.318  0.00  0.00    -0.048 S 
ENDROOT
BRANCH   8  10
ATOM     10  C   UNL     1      -0.349  -3.392   5.218  0.00  0.00    +0.155 A 
ATOM     11  C   UNL     1      -1.613  -3.379   5.818  0.00  0.00    +0.048 A 
ATOM     12  C   UNL     1      -1.703  -3.261   7.191  0.00  0.00    +0.005 A 
ATOM     13  C   UNL     1      -0.528  -3.160   7.928  0.00  0.00    +0.020 A 
ATOM     14  C   UNL     1       0.688  -3.180   7.273  0.00  0.00    +0.113 A 
ATOM     15  N   UNL     1       0.750  -3.298   5.962  0.00  0.00    -0.236 NA
ENDBRANCH   8  10
BRANCH   6  16
ATOM     16  C   UNL     1      -0.500  -0.779   4.897  0.00  0.00    +0.084 C 
ATOM     17  C   UNL     1      -1.834  -0.148   5.301  0.00  0.00    +0.023 C 
ATOM     18  C   UNL     1      -1.795   0.221   6.785  0.00  0.00    +0.002 C 
ATOM     19  C   UNL     1      -0.663   1.220   7.032  0.00  0.00    +0.000 C 
ATOM     20  C   UNL     1       0.671   0.590   6.628  0.00  0.00    +0.002 C 
ATOM     21  C   UNL     1       0.632   0.220   5.144  0.00  0.00    +0.023 C 
ENDBRANCH   6  16
BRANCH   2  22
ATOM     22  C   UNL     1      -0.879  -0.504  -1.287  0.00  0.00    -0.019 A 
ATOM     23  C   UNL     1       0.269  -1.153  -1.756  0.00  0.00    +0.008 A 
ATOM     24  C   UNL     1       0.260  -1.758  -2.995  0.00  0.00    +0.002 A 
ATOM     25  C   UNL     1      -0.880  -1.726  -3.778  0.00  0.00    +0.023 A 
ATOM     26  C   UNL     1      -2.026  -1.084  -3.323  0.00  0.00    +0.025 A 
ATOM     27  C   UNL     1      -2.032  -0.477  -2.077  0.00  0.00    +0.031 A 
BRANCH  26  28
ATOM     28  N   UNL     1      -3.174  -1.056  -4.119  0.00  0.00    -0.358 N 
ATOM     29  H   UNL     1      -3.171  -1.485  -4.989  0.00  0.00    +0.142 HD
ATOM     30  H   UNL     1      -3.974  -0.609  -3.801  0.00  0.00    +0.142 HD
ENDBRANCH  26  28
ENDBRANCH   2  22
TORSDOF 4
