REMARK  Name = ZINC08719404
REMARK  8 active torsions:
REMARK  status: ('A' for Active; 'I' for Inactive)
REMARK    1  A    between atoms: C_4  and  C_7
REMARK    2  A    between atoms: C_7  and  C_9
REMARK    3  A    between atoms: C_14  and  N_15
REMARK    4  A    between atoms: C_16  and  C_18
REMARK    5  A    between atoms: C_18  and  S_19
REMARK    6  A    between atoms: S_19  and  C_20
REMARK    7  A    between atoms: C_23  and  C_26
REMARK    8  A    between atoms: N_24  and  N_25
REMARK                            x       y       z     vdW  Elec       q    Type
REMARK                         _______ _______ _______ _____ _____    ______ ____
ROOT
ATOM      1  N   UNL     1      -2.597  -0.144   0.120  0.00  0.00    -0.284 N 
ATOM      2  C   UNL     1      -3.791  -0.767   0.071  0.00  0.00    +0.228 C 
ATOM      3  O   UNL     1      -4.814  -0.116   0.047  0.00  0.00    -0.275 OA
ATOM      4  H   UNL     1      -1.784  -0.662   0.227  0.00  0.00    +0.155 HD
ENDROOT
BRANCH   1  10
ATOM      5  C   UNL     1      -1.441   1.939   0.565  0.00  0.00    +0.043 A 
ATOM      6  C   UNL     1      -1.389   3.333   0.461  0.00  0.00    +0.013 A 
ATOM      7  C   UNL     1      -2.400   4.011  -0.184  0.00  0.00    +0.001 A 
ATOM      8  C   UNL     1      -3.474   3.320  -0.723  0.00  0.00    +0.002 A 
ATOM      9  C   UNL     1      -3.542   1.945  -0.624  0.00  0.00    +0.024 A 
ATOM     10  C   UNL     1      -2.530   1.243   0.019  0.00  0.00    +0.044 A 
BRANCH   5  11
ATOM     11  C   UNL     1      -0.360   1.207   1.250  0.00  0.00    +0.195 C 
ATOM     12  O   UNL     1       0.736   1.117   0.733  0.00  0.00    -0.287 OA
BRANCH  11  16
ATOM     13  C   UNL     1      -1.074  -0.575   5.039  0.00  0.00    +0.000 A 
ATOM     14  C   UNL     1       0.140  -0.769   4.405  0.00  0.00    +0.001 A 
ATOM     15  C   UNL     1       0.379  -0.193   3.175  0.00  0.00    +0.012 A 
ATOM     16  C   UNL     1      -0.609   0.587   2.569  0.00  0.00    +0.022 A 
ATOM     17  C   UNL     1      -1.830   0.782   3.217  0.00  0.00    +0.012 A 
ATOM     18  C   UNL     1      -2.057   0.197   4.445  0.00  0.00    +0.001 A 
ENDBRANCH  11  16
ENDBRANCH   5  11
ENDBRANCH   1  10
BRANCH   2  19
ATOM     19  C   UNL     1      -3.855  -2.272   0.047  0.00  0.00    +0.173 C 
BRANCH  19  20
ATOM     20  S   UNL     1      -5.585  -2.801  -0.019  0.00  0.00    -0.075 S 
BRANCH  20  21
ATOM     21  C   UNL     1      -5.370  -4.550  -0.037  0.00  0.00    +0.209 A 
ATOM     22  N   UNL     1      -4.225  -5.194  -0.014  0.00  0.00    -0.121 NA
ATOM     23  N   UNL     1      -4.432  -6.463  -0.034  0.00  0.00    -0.127 NA
ATOM     24  C   UNL     1      -5.721  -6.705  -0.081  0.00  0.00    +0.183 A 
ATOM     25  N   UNL     1      -6.362  -5.488  -0.084  0.00  0.00    -0.224 N 
BRANCH  24  26
ATOM     26  C   UNL     1      -6.364  -8.036  -0.123  0.00  0.00    +0.039 A 
ATOM     27  C   UNL     1      -7.341  -8.313  -1.080  0.00  0.00    +0.013 A 
ATOM     28  C   UNL     1      -7.937  -9.557  -1.113  0.00  0.00    +0.001 A 
ATOM     29  C   UNL     1      -7.567 -10.530  -0.202  0.00  0.00    +0.001 A 
ATOM     30  C   UNL     1      -6.599 -10.263   0.750  0.00  0.00    +0.021 A 
ATOM     31  C   UNL     1      -5.991  -9.024   0.792  0.00  0.00    +0.052 A 
ATOM     32 CL   UNL     1      -4.771  -8.693   1.982  0.00  0.00    -0.083 Cl
ENDBRANCH  24  26
BRANCH  25  33
ATOM     33  N   UNL     1      -7.708  -5.263  -0.127  0.00  0.00    -0.295 N 
ATOM     34  H   UNL     1      -8.046  -5.272  -1.077  0.00  0.00    +0.163 HD
ATOM     35  H   UNL     1      -8.205  -5.935   0.439  0.00  0.00    +0.163 HD
ENDBRANCH  25  33
ENDBRANCH  20  21
ENDBRANCH  19  20
ENDBRANCH   2  19
TORSDOF 8
