REMARK  Name = ZINC46698000
REMARK  7 active torsions:
REMARK  status: ('A' for Active; 'I' for Inactive)
REMARK    1  A    between atoms: C_1  and  C_2
REMARK    2  A    between atoms: C_3  and  C_12
REMARK    3  A    between atoms: C_5  and  C_7
REMARK    4  A    between atoms: N_14  and  C_15
REMARK    5  A    between atoms: C_20  and  C_21
REMARK    6  A    between atoms: C_25  and  C_32
REMARK    7  A    between atoms: C_28  and  C_31
REMARK                            x       y       z     vdW  Elec       q    Type
REMARK                         _______ _______ _______ _____ _____    ______ ____
ROOT
ATOM      1  C   UNL     1      -0.365  -0.622  -4.978  0.00  0.00    +0.046 A 
ATOM      2  C   UNL     1      -0.387   0.729  -5.298  0.00  0.00    +0.024 A 
ATOM      3  C   UNL     1      -0.263   1.131  -6.612  0.00  0.00    +0.002 A 
ATOM      4  C   UNL     1      -0.116   0.192  -7.621  0.00  0.00    +0.001 A 
ATOM      5  C   UNL     1      -0.092  -1.153  -7.323  0.00  0.00    +0.015 A 
ATOM      6  C   UNL     1      -0.211  -1.574  -5.997  0.00  0.00    +0.058 A 
ENDROOT
BRANCH   6   7
ATOM      7  C   UNL     1      -0.180  -3.012  -5.669  0.00  0.00    +0.248 C 
ATOM      8  O   UNL     1      -1.074  -3.505  -5.009  0.00  0.00    -0.270 OA
ATOM      9  N   UNL     1       0.840  -3.780  -6.103  0.00  0.00    -0.297 N 
ATOM     10  C   UNL     1       1.890  -3.216  -6.961  0.00  0.00    +0.111 C 
ATOM     11  C   UNL     1       3.254  -3.504  -6.326  0.00  0.00    +0.004 C 
ATOM     12  C   UNL     1       3.388  -5.008  -6.075  0.00  0.00    +0.009 C 
ATOM     13  C   UNL     1       2.296  -5.464  -5.104  0.00  0.00    +0.004 C 
ATOM     14  C   UNL     1       0.925  -5.196  -5.720  0.00  0.00    +0.111 C 
ATOM     15  C   UNL     1       2.452  -6.960  -4.827  0.00  0.00    +0.009 C 
ATOM     16  C   UNL     1       4.365  -3.042  -7.271  0.00  0.00    +0.009 C 
ENDBRANCH   6   7
BRANCH   1  19
ATOM     17  C   UNL     1      -1.243  -0.312  -2.796  0.00  0.00    +0.257 C 
ATOM     18  O   UNL     1      -1.757   0.729  -3.162  0.00  0.00    -0.269 OA
ATOM     19  N   UNL     1      -0.490  -1.029  -3.653  0.00  0.00    -0.280 N 
ATOM     20  H   UNL     1      -0.034  -1.829  -3.346  0.00  0.00    +0.155 HD
BRANCH  17  23
ATOM     21  C   UNL     1      -2.903   1.085  -0.592  0.00  0.00    +0.067 C 
ATOM     22  C   UNL     1      -2.170  -0.216  -0.387  0.00  0.00    +0.058 A 
ATOM     23  C   UNL     1      -1.443  -0.785  -1.426  0.00  0.00    +0.097 A 
ATOM     24  S   UNL     1      -0.820  -2.257  -0.622  0.00  0.00    -0.062 S 
ATOM     25  C   UNL     1      -1.573  -1.971   0.974  0.00  0.00    +0.116 A 
ATOM     26  N   UNL     1      -2.207  -0.817   0.768  0.00  0.00    -0.243 NA
BRANCH  25  27
ATOM     27  C   UNL     1      -1.505  -2.789   2.192  0.00  0.00    +0.044 A 
ATOM     28  C   UNL     1      -0.837  -3.982   2.406  0.00  0.00    +0.018 A 
ATOM     29  C   UNL     1      -0.924  -4.566   3.647  0.00  0.00    +0.008 A 
ATOM     30  C   UNL     1      -1.658  -3.961   4.618  0.00  0.00    +0.046 A 
ATOM     31  S   UNL     1      -2.258  -2.500   3.785  0.00  0.00    -0.095 S 
ENDBRANCH  25  27
ENDBRANCH  17  23
ENDBRANCH   1  19
TORSDOF 4
