REMARK  Name = ZINC45008066
REMARK  4 active torsions:
REMARK  status: ('A' for Active; 'I' for Inactive)
REMARK    1  A    between atoms: C_4  and  C_7
REMARK    2  A    between atoms: C_9  and  C_21
REMARK    3  A    between atoms: C_9  and  O_27
REMARK    4  A    between atoms: N_10  and  C_14
REMARK                            x       y       z     vdW  Elec       q    Type
REMARK                         _______ _______ _______ _____ _____    ______ ____
ROOT
ATOM      1  C   UNL     1       3.889  -0.719  -0.024  0.00  0.00    +0.264 C 
ATOM      2  C   UNL     1       4.312  -1.222  -1.425  0.00  0.00    +0.210 C 
ATOM      3  N   UNL     1       3.537  -2.473  -1.554  0.00  0.00    -0.200 N 
ATOM      4  C   UNL     1       3.079  -2.800  -0.331  0.00  0.00    +0.410 C 
ATOM      5  O   UNL     1       2.382  -3.771  -0.112  0.00  0.00    -0.226 OA
ATOM      6  O   UNL     1       3.477  -1.940   0.623  0.00  0.00    -0.437 OA
ENDROOT
BRANCH   3   7
ATOM      7  C   UNL     1       3.318  -3.189  -2.737  0.00  0.00    +0.043 A 
ATOM      8  C   UNL     1       3.865  -4.456  -2.894  0.00  0.00    +0.025 A 
ATOM      9  C   UNL     1       3.647  -5.160  -4.062  0.00  0.00    +0.022 A 
ATOM     10  C   UNL     1       2.885  -4.605  -5.075  0.00  0.00    +0.041 A 
ATOM     11  C   UNL     1       2.340  -3.342  -4.921  0.00  0.00    +0.022 A 
ATOM     12  C   UNL     1       2.549  -2.636  -3.752  0.00  0.00    +0.025 A 
ATOM     13 CL   UNL     1       2.614  -5.493  -6.542  0.00  0.00    -0.084 Cl
ENDBRANCH   3   7
BRANCH   1  17
ATOM     14  C   UNL     1       0.633   2.030  -0.311  0.00  0.00    +0.000 A 
ATOM     15  C   UNL     1       1.927   2.502  -0.190  0.00  0.00    +0.000 A 
ATOM     16  C   UNL     1       2.980   1.612  -0.097  0.00  0.00    +0.007 A 
ATOM     17  C   UNL     1       2.740   0.251  -0.124  0.00  0.00    -0.002 A 
ATOM     18  C   UNL     1       1.446  -0.221  -0.245  0.00  0.00    +0.007 A 
ATOM     19  C   UNL     1       0.393   0.669  -0.339  0.00  0.00    +0.000 A 
ENDBRANCH   1  17
BRANCH   2  20
ATOM     20  C   UNL     1       5.792  -1.501  -1.470  0.00  0.00    +0.007 A 
ATOM     21  C   UNL     1       6.681  -0.474  -1.729  0.00  0.00    +0.008 A 
ATOM     22  C   UNL     1       8.039  -0.730  -1.771  0.00  0.00    +0.000 A 
ATOM     23  C   UNL     1       8.508  -2.012  -1.554  0.00  0.00    +0.000 A 
ATOM     24  C   UNL     1       7.619  -3.038  -1.294  0.00  0.00    +0.000 A 
ATOM     25  C   UNL     1       6.261  -2.782  -1.248  0.00  0.00    +0.008 A 
ENDBRANCH   2  20
BRANCH   2  26
ATOM     26  O   UNL     1       3.938  -0.285  -2.436  0.00  0.00    -0.364 OA
ATOM     27  H   UNL     1       4.253  -0.514  -3.321  0.00  0.00    +0.213 HD
ENDBRANCH   2  26
TORSDOF 4
