REMARK  Name = ZINC36038917
REMARK  14 active torsions:
REMARK  status: ('A' for Active; 'I' for Inactive)
REMARK    1  A    between atoms: C_1  and  C_2
REMARK    2  A    between atoms: C_4  and  N_23
REMARK    3  A    between atoms: C_6  and  S_8
REMARK    4  A    between atoms: S_8  and  C_9
REMARK    5  A    between atoms: C_9  and  C_10
REMARK    6  A    between atoms: C_13  and  C_15
REMARK    7  A    between atoms: N_17  and  C_18
REMARK    8  A    between atoms: C_18  and  C_19
REMARK    9  A    between atoms: C_19  and  N_20
REMARK   10  A    between atoms: N_20  and  C_21
REMARK   11  A    between atoms: N_20  and  C_22
REMARK   12  A    between atoms: N_26  and  C_29
REMARK   13  A    between atoms: C_32  and  O_35
REMARK   14  A    between atoms: O_35  and  C_36
REMARK                            x       y       z     vdW  Elec       q    Type
REMARK                         _______ _______ _______ _____ _____    ______ ____
ROOT
ATOM      1  C   UNL     1      -0.048   1.517   0.001  0.00  0.00    +0.066 C 
ATOM      2  C   UNL     1      -0.012   0.011  -0.007  0.00  0.00    +0.044 A 
ATOM      3  C   UNL     1      -0.009  -0.681  -1.203  0.00  0.00    +0.066 A 
ATOM      4  C   UNL     1       0.025  -2.076  -1.166  0.00  0.00    +0.126 A 
ATOM      5  N   UNL     1       0.052  -2.690   0.013  0.00  0.00    -0.207 NA
ATOM      6  C   UNL     1       0.048  -1.990   1.138  0.00  0.00    +0.191 A 
ATOM      7  N   UNL     1       0.022  -0.664   1.132  0.00  0.00    -0.227 NA
ENDROOT
BRANCH   4   8
ATOM      8  N   UNL     1       0.029  -2.811  -2.341  0.00  0.00    -0.312 N 
ATOM      9  C   UNL     1       0.061  -4.280  -2.304  0.00  0.00    +0.125 C 
ATOM     10  C   UNL     1      -1.130  -4.816  -3.108  0.00  0.00    +0.124 C 
ATOM     11  N   UNL     1      -1.158  -4.141  -4.412  0.00  0.00    -0.327 N 
ATOM     12  C   UNL     1      -1.191  -2.672  -4.449  0.00  0.00    +0.124 C 
ATOM     13  C   UNL     1      -0.006  -2.135  -3.645  0.00  0.00    +0.125 C 
BRANCH  11  14
ATOM     14  C   UNL     1      -1.154  -4.883  -5.599  0.00  0.00    +0.030 A 
ATOM     15  C   UNL     1      -1.053  -4.235  -6.823  0.00  0.00    +0.027 A 
ATOM     16  C   UNL     1      -1.049  -4.968  -7.994  0.00  0.00    +0.047 A 
ATOM     17  C   UNL     1      -1.145  -6.351  -7.947  0.00  0.00    +0.120 A 
ATOM     18  C   UNL     1      -1.247  -6.999  -6.724  0.00  0.00    +0.047 A 
ATOM     19  C   UNL     1      -1.246  -6.268  -5.553  0.00  0.00    +0.027 A 
BRANCH  17  20
ATOM     20  O   UNL     1      -1.141  -7.072  -9.100  0.00  0.00    -0.495 OA
ATOM     21  C   UNL     1      -1.243  -8.492  -8.977  0.00  0.00    +0.277 C 
ENDBRANCH  17  20
ENDBRANCH  11  14
ENDBRANCH   4   8
BRANCH   6  22
ATOM     22  S   UNL     1       0.085  -2.841   2.680  0.00  0.00    -0.078 S 
BRANCH  22  23
ATOM     23  C   UNL     1       0.067  -1.513   3.915  0.00  0.00    +0.151 C 
BRANCH  23  24
ATOM     24  C   UNL     1       0.097  -2.113   5.298  0.00  0.00    +0.116 A 
ATOM     25  C   UNL     1       1.210  -2.395   6.010  0.00  0.00    +0.046 A 
ATOM     26  C   UNL     1       0.790  -2.936   7.235  0.00  0.00    +0.055 A 
ATOM     27  C   UNL     1      -0.575  -2.957   7.208  0.00  0.00    +0.189 A 
ATOM     28  O   UNL     1      -0.977  -2.448   6.025  0.00  0.00    -0.454 OA
BRANCH  27  29
ATOM     29  C   UNL     1      -1.450  -3.443   8.280  0.00  0.00    +0.279 C 
ATOM     30  O   UNL     1      -0.968  -3.878   9.309  0.00  0.00    -0.267 OA
ATOM     31  N   UNL     1      -2.788  -3.408   8.125  0.00  0.00    -0.311 N 
ATOM     32  H   UNL     1      -3.172  -3.061   7.304  0.00  0.00    +0.149 HD
BRANCH  31  33
ATOM     33  C   UNL     1      -3.663  -3.893   9.195  0.00  0.00    +0.086 C 
BRANCH  33  34
ATOM     34  C   UNL     1      -5.124  -3.743   8.767  0.00  0.00    -0.061 C 
BRANCH  34  35
ATOM     35  N   UNL     1      -6.001  -4.229   9.841  0.00  0.00    +0.377 N 
ATOM     36  C   UNL     1      -5.852  -3.370  11.023  0.00  0.00    -0.097 C 
ATOM     37  C   UNL     1      -7.397  -4.197   9.385  0.00  0.00    -0.097 C 
ATOM     38  H   UNL     1      -5.747  -5.177  10.079  0.00  0.00    -0.083 HD
ENDBRANCH  34  35
ENDBRANCH  33  34
ENDBRANCH  31  33
ENDBRANCH  27  29
ENDBRANCH  23  24
ENDBRANCH  22  23
ENDBRANCH   6  22
TORSDOF 10
