REMARK  Name = ZINC36271650
REMARK  8 active torsions:
REMARK  status: ('A' for Active; 'I' for Inactive)
REMARK    1  A    between atoms: C_1  and  C_2
REMARK    2  A    between atoms: C_2  and  C_3
REMARK    3  A    between atoms: C_6  and  C_9
REMARK    4  A    between atoms: C_15  and  C_17
REMARK    5  A    between atoms: C_17  and  N_18
REMARK    6  A    between atoms: C_23  and  C_30
REMARK    7  A    between atoms: C_26  and  C_28
REMARK    8  A    between atoms: C_26  and  C_29
REMARK                            x       y       z     vdW  Elec       q    Type
REMARK                         _______ _______ _______ _____ _____    ______ ____
ROOT
ATOM      1  C   UNL     1       1.720  -2.108   5.787  0.00  0.00    +0.080 A 
ATOM      2  C   UNL     1       1.203  -2.414   7.015  0.00  0.00    +0.076 A 
ATOM      3  S   UNL     1       2.683  -2.919   7.882  0.00  0.00    -0.060 S 
ATOM      4  C   UNL     1       3.827  -2.672   6.531  0.00  0.00    +0.165 A 
ATOM      5  N   UNL     1       3.020  -2.251   5.576  0.00  0.00    -0.225 NA
ATOM      6  N   UNL     1       5.201  -2.876   6.495  0.00  0.00    -0.263 N 
ATOM      7  C   UNL     1       5.846  -3.323   7.591  0.00  0.00    +0.237 C 
ATOM      8  O   UNL     1       5.226  -3.547   8.609  0.00  0.00    -0.274 OA
ATOM      9  H   UNL     1       5.697  -2.697   5.680  0.00  0.00    +0.157 HD
ENDROOT
BRANCH   1  13
ATOM     10  C   UNL     1      -0.822  -0.729   2.670  0.00  0.00    -0.048 A 
ATOM     11  C   UNL     1       0.535  -0.874   2.440  0.00  0.00    +0.004 A 
ATOM     12  C   UNL     1       1.365  -1.321   3.448  0.00  0.00    +0.010 A 
ATOM     13  C   UNL     1       0.834  -1.627   4.700  0.00  0.00    +0.001 A 
ATOM     14  C   UNL     1      -0.534  -1.479   4.926  0.00  0.00    +0.010 A 
ATOM     15  C   UNL     1      -1.353  -1.026   3.912  0.00  0.00    +0.004 A 
BRANCH  10  17
ATOM     16  C   UNL     1      -1.805   1.286   1.612  0.00  0.00    +0.009 C 
ATOM     17  C   UNL     1      -1.722  -0.241   1.565  0.00  0.00    +0.032 C 
ENDBRANCH  10  17
ENDBRANCH   1  13
BRANCH   7  18
ATOM     18  C   UNL     1       7.336  -3.544   7.552  0.00  0.00    +0.214 C 
BRANCH  18  19
ATOM     19  N   UNL     1       7.792  -4.027   8.857  0.00  0.00    -0.215 N 
ATOM     20  C   UNL     1       8.188  -3.225   9.867  0.00  0.00    +0.247 C 
ATOM     21  O   UNL     1       8.233  -2.013   9.867  0.00  0.00    -0.273 OA
ATOM     22  C   UNL     1       8.565  -4.154  10.997  0.00  0.00    +0.113 C 
ATOM     23  C   UNL     1       7.680  -3.899  12.213  0.00  0.00    +0.038 C 
ATOM     24  C   UNL     1       8.057  -4.870  13.334  0.00  0.00    -0.011 C 
ATOM     25  C   UNL     1       9.529  -4.674  13.704  0.00  0.00    +0.009 C 
ATOM     26  C   UNL     1      10.405  -4.957  12.481  0.00  0.00    -0.032 C 
ATOM     27  C   UNL     1      10.037  -3.986  11.356  0.00  0.00    +0.041 C 
ATOM     28  C   UNL     1      10.175  -6.394  12.010  0.00  0.00    +0.011 C 
ATOM     29  C   UNL     1      11.877  -4.771  12.855  0.00  0.00    +0.011 C 
ATOM     30  C   UNL     1       7.183  -4.598  14.560  0.00  0.00    +0.007 C 
ATOM     31  N   UNL     1       8.318  -5.496  10.453  0.00  0.00    -0.285 N 
ATOM     32  C   UNL     1       7.863  -5.320   9.198  0.00  0.00    +0.310 C 
ATOM     33  O   UNL     1       7.554  -6.232   8.457  0.00  0.00    -0.252 OA
ATOM     34  H   UNL     1       8.452  -6.341  10.909  0.00  0.00    +0.151 HD
ENDBRANCH  18  19
ENDBRANCH   7  18
TORSDOF 4
