REMARK  Name = ZINC18197299
REMARK  8 active torsions:
REMARK  status: ('A' for Active; 'I' for Inactive)
REMARK    1  A    between atoms: C_1  and  C_2
REMARK    2  A    between atoms: C_6  and  C_7
REMARK    3  A    between atoms: C_14  and  O_15
REMARK    4  A    between atoms: C_22  and  C_25
REMARK    5  A    between atoms: C_28  and  O_33
REMARK    6  A    between atoms: C_29  and  O_31
REMARK    7  A    between atoms: O_31  and  C_32
REMARK    8  A    between atoms: O_33  and  C_34
REMARK                            x       y       z     vdW  Elec       q    Type
REMARK                         _______ _______ _______ _____ _____    ______ ____
ROOT
ATOM      1  C   UNL     1       1.479  -2.126  -0.023  0.00  0.00    +0.099 C 
ATOM      2  C   UNL     1       2.278  -2.490   1.195  0.00  0.00    +0.067 A 
ATOM      3  C   UNL     1       3.610  -2.800   1.134  0.00  0.00    +0.126 A 
ATOM      4  N   UNL     1       4.027  -3.074   2.385  0.00  0.00    -0.260 N 
ATOM      5  H   UNL     1       4.955  -3.330   2.655  0.00  0.00    +0.190 HD
ATOM      6  N   UNL     1       2.924  -2.935   3.243  0.00  0.00    -0.134 NA
ATOM      7  C   UNL     1       1.879  -2.586   2.526  0.00  0.00    +0.237 A 
ATOM      8  N   UNL     1       4.300  -2.796  -0.072  0.00  0.00    -0.303 N 
ATOM      9  C   UNL     1       3.578  -2.775  -1.240  0.00  0.00    +0.017 C 
ATOM     10  C   UNL     1       2.260  -2.481  -1.270  0.00  0.00    +0.025 C 
ATOM     11  C   UNL     1       1.546  -2.493  -2.481  0.00  0.00    +0.162 C 
ATOM     12  O   UNL     1       0.362  -2.218  -2.475  0.00  0.00    -0.292 OA
ATOM     13  C   UNL     1       2.212  -2.840  -3.783  0.00  0.00    +0.088 C 
ATOM     14  C   UNL     1       3.384  -3.786  -3.503  0.00  0.00    +0.032 C 
ATOM     15  C   UNL     1       4.327  -3.103  -2.511  0.00  0.00    +0.059 C 
ATOM     16  H   UNL     1       5.269  -2.809  -0.089  0.00  0.00    +0.153 HD
ENDROOT
BRANCH   1  22
ATOM     17  C   UNL     1      -1.286  -0.786   0.011  0.00  0.00    +0.044 C 
ATOM     18  C   UNL     1       0.002  -0.004   0.002  0.00  0.00    -0.039 A 
ATOM     19  C   UNL     1      -0.017   1.378   0.010  0.00  0.00    +0.011 A 
ATOM     20  C   UNL     1       1.160   2.051   0.002  0.00  0.00    +0.046 A 
ATOM     21  S   UNL     1       2.348   0.719  -0.017  0.00  0.00    -0.100 S 
ATOM     22  C   UNL     1       1.196  -0.645  -0.013  0.00  0.00    +0.005 A 
ENDBRANCH   1  22
BRANCH  14  23
ATOM     23  C   UNL     1       4.120  -4.076  -4.786  0.00  0.00    -0.040 A 
ATOM     24  C   UNL     1       4.689  -3.040  -5.504  0.00  0.00    +0.008 A 
ATOM     25  C   UNL     1       5.370  -3.301  -6.678  0.00  0.00    +0.049 A 
ATOM     26  C   UNL     1       5.474  -4.602  -7.144  0.00  0.00    +0.161 A 
ATOM     27  C   UNL     1       4.898  -5.644  -6.424  0.00  0.00    +0.162 A 
ATOM     28  C   UNL     1       4.221  -5.376  -5.245  0.00  0.00    +0.053 A 
BRANCH  27  29
ATOM     29  O   UNL     1       4.997  -6.923  -6.877  0.00  0.00    -0.491 OA
ATOM     30  C   UNL     1       4.380  -7.941  -6.087  0.00  0.00    +0.277 C 
ENDBRANCH  27  29
BRANCH  26  31
ATOM     31  O   UNL     1       6.139  -4.860  -8.302  0.00  0.00    -0.491 OA
ATOM     32  C   UNL     1       6.706  -3.742  -8.988  0.00  0.00    +0.277 C 
ENDBRANCH  26  31
ENDBRANCH  14  23
BRANCH   7  33
ATOM     33  O   UNL     1       0.626  -2.357   3.001  0.00  0.00    -0.491 OA
ATOM     34  H   UNL     1       0.614  -2.496   3.991  0.00  0.00    +0.294 HD
ENDBRANCH   7  33
TORSDOF 5
