REMARK  Name = ZINC51728798
REMARK  5 active torsions:
REMARK  status: ('A' for Active; 'I' for Inactive)
REMARK    1  A    between atoms: C_1  and  C_2
REMARK    2  A    between atoms: C_3  and  N_20
REMARK    3  A    between atoms: C_4  and  C_8
REMARK    4  A    between atoms: C_13  and  C_19
REMARK    5  A    between atoms: C_16  and  C_18
REMARK                            x       y       z     vdW  Elec       q    Type
REMARK                         _______ _______ _______ _____ _____    ______ ____
ROOT
ATOM      1  C   UNL     1       0.005   1.503   0.010  0.00  0.00    +0.067 C 
ATOM      2  C   UNL     1       0.014  -0.004   0.002  0.00  0.00    +0.054 A 
ATOM      3  C   UNL     1       0.025  -0.806  -1.096  0.00  0.00    +0.078 A 
ATOM      4  C   UNL     1       0.031  -2.133  -0.594  0.00  0.00    +0.168 A 
ATOM      5  N   UNL     1       0.022  -2.048   0.723  0.00  0.00    -0.167 NA
ATOM      6  N   UNL     1       0.018  -0.817   1.090  0.00  0.00    -0.279 N 
ATOM      7  H   UNL     1       0.015  -0.513   2.011  0.00  0.00    +0.189 HD
ENDROOT
BRANCH   4   8
ATOM      8  C   UNL     1       0.042  -3.372  -1.392  0.00  0.00    +0.269 C 
ATOM      9  O   UNL     1      -0.058  -3.316  -2.603  0.00  0.00    -0.268 OA
ATOM     10  N   UNL     1       0.164  -4.567  -0.781  0.00  0.00    -0.293 N 
ATOM     11  C   UNL     1       0.168  -4.660   0.686  0.00  0.00    +0.108 C 
ATOM     12  C   UNL     1       1.420  -5.426   1.127  0.00  0.00    +0.022 C 
ATOM     13  C   UNL     1       1.464  -6.778   0.411  0.00  0.00    -0.011 C 
ATOM     14  C   UNL     1       1.544  -6.554  -1.101  0.00  0.00    +0.025 C 
ATOM     15  C   UNL     1       0.288  -5.802  -1.567  0.00  0.00    +0.074 C 
ATOM     16  C   UNL     1      -0.949  -6.675  -1.350  0.00  0.00    +0.028 C 
ATOM     17  C   UNL     1       2.695  -7.560   0.875  0.00  0.00    +0.007 C 
ENDBRANCH   4   8
BRANCH   3  18
ATOM     18  N   UNL     1       0.031  -0.406  -2.440  0.00  0.00    -0.355 N 
ATOM     19  H   UNL     1       0.027   0.537  -2.666  0.00  0.00    +0.142 HD
ATOM     20  H   UNL     1       0.039  -1.073  -3.144  0.00  0.00    +0.142 HD
ENDBRANCH   3  18
TORSDOF 2
