REMARK  Name = ZINC26176851
REMARK  7 active torsions:
REMARK  status: ('A' for Active; 'I' for Inactive)
REMARK    1  A    between atoms: C_1  and  C_2
REMARK    2  A    between atoms: C_6  and  C_7
REMARK    3  A    between atoms: C_7  and  N_8
REMARK    4  A    between atoms: N_11  and  C_12
REMARK    5  A    between atoms: C_12  and  C_13
REMARK    6  A    between atoms: N_15  and  C_16
REMARK    7  A    between atoms: C_21  and  C_22
REMARK                            x       y       z     vdW  Elec       q    Type
REMARK                         _______ _______ _______ _____ _____    ______ ____
ROOT
ATOM      1  N   UNL     1      -1.349  -0.002   3.044  0.00  0.00    -0.295 N 
ATOM      2  C   UNL     1      -1.589   0.450   4.290  0.00  0.00    +0.300 C 
ATOM      3  O   UNL     1      -0.661   0.742   5.021  0.00  0.00    -0.253 OA
ATOM      4  N   UNL     1      -2.857   0.579   4.728  0.00  0.00    -0.291 N 
ATOM      5  H   UNL     1      -2.088  -0.235   2.461  0.00  0.00    +0.151 HD
ATOM      6  H   UNL     1      -3.597   0.346   4.145  0.00  0.00    +0.151 HD
ENDROOT
BRANCH   1   7
ATOM      7  C   UNL     1       0.030  -0.142   2.568  0.00  0.00    +0.148 C 
BRANCH   7  13
ATOM      8  C   UNL     1      -0.037   1.538  -0.003  0.00  0.00    +0.044 C 
ATOM      9  C   UNL     1      -0.005   0.031  -0.010  0.00  0.00    -0.039 A 
ATOM     10  C   UNL     1       0.001  -0.664  -1.205  0.00  0.00    +0.011 A 
ATOM     11  C   UNL     1       0.030  -2.019  -1.177  0.00  0.00    +0.046 A 
ATOM     12  S   UNL     1       0.049  -2.351   0.577  0.00  0.00    -0.100 S 
ATOM     13  C   UNL     1       0.023  -0.662   1.154  0.00  0.00    +0.010 A 
ENDBRANCH   7  13
ENDBRANCH   1   7
BRANCH   4  14
ATOM     14  C   UNL     1      -3.118   1.071   6.083  0.00  0.00    +0.202 C 
BRANCH  14  15
ATOM     15  C   UNL     1      -4.606   1.121   6.321  0.00  0.00    +0.234 C 
ATOM     16  O   UNL     1      -5.372   0.779   5.445  0.00  0.00    -0.274 OA
ATOM     17  N   UNL     1      -5.084   1.545   7.508  0.00  0.00    -0.284 N 
ATOM     18  H   UNL     1      -4.473   1.742   8.235  0.00  0.00    +0.155 HD
BRANCH  17  19
ATOM     19  C   UNL     1      -6.463   1.702   7.691  0.00  0.00    +0.036 A 
ATOM     20  C   UNL     1      -7.288   1.932   6.597  0.00  0.00    +0.024 A 
ATOM     21  C   UNL     1      -8.648   2.086   6.781  0.00  0.00    +0.017 A 
ATOM     22  C   UNL     1      -9.189   2.011   8.052  0.00  0.00    +0.018 A 
ATOM     23  C   UNL     1      -8.369   1.782   9.143  0.00  0.00    +0.020 A 
ATOM     24  C   UNL     1      -7.009   1.621   8.965  0.00  0.00    -0.028 A 
ATOM     25  C   UNL     1      -6.118   1.365  10.152  0.00  0.00    +0.046 C 
ATOM     26 BR   UNL     1     -11.051   2.224   8.299  0.00  0.00    -0.050 Br
ENDBRANCH  17  19
ENDBRANCH  14  15
ENDBRANCH   4  14
TORSDOF 5
