REMARK  Name = ZINC20737455
REMARK  12 active torsions:
REMARK  status: ('A' for Active; 'I' for Inactive)
REMARK    1  A    between atoms: C_1  and  C_2
REMARK    2  A    between atoms: C_2  and  C_3
REMARK    3  A    between atoms: C_3  and  C_5
REMARK    4  A    between atoms: C_3  and  N_6
REMARK    5  A    between atoms: N_6  and  C_7
REMARK    6  A    between atoms: N_6  and  C_32
REMARK    7  A    between atoms: C_7  and  C_8
REMARK    8  A    between atoms: C_8  and  N_9
REMARK    9  A    between atoms: C_10  and  C_12
REMARK   10  A    between atoms: N_18  and  C_31
REMARK   11  A    between atoms: C_22  and  C_23
REMARK   12  A    between atoms: C_27  and  C_29
REMARK                            x       y       z     vdW  Elec       q    Type
REMARK                         _______ _______ _______ _____ _____    ______ ____
ROOT
ATOM      1  C   UNL     1       0.868  -5.421   0.338  0.00  0.00    +0.039 A 
ATOM      2  C   UNL     1       2.197  -4.995   0.253  0.00  0.00    +0.014 A 
ATOM      3  C   UNL     1       2.687  -4.105   1.182  0.00  0.00    +0.017 A 
ATOM      4  C   UNL     1       1.866  -3.632   2.197  0.00  0.00    +0.034 A 
ATOM      5  C   UNL     1       0.533  -4.046   2.296  0.00  0.00    +0.051 A 
ATOM      6  C   UNL     1       0.042  -4.946   1.357  0.00  0.00    +0.037 A 
ATOM      7  N   UNL     1      -0.325  -3.597   3.292  0.00  0.00    -0.269 N 
ATOM      8  C   UNL     1      -0.183  -2.491   4.028  0.00  0.00    +0.257 C 
ATOM      9  O   UNL     1      -1.059  -2.170   4.809  0.00  0.00    -0.269 OA
ATOM     10  C   UNL     1       1.031  -1.654   3.901  0.00  0.00    +0.075 C 
ATOM     11  C   UNL     1       1.015  -0.325   4.162  0.00  0.00    +0.028 C 
ATOM     12  S   UNL     1       2.506  -2.490   3.381  0.00  0.00    -0.082 S 
ATOM     13  C   UNL     1      -1.505  -4.421   3.564  0.00  0.00    +0.138 C 
ENDROOT
BRANCH  11  14
ATOM     14  C   UNL     1      -0.263   0.362   4.404  0.00  0.00    -0.024 A 
ATOM     15  C   UNL     1      -1.408  -0.012   3.692  0.00  0.00    +0.008 A 
ATOM     16  C   UNL     1      -2.603   0.634   3.928  0.00  0.00    +0.001 A 
ATOM     17  C   UNL     1      -2.670   1.655   4.860  0.00  0.00    +0.003 A 
ATOM     18  C   UNL     1      -1.541   2.034   5.564  0.00  0.00    -0.050 A 
ATOM     19  C   UNL     1      -0.339   1.395   5.344  0.00  0.00    +0.011 A 
ATOM     20  C   UNL     1      -1.625   3.148   6.576  0.00  0.00    +0.044 C 
ENDBRANCH  11  14
BRANCH   1  22
ATOM     21  N   UNL     1       1.132  -6.837  -1.638  0.00  0.00    -0.313 N 
ATOM     22  C   UNL     1       0.337  -6.376  -0.653  0.00  0.00    +0.244 C 
ATOM     23  O   UNL     1      -0.819  -6.747  -0.581  0.00  0.00    -0.270 OA
ATOM     24  H   UNL     1       2.178  -6.501  -1.703  0.00  0.00    +0.149 HD
BRANCH  21  25
ATOM     25  C   UNL     1       0.605  -7.786  -2.622  0.00  0.00    +0.086 C 
BRANCH  25  26
ATOM     26  C   UNL     1       1.705  -8.146  -3.623  0.00  0.00    -0.059 C 
BRANCH  26  27
ATOM     27  N   UNL     1       1.223  -9.207  -4.518  0.00  0.00    +0.384 N 
ATOM     28  H   UNL     1       0.852 -10.033  -3.894  0.00  0.00    -0.081 HD
BRANCH  27  29
ATOM     29  C   UNL     1       2.315  -9.727  -5.353  0.00  0.00    -0.068 C 
ATOM     30  C   UNL     1       1.825 -10.952  -6.128  0.00  0.00    -0.015 C 
ATOM     31  C   UNL     1       2.962 -11.494  -6.997  0.00  0.00    -0.002 C 
ATOM     32  C   UNL     1       4.140 -11.892  -6.105  0.00  0.00    -0.000 C 
ATOM     33  C   UNL     1       4.630 -10.667  -5.330  0.00  0.00    -0.002 C 
ATOM     34  C   UNL     1       3.493 -10.125  -4.461  0.00  0.00    -0.015 C 
ENDBRANCH  27  29
BRANCH  27  35
ATOM     35  C   UNL     1       0.108  -8.730  -5.347  0.00  0.00    -0.072 C 
ATOM     36  C   UNL     1       0.303  -7.245  -5.659  0.00  0.00    -0.013 C 
BRANCH  35  38
ATOM     37  C   UNL     1      -1.484 -10.420  -4.424  0.00  0.00    +0.002 C 
ATOM     38  C   UNL     1      -1.208  -8.925  -4.592  0.00  0.00    -0.019 C 
ENDBRANCH  35  38
ENDBRANCH  27  35
ENDBRANCH  26  27
ENDBRANCH  25  26
ENDBRANCH  21  25
ENDBRANCH   1  22
TORSDOF 8
