REMARK  Name = ZINC01830162
REMARK  7 active torsions:
REMARK  status: ('A' for Active; 'I' for Inactive)
REMARK    1  A    between atoms: C_1  and  C_2
REMARK    2  A    between atoms: C_2  and  C_3
REMARK    3  A    between atoms: C_2  and  C_4
REMARK    4  A    between atoms: C_12  and  N_27
REMARK    5  A    between atoms: C_14  and  S_16
REMARK    6  A    between atoms: S_16  and  C_17
REMARK    7  A    between atoms: C_17  and  C_18
REMARK                            x       y       z     vdW  Elec       q    Type
REMARK                         _______ _______ _______ _____ _____    ______ ____
ROOT
ATOM      1  C   UNL     1       0.134  15.951   1.775  0.00  0.00    +0.126 C 
ATOM      2  C   UNL     1      -0.051  14.597   1.084  0.00  0.00    +0.068 C 
ATOM      3  C   UNL     1       1.307  13.902   1.033  0.00  0.00    -0.020 A 
ATOM      4  C   UNL     1       2.433  14.625   1.215  0.00  0.00    +0.021 A 
ATOM      5  S   UNL     1       3.757  13.458   1.086  0.00  0.00    -0.071 S 
ATOM      6  C   UNL     1       2.797  11.996   0.786  0.00  0.00    +0.115 A 
ATOM      7  C   UNL     1       1.468  12.468   0.796  0.00  0.00    +0.051 A 
ATOM      8  C   UNL     1       0.466  11.483   0.575  0.00  0.00    +0.129 A 
ATOM      9  N   UNL     1       0.826  10.226   0.379  0.00  0.00    -0.207 NA
ATOM     10  C   UNL     1       2.099   9.848   0.382  0.00  0.00    +0.191 A 
ATOM     11  N   UNL     1       3.075  10.723   0.588  0.00  0.00    -0.214 NA
ATOM     12  C   UNL     1       2.507  16.099   1.470  0.00  0.00    +0.203 C 
ATOM     13  O   UNL     1       1.220  16.664   1.177  0.00  0.00    -0.371 OA
ENDROOT
BRANCH   1  15
ATOM     14  C   UNL     1      -0.966  18.127   2.322  0.00  0.00    +0.010 C 
ATOM     15  C   UNL     1      -1.149  16.773   1.633  0.00  0.00    +0.012 C 
ATOM     16  C   UNL     1      -1.451  16.993   0.149  0.00  0.00    +0.010 C 
ENDBRANCH   1  15
BRANCH   8  17
ATOM     17  N   UNL     1      -0.872  11.836   0.564  0.00  0.00    -0.343 N 
ATOM     18  H   UNL     1      -1.555  11.147   0.560  0.00  0.00    +0.144 HD
ATOM     19  H   UNL     1      -1.126  12.772   0.562  0.00  0.00    +0.144 HD
ENDBRANCH   8  17
BRANCH  10  20
ATOM     20  S   UNL     1       2.499   8.153   0.115  0.00  0.00    -0.077 S 
BRANCH  20  21
ATOM     21  C   UNL     1       0.837   7.467  -0.089  0.00  0.00    +0.173 C 
BRANCH  21  22
ATOM     22  C   UNL     1       0.933   5.983  -0.337  0.00  0.00    +0.229 C 
ATOM     23  O   UNL     1       2.018   5.443  -0.371  0.00  0.00    -0.275 OA
ATOM     24  N   UNL     1      -0.188   5.257  -0.519  0.00  0.00    -0.270 N 
ATOM     25  C   UNL     1      -0.107   3.870  -0.643  0.00  0.00    +0.125 A 
ATOM     26  C   UNL     1      -1.273   3.116  -0.713  0.00  0.00    +0.044 A 
ATOM     27  C   UNL     1      -1.179   1.741  -0.835  0.00  0.00    +0.005 A 
ATOM     28  C   UNL     1       0.084   1.166  -0.883  0.00  0.00    +0.020 A 
ATOM     29  C   UNL     1       1.199   1.975  -0.803  0.00  0.00    +0.113 A 
ATOM     30  N   UNL     1       1.079   3.284  -0.692  0.00  0.00    -0.240 NA
ATOM     31  H   UNL     1      -1.050   5.698  -0.565  0.00  0.00    +0.156 HD
ENDBRANCH  21  22
ENDBRANCH  20  21
ENDBRANCH  10  20
TORSDOF 5
