REMARK  Name = ZINC12811793
REMARK  7 active torsions:
REMARK  status: ('A' for Active; 'I' for Inactive)
REMARK    1  A    between atoms: C_1  and  C_2
REMARK    2  A    between atoms: C_2  and  C_4
REMARK    3  A    between atoms: C_2  and  N_21
REMARK    4  A    between atoms: N_6  and  C_7
REMARK    5  A    between atoms: C_10  and  S_13
REMARK    6  A    between atoms: S_13  and  N_16
REMARK    7  A    between atoms: N_21  and  C_22
REMARK                            x       y       z     vdW  Elec       q    Type
REMARK                         _______ _______ _______ _____ _____    ______ ____
ROOT
ATOM      1  C   UNL     1      -3.591   2.169  -0.568  0.00  0.00    +0.237 C 
ATOM      2  O   UNL     1      -3.345   3.295  -0.945  0.00  0.00    -0.273 OA
ATOM      3  N   UNL     1      -4.843   1.682  -0.670  0.00  0.00    -0.284 N 
ATOM      4  H   UNL     1      -5.026   0.760  -0.432  0.00  0.00    +0.155 HD
ENDROOT
BRANCH   3   5
ATOM      5  C   UNL     1      -5.880   2.507  -1.121  0.00  0.00    +0.034 A 
ATOM      6  C   UNL     1      -7.160   2.362  -0.602  0.00  0.00    +0.025 A 
ATOM      7  C   UNL     1      -8.180   3.182  -1.045  0.00  0.00    +0.030 A 
ATOM      8  C   UNL     1      -7.929   4.138  -2.012  0.00  0.00    +0.106 A 
ATOM      9  C   UNL     1      -6.657   4.281  -2.535  0.00  0.00    +0.030 A 
ATOM     10  C   UNL     1      -5.632   3.469  -2.092  0.00  0.00    +0.025 A 
BRANCH   8  11
ATOM     11  S   UNL     1      -9.235   5.176  -2.580  0.00  0.00    +0.061 S 
ATOM     12  O   UNL     1     -10.206   5.211  -1.543  0.00  0.00    -0.153 OA
ATOM     13  O   UNL     1      -8.624   6.353  -3.092  0.00  0.00    -0.153 OA
BRANCH  11  14
ATOM     14  N   UNL     1      -9.944   4.413  -3.867  0.00  0.00    -0.177 NA
ATOM     15  C   UNL     1      -9.556   4.570  -5.277  0.00  0.00    +0.109 C 
ATOM     16  C   UNL     1     -10.505   3.689  -6.114  0.00  0.00    +0.018 C 
ATOM     17  C   UNL     1     -11.739   3.531  -5.187  0.00  0.00    +0.018 C 
ATOM     18  C   UNL     1     -11.072   3.467  -3.790  0.00  0.00    +0.109 C 
ENDBRANCH  11  14
ENDBRANCH   8  11
ENDBRANCH   3   5
BRANCH   1  20
ATOM     19  C   UNL     1      -2.860   0.926   1.450  0.00  0.00    +0.038 C 
ATOM     20  C   UNL     1      -2.495   1.314   0.015  0.00  0.00    +0.154 C 
BRANCH  20  21
ATOM     21  N   UNL     1      -1.238   2.066   0.017  0.00  0.00    -0.333 N 
ATOM     22  H   UNL     1      -1.252   3.035   0.029  0.00  0.00    +0.147 HD
BRANCH  21  23
ATOM     23  C   UNL     1      -0.015   1.384   0.001  0.00  0.00    +0.031 A 
ATOM     24  C   UNL     1       0.005  -0.004  -0.017  0.00  0.00    +0.027 A 
ATOM     25  C   UNL     1       1.210  -0.681  -0.038  0.00  0.00    +0.051 A 
ATOM     26  C   UNL     1       2.399   0.030  -0.043  0.00  0.00    +0.162 A 
ATOM     27  C   UNL     1       2.382   1.417  -0.026  0.00  0.00    +0.164 A 
ATOM     28  C   UNL     1       1.177   2.098  -0.004  0.00  0.00    +0.072 A 
ATOM     29  O   UNL     1       3.560   2.106  -0.031  0.00  0.00    -0.488 OA
ATOM     30  C   UNL     1       4.353   1.996   1.153  0.00  0.00    +0.232 C 
ATOM     31  C   UNL     1       5.215   0.744   1.111  0.00  0.00    +0.082 C 
ATOM     32  C   UNL     1       4.385  -0.531   1.120  0.00  0.00    +0.232 C 
ATOM     33  O   UNL     1       3.595  -0.630  -0.066  0.00  0.00    -0.488 OA
ENDBRANCH  21  23
ENDBRANCH  20  21
ENDBRANCH   1  20
TORSDOF 6
