REMARK  Name = ZINC22804749
REMARK  7 active torsions:
REMARK  status: ('A' for Active; 'I' for Inactive)
REMARK    1  A    between atoms: C_4  and  C_7
REMARK    2  A    between atoms: C_7  and  C_8
REMARK    3  A    between atoms: C_7  and  N_14
REMARK    4  A    between atoms: N_17  and  C_20
REMARK    5  A    between atoms: C_20  and  C_21
REMARK    6  A    between atoms: N_31  and  C_32
REMARK    7  A    between atoms: C_32  and  C_33
REMARK                            x       y       z     vdW  Elec       q    Type
REMARK                         _______ _______ _______ _____ _____    ______ ____
ROOT
ATOM      1  N   UNL     1      -1.059  -0.322   1.014  0.00  0.00    -0.295 NA
ATOM      2  C   UNL     1      -0.723  -0.013   2.411  0.00  0.00    +0.067 C 
ATOM      3  C   UNL     1      -1.857  -0.488   3.323  0.00  0.00    -0.063 C 
ATOM      4  N   UNL     1      -2.057  -1.933   3.139  0.00  0.00    +0.386 N 
ATOM      5  C   UNL     1      -2.393  -2.241   1.742  0.00  0.00    -0.063 C 
ATOM      6  C   UNL     1      -1.259  -1.766   0.831  0.00  0.00    +0.067 C 
ATOM      7  H   UNL     1      -1.111  -2.440   3.381  0.00  0.00    -0.081 HD
ENDROOT
BRANCH   1   8
ATOM      8  C   UNL     1      -0.029   0.187   0.099  0.00  0.00    +0.117 C 
BRANCH   8  12
ATOM      9  C   UNL     1       0.473   4.385   0.714  0.00  0.00    +0.000 A 
ATOM     10  C   UNL     1       1.576   3.582   0.491  0.00  0.00    +0.000 A 
ATOM     11  C   UNL     1       1.414   2.224   0.293  0.00  0.00    +0.005 A 
ATOM     12  C   UNL     1       0.148   1.668   0.316  0.00  0.00    -0.026 A 
ATOM     13  C   UNL     1      -0.956   2.472   0.533  0.00  0.00    +0.005 A 
ATOM     14  C   UNL     1      -0.793   3.829   0.737  0.00  0.00    +0.000 A 
ENDBRANCH   8  12
BRANCH   8  15
ATOM     15  C   UNL     1      -0.452  -0.065  -1.325  0.00  0.00    -0.026 A 
ATOM     16  C   UNL     1      -1.773   0.107  -1.694  0.00  0.00    +0.005 A 
ATOM     17  C   UNL     1      -2.161  -0.120  -3.001  0.00  0.00    +0.000 A 
ATOM     18  C   UNL     1      -1.229  -0.527  -3.937  0.00  0.00    +0.000 A 
ATOM     19  C   UNL     1       0.091  -0.704  -3.567  0.00  0.00    +0.000 A 
ATOM     20  C   UNL     1       0.479  -0.473  -2.261  0.00  0.00    +0.005 A 
ENDBRANCH   8  15
ENDBRANCH   1   8
BRANCH   4  21
ATOM     21  C   UNL     1      -3.087  -2.442   4.054  0.00  0.00    -0.003 C 
BRANCH  21  22
ATOM     22  C   UNL     1      -3.086  -3.948   4.023  0.00  0.00    +0.097 A 
ATOM     23  N   UNL     1      -2.160  -4.550   3.340  0.00  0.00    -0.235 NA
ATOM     24  C   UNL     1      -2.096  -5.903   3.266  0.00  0.00    +0.078 A 
ATOM     25  C   UNL     1      -1.101  -6.550   2.532  0.00  0.00    +0.028 A 
ATOM     26  C   UNL     1      -1.073  -7.926   2.486  0.00  0.00    +0.002 A 
ATOM     27  C   UNL     1      -2.024  -8.680   3.161  0.00  0.00    +0.001 A 
ATOM     28  C   UNL     1      -3.016  -8.064   3.893  0.00  0.00    +0.015 A 
ATOM     29  C   UNL     1      -3.062  -6.673   3.952  0.00  0.00    +0.065 A 
ATOM     30  C   UNL     1      -4.096  -5.960   4.717  0.00  0.00    +0.262 A 
ATOM     31  O   UNL     1      -4.957  -6.564   5.330  0.00  0.00    -0.267 OA
ATOM     32  N   UNL     1      -4.051  -4.608   4.716  0.00  0.00    -0.289 N 
BRANCH  32  33
ATOM     33  C   UNL     1      -5.054  -3.848   5.466  0.00  0.00    +0.221 C 
BRANCH  33  34
ATOM     34  C   UNL     1      -6.237  -3.565   4.577  0.00  0.00    +0.230 C 
ATOM     35  O   UNL     1      -6.242  -3.959   3.430  0.00  0.00    -0.274 OA
ATOM     36  N   UNL     1      -7.290  -2.873   5.056  0.00  0.00    -0.328 N 
ATOM     37  H   UNL     1      -8.154  -2.667   4.407  0.00  0.00    +0.145 HD
ATOM     38  H   UNL     1      -7.286  -2.515   6.096  0.00  0.00    +0.145 HD
ENDBRANCH  33  34
ENDBRANCH  32  33
ENDBRANCH  21  22
ENDBRANCH   4  21
TORSDOF 7
