REMARK  Name = ZINC41016946
REMARK  10 active torsions:
REMARK  status: ('A' for Active; 'I' for Inactive)
REMARK    1  A    between atoms: C_1  and  C_2
REMARK    2  A    between atoms: C_4  and  O_10
REMARK    3  A    between atoms: C_6  and  C_9
REMARK    4  A    between atoms: O_10  and  C_11
REMARK    5  A    between atoms: C_11  and  C_13
REMARK    6  A    between atoms: C_11  and  C_14
REMARK    7  A    between atoms: N_16  and  C_17
REMARK    8  A    between atoms: N_23  and  C_30
REMARK    9  A    between atoms: C_26  and  C_29
REMARK   10  A    between atoms: C_30  and  C_31
REMARK                            x       y       z     vdW  Elec       q    Type
REMARK                         _______ _______ _______ _____ _____    ______ ____
ROOT
ATOM      1  C   UNL     1       0.831  -4.681  -3.595  0.00  0.00    +0.258 C 
ATOM      2  O   UNL     1       1.130  -3.923  -4.493  0.00  0.00    -0.271 OA
ATOM      3  N   UNL     1       1.218  -5.971  -3.645  0.00  0.00    -0.282 N 
ATOM      4  H   UNL     1       0.918  -6.594  -2.965  0.00  0.00    +0.155 HD
ENDROOT
BRANCH   3   5
ATOM      5  C   UNL     1       2.053  -6.412  -4.680  0.00  0.00    +0.035 A 
ATOM      6  C   UNL     1       3.013  -5.559  -5.209  0.00  0.00    +0.027 A 
ATOM      7  C   UNL     1       3.839  -5.989  -6.230  0.00  0.00    +0.049 A 
ATOM      8  C   UNL     1       3.711  -7.274  -6.727  0.00  0.00    +0.143 A 
ATOM      9  C   UNL     1       2.749  -8.134  -6.198  0.00  0.00    +0.080 A 
ATOM     10  C   UNL     1       1.925  -7.704  -5.172  0.00  0.00    +0.050 A 
ATOM     11  N   UNL     1       2.632  -9.432  -6.714  0.00  0.00    -0.261 N 
ATOM     12  C   UNL     1       3.633  -9.929  -7.473  0.00  0.00    +0.261 C 
ATOM     13  O   UNL     1       3.540 -11.038  -7.955  0.00  0.00    -0.271 OA
ATOM     14  C   UNL     1       4.868  -9.099  -7.718  0.00  0.00    +0.256 C 
ATOM     15  O   UNL     1       4.519  -7.712  -7.731  0.00  0.00    -0.478 OA
ATOM     16  C   UNL     1       5.885  -9.357  -6.604  0.00  0.00    +0.062 C 
BRANCH  11  17
ATOM     17  C   UNL     1       1.440 -10.238  -6.436  0.00  0.00    +0.140 C 
BRANCH  17  18
ATOM     18  C   UNL     1       0.408  -9.995  -7.506  0.00  0.00    -0.015 C 
ATOM     19  C   UNL     1      -0.090 -11.003  -8.178  0.00  0.00    +0.005 C 
ENDBRANCH  17  18
ENDBRANCH  11  17
ENDBRANCH   3   5
BRANCH   1  20
ATOM     20  C   UNL     1       0.027  -4.181  -2.422  0.00  0.00    +0.256 C 
ATOM     21  C   UNL     1      -1.284  -4.964  -2.332  0.00  0.00    +0.062 C 
BRANCH  20  22
ATOM     22  O   UNL     1      -0.259  -2.792  -2.599  0.00  0.00    -0.480 OA
BRANCH  22  26
ATOM     23  C   UNL     1      -0.879  -2.631   2.240  0.00  0.00    +0.045 C 
ATOM     24  C   UNL     1      -0.802  -1.949   0.898  0.00  0.00    -0.028 A 
ATOM     25  C   UNL     1      -0.564  -2.692  -0.242  0.00  0.00    +0.050 A 
ATOM     26  C   UNL     1      -0.493  -2.063  -1.476  0.00  0.00    +0.122 A 
ATOM     27  C   UNL     1      -0.661  -0.688  -1.563  0.00  0.00    +0.050 A 
ATOM     28  C   UNL     1      -0.899   0.051  -0.421  0.00  0.00    -0.028 A 
ATOM     29  C   UNL     1      -0.974  -0.579   0.809  0.00  0.00    +0.047 A 
ATOM     30 CL   UNL     1      -1.280   0.352   2.242  0.00  0.00    -0.083 Cl
ATOM     31  C   UNL     1      -1.081   1.544  -0.515  0.00  0.00    +0.045 C 
ENDBRANCH  22  26
ENDBRANCH  20  22
ENDBRANCH   1  20
TORSDOF 6
