REMARK  Name = ZINC33026083
REMARK  15 active torsions:
REMARK  status: ('A' for Active; 'I' for Inactive)
REMARK    1  A    between atoms: C_1  and  C_2
REMARK    2  A    between atoms: C_5  and  S_8
REMARK    3  A    between atoms: S_8  and  N_11
REMARK    4  A    between atoms: N_11  and  C_12
REMARK    5  A    between atoms: C_12  and  C_14
REMARK    6  A    between atoms: C_12  and  C_18
REMARK    7  A    between atoms: C_14  and  C_15
REMARK    8  A    between atoms: C_15  and  S_16
REMARK    9  A    between atoms: S_16  and  C_17
REMARK   10  A    between atoms: N_20  and  C_21
REMARK   11  A    between atoms: C_21  and  C_22
REMARK   12  A    between atoms: C_22  and  C_24
REMARK   13  A    between atoms: C_22  and  N_32
REMARK   14  A    between atoms: C_27  and  O_30
REMARK   15  A    between atoms: O_30  and  C_31
REMARK                            x       y       z     vdW  Elec       q    Type
REMARK                         _______ _______ _______ _____ _____    ______ ____
ROOT
ATOM      1  C   UNL     1       1.136   3.328  -1.929  0.00  0.00    +0.232 C 
ATOM      2  O   UNL     1      -0.073   3.419  -1.943  0.00  0.00    -0.274 OA
ATOM      3  N   UNL     1       1.896   4.418  -2.158  0.00  0.00    -0.312 N 
ATOM      4  H   UNL     1       2.993   4.335  -2.146  0.00  0.00    +0.149 HD
ENDROOT
BRANCH   1   5
ATOM      5  C   UNL     1       1.789   1.998  -1.657  0.00  0.00    +0.163 C 
BRANCH   5   6
ATOM      6  N   UNL     1       0.756   0.982  -1.442  0.00  0.00    -0.178 NA
ATOM      7  H   UNL     1       0.461   0.705  -0.419  0.00  0.00    +0.149 HD
BRANCH   6   8
ATOM      8  S   UNL     1       0.209   0.074  -2.715  0.00  0.00    +0.059 S 
ATOM      9  O   UNL     1      -0.770  -0.812  -2.191  0.00  0.00    -0.153 OA
ATOM     10  O   UNL     1      -0.072   0.984  -3.770  0.00  0.00    -0.153 OA
BRANCH   8  15
ATOM     11  C   UNL     1       4.815  -3.351  -4.574  0.00  0.00    +0.044 C 
ATOM     12  C   UNL     1       3.664  -2.496  -4.110  0.00  0.00    -0.050 A 
ATOM     13  C   UNL     1       2.770  -2.987  -3.178  0.00  0.00    +0.005 A 
ATOM     14  C   UNL     1       1.714  -2.202  -2.752  0.00  0.00    +0.029 A 
ATOM     15  C   UNL     1       1.554  -0.926  -3.257  0.00  0.00    +0.105 A 
ATOM     16  C   UNL     1       2.446  -0.436  -4.193  0.00  0.00    +0.029 A 
ATOM     17  C   UNL     1       3.504  -1.220  -4.616  0.00  0.00    +0.005 A 
ENDBRANCH   8  15
ENDBRANCH   6   8
ENDBRANCH   5   6
BRANCH   5  18
ATOM     18  C   UNL     1       2.666   2.106  -0.407  0.00  0.00    +0.040 C 
BRANCH  18  19
ATOM     19  C   UNL     1       3.433   0.798  -0.207  0.00  0.00    +0.071 C 
BRANCH  19  20
ATOM     20  S   UNL     1       4.376   0.880   1.340  0.00  0.00    -0.164 S 
ATOM     21  C   UNL     1       5.333  -0.661   1.353  0.00  0.00    +0.084 C 
ENDBRANCH  19  20
ENDBRANCH  18  19
ENDBRANCH   5  18
ENDBRANCH   1   5
BRANCH   3  22
ATOM     22  C   UNL     1       1.261   5.711  -2.423  0.00  0.00    +0.127 C 
BRANCH  22  23
ATOM     23  C   UNL     1       2.330   6.805  -2.466  0.00  0.00    +0.104 C 
BRANCH  23  24
ATOM     24  C   UNL     1       1.698   8.110  -2.876  0.00  0.00    -0.029 A 
ATOM     25  C   UNL     1       1.309   9.021  -1.912  0.00  0.00    +0.009 A 
ATOM     26  C   UNL     1       0.734  10.221  -2.286  0.00  0.00    +0.046 A 
ATOM     27  C   UNL     1       0.536  10.505  -3.629  0.00  0.00    +0.120 A 
ATOM     28  C   UNL     1       0.922   9.586  -4.594  0.00  0.00    +0.046 A 
ATOM     29  C   UNL     1       1.502   8.390  -4.216  0.00  0.00    +0.009 A 
BRANCH  27  30
ATOM     30  O   UNL     1      -0.035  11.681  -3.999  0.00  0.00    -0.495 OA
ATOM     31  C   UNL     1      -0.407  12.579  -2.952  0.00  0.00    +0.277 C 
ENDBRANCH  27  30
ENDBRANCH  23  24
BRANCH  23  32
ATOM     32  N   UNL     1       2.934   6.951  -1.135  0.00  0.00    -0.290 NA
ATOM     33  C   UNL     1       4.116   6.088  -0.995  0.00  0.00    +0.113 C 
ATOM     34  C   UNL     1       4.748   6.315   0.381  0.00  0.00    +0.175 C 
ATOM     35  O   UNL     1       3.772   6.064   1.395  0.00  0.00    -0.377 OA
ATOM     36  C   UNL     1       2.607   6.887   1.290  0.00  0.00    +0.175 C 
ATOM     37  C   UNL     1       1.954   6.666  -0.077  0.00  0.00    +0.113 C 
ENDBRANCH  23  32
ENDBRANCH  22  23
ENDBRANCH   3  22
TORSDOF 12
