REMARK  Name = ZINC34730471
REMARK  8 active torsions:
REMARK  status: ('A' for Active; 'I' for Inactive)
REMARK    1  A    between atoms: C_1  and  C_2
REMARK    2  A    between atoms: C_2  and  C_3
REMARK    3  A    between atoms: C_3  and  C_4
REMARK    4  A    between atoms: C_4  and  C_5
REMARK    5  A    between atoms: C_5  and  N_6
REMARK    6  A    between atoms: N_14  and  C_17
REMARK    7  A    between atoms: C_17  and  C_18
REMARK    8  A    between atoms: C_18  and  C_19
REMARK                            x       y       z     vdW  Elec       q    Type
REMARK                         _______ _______ _______ _____ _____    ______ ____
ROOT
ATOM      1  N   UNL     1       1.523  -4.012   2.465  0.00  0.00    -0.260 N 
ATOM      2  C   UNL     1       0.517  -4.685   3.053  0.00  0.00    +0.265 A 
ATOM      3  O   UNL     1      -0.398  -4.084   3.586  0.00  0.00    -0.267 OA
ATOM      4  C   UNL     1       0.538  -6.163   3.044  0.00  0.00    +0.074 A 
ATOM      5  C   UNL     1      -0.447  -7.091   3.620  0.00  0.00    -0.023 A 
ATOM      6  C   UNL     1      -0.158  -8.391   3.455  0.00  0.00    -0.004 A 
ATOM      7  S   UNL     1       1.374  -8.399   2.559  0.00  0.00    -0.075 S 
ATOM      8  C   UNL     1       1.625  -6.755   2.410  0.00  0.00    +0.097 A 
ATOM      9  N   UNL     1       2.609  -5.994   1.834  0.00  0.00    -0.287 N 
ATOM     10  C   UNL     1       2.542  -4.649   1.865  0.00  0.00    +0.333 A 
ATOM     11  O   UNL     1       3.425  -3.998   1.342  0.00  0.00    -0.246 OA
ATOM     12  C   UNL     1      -1.203  -9.282   4.071  0.00  0.00    +0.043 C 
ATOM     13  C   UNL     1      -1.987  -8.358   5.030  0.00  0.00    +0.010 C 
ATOM     14  C   UNL     1      -1.764  -6.975   4.385  0.00  0.00    +0.037 C 
ENDROOT
BRANCH   1  15
ATOM     15  C   UNL     1       1.503  -2.548   2.473  0.00  0.00    +0.130 C 
BRANCH  15  16
ATOM     16  C   UNL     1       0.763  -2.041   1.233  0.00  0.00    +0.022 C 
BRANCH  16  17
ATOM     17  C   UNL     1       0.742  -0.511   1.242  0.00  0.00    +0.001 C 
BRANCH  17  19
ATOM     18  C   UNL     1      -0.019   1.526   0.010  0.00  0.00    +0.004 C 
ATOM     19  C   UNL     1       0.002  -0.004   0.002  0.00  0.00    -0.003 C 
ENDBRANCH  17  19
ENDBRANCH  16  17
ENDBRANCH  15  16
ENDBRANCH   1  15
BRANCH   9  20
ATOM     20  C   UNL     1       3.742  -6.649   1.174  0.00  0.00    +0.127 C 
BRANCH  20  21
ATOM     21  C   UNL     1       3.409  -6.880  -0.301  0.00  0.00    +0.018 C 
ATOM     22  C   UNL     1       4.592  -7.564  -0.990  0.00  0.00    +0.005 C 
ENDBRANCH  20  21
ENDBRANCH   9  20
TORSDOF 6
