REMARK  Name = ZINC04829816
REMARK  2 active torsions:
REMARK  status: ('A' for Active; 'I' for Inactive)
REMARK    1  A    between atoms: C_4  and  O_18
REMARK    2  A    between atoms: C_9  and  O_17
REMARK                            x       y       z     vdW  Elec       q    Type
REMARK                         _______ _______ _______ _____ _____    ______ ____
ROOT
ATOM      1  C   UNL     1      -2.154   1.085   1.306  0.00  0.00    +0.003 C 
ATOM      2  C   UNL     1      -2.898   1.643   0.090  0.00  0.00    +0.005 C 
ATOM      3  C   UNL     1      -2.222   1.137  -1.186  0.00  0.00    +0.067 C 
ATOM      4  C   UNL     1      -0.766   1.590  -1.219  0.00  0.00    +0.194 C 
ATOM      5  C   UNL     1      -0.013   1.086   0.008  0.00  0.00    +0.181 C 
ATOM      6  C   UNL     1      -0.712   1.579   1.279  0.00  0.00    +0.037 C 
ATOM      7  O   UNL     1       1.324   1.577  -0.002  0.00  0.00    -0.338 OA
ATOM      8  C   UNL     1       1.489   2.971  -0.215  0.00  0.00    +0.194 C 
ATOM      9  C   UNL     1       1.252   3.733   1.078  0.00  0.00    +0.067 C 
ATOM     10  C   UNL     1       1.373   5.230   0.878  0.00  0.00    +0.005 C 
ATOM     11  C   UNL     1       0.355   5.678  -0.173  0.00  0.00    +0.003 C 
ATOM     12  C   UNL     1       0.668   4.994  -1.500  0.00  0.00    +0.037 C 
ATOM     13  C   UNL     1       0.651   3.484  -1.359  0.00  0.00    +0.181 C 
ATOM     14  O   UNL     1      -0.697   3.016  -1.256  0.00  0.00    -0.338 OA
ENDROOT
BRANCH   8  15
ATOM     15  O   UNL     1       2.857   3.177  -0.575  0.00  0.00    -0.363 OA
ATOM     16  H   UNL     1       3.488   2.891   0.100  0.00  0.00    +0.213 HD
ENDBRANCH   8  15
BRANCH   4  17
ATOM     17  O   UNL     1      -0.155   1.047  -2.391  0.00  0.00    -0.363 OA
ATOM     18  H   UNL     1      -0.578   1.320  -3.217  0.00  0.00    +0.213 HD
ENDBRANCH   4  17
TORSDOF 2
