REMARK  Name = ZINC36525913
REMARK  11 active torsions:
REMARK  status: ('A' for Active; 'I' for Inactive)
REMARK    1  A    between atoms: C_1  and  C_2
REMARK    2  A    between atoms: C_2  and  C_3
REMARK    3  A    between atoms: C_2  and  C_4
REMARK    4  A    between atoms: C_2  and  N_5
REMARK    5  A    between atoms: C_6  and  C_8
REMARK    6  A    between atoms: C_8  and  C_10
REMARK    7  A    between atoms: C_8  and  N_16
REMARK    8  A    between atoms: N_16  and  C_17
REMARK    9  A    between atoms: C_18  and  C_20
REMARK   10  A    between atoms: C_20  and  C_21
REMARK   11  A    between atoms: C_21  and  C_22
REMARK                            x       y       z     vdW  Elec       q    Type
REMARK                         _______ _______ _______ _____ _____    ______ ____
ROOT
ATOM      1  C   UNL     1       2.689  -0.588  -2.681  0.00  0.00    +0.192 C 
ENDROOT
BRANCH   1   2
ATOM      2  C   UNL     1       1.846  -0.063  -3.814  0.00  0.00    -0.018 A 
ATOM      3  C   UNL     1       1.063   1.062  -3.630  0.00  0.00    +0.006 A 
ATOM      4  C   UNL     1       0.290   1.544  -4.669  0.00  0.00    +0.000 A 
ATOM      5  C   UNL     1       0.300   0.901  -5.894  0.00  0.00    +0.000 A 
ATOM      6  C   UNL     1       1.083  -0.222  -6.078  0.00  0.00    +0.000 A 
ATOM      7  C   UNL     1       1.860  -0.702  -5.040  0.00  0.00    +0.006 A 
ENDBRANCH   1   2
BRANCH   1   9
ATOM      8  N   UNL     1       0.821  -0.596  -1.060  0.00  0.00    -0.309 N 
ATOM      9  C   UNL     1       2.069  -0.190  -1.367  0.00  0.00    +0.238 C 
ATOM     10  O   UNL     1       2.693   0.497  -0.586  0.00  0.00    -0.273 OA
ATOM     11  H   UNL     1       0.322  -1.145  -1.685  0.00  0.00    +0.149 HD
BRANCH   8  13
ATOM     12  C   UNL     1       0.142   1.317   0.304  0.00  0.00    +0.031 C 
ATOM     13  C   UNL     1       0.218  -0.209   0.218  0.00  0.00    +0.026 C 
ATOM     14  C   UNL     1       1.074  -0.742   1.368  0.00  0.00    +0.031 C 
ATOM     15  C   UNL     1      -1.191  -0.796   0.316  0.00  0.00    +0.031 C 
ENDBRANCH   8  13
ENDBRANCH   1   9
BRANCH   1  16
ATOM     16  N   UNL     1       4.039  -0.026  -2.775  0.00  0.00    -0.289 N 
ATOM     17  C   UNL     1       4.241   1.419  -2.645  0.00  0.00    +0.133 C 
ATOM     18  C   UNL     1       5.095  -0.838  -2.981  0.00  0.00    +0.216 C 
ATOM     19  O   UNL     1       4.928  -2.034  -3.089  0.00  0.00    -0.276 OA
BRANCH  18  20
ATOM     20  C   UNL     1       6.483  -0.259  -3.077  0.00  0.00    +0.096 C 
BRANCH  20  21
ATOM     21  C   UNL     1       7.490  -1.387  -3.311  0.00  0.00    +0.013 C 
BRANCH  21  22
ATOM     22  C   UNL     1       8.899  -0.799  -3.409  0.00  0.00    -0.011 C 
ATOM     23  C   UNL     1       8.995   0.093  -4.649  0.00  0.00    +0.003 C 
ATOM     24  C   UNL     1      10.405   0.681  -4.746  0.00  0.00    +0.000 C 
ATOM     25  C   UNL     1      11.424  -0.455  -4.855  0.00  0.00    +0.000 C 
ATOM     26  C   UNL     1      11.328  -1.347  -3.616  0.00  0.00    +0.000 C 
ATOM     27  C   UNL     1       9.919  -1.935  -3.518  0.00  0.00    +0.003 C 
ENDBRANCH  21  22
ENDBRANCH  20  21
ENDBRANCH  18  20
ENDBRANCH   1  16
TORSDOF 7
