REMARK  Name = ZINC05895095
REMARK  14 active torsions:
REMARK  status: ('A' for Active; 'I' for Inactive)
REMARK    1  A    between atoms: C_1  and  C_2
REMARK    2  A    between atoms: C_2  and  N_57
REMARK    3  A    between atoms: C_3  and  C_4
REMARK    4  A    between atoms: C_3  and  N_57
REMARK    5  A    between atoms: C_5  and  C_6
REMARK    6  A    between atoms: C_5  and  N_57
REMARK    7  A    between atoms: C_7  and  O_29
REMARK    8  A    between atoms: C_14  and  C_15
REMARK    9  A    between atoms: C_18  and  O_25
REMARK   10  A    between atoms: C_19  and  O_23
REMARK   11  A    between atoms: C_20  and  O_21
REMARK   12  A    between atoms: O_21  and  C_22
REMARK   13  A    between atoms: O_23  and  C_24
REMARK   14  A    between atoms: O_25  and  C_26
REMARK                            x       y       z     vdW  Elec       q    Type
REMARK                         _______ _______ _______ _____ _____    ______ ____
ROOT
ATOM      1  C   UNL     1      -3.202  -3.419   0.070  0.00  0.00    +0.020 A 
ATOM      2  C   UNL     1      -3.912  -4.580   0.333  0.00  0.00    +0.122 A 
ATOM      3  C   UNL     1      -3.279  -5.819   0.301  0.00  0.00    +0.046 A 
ATOM      4  C   UNL     1      -1.947  -5.903   0.010  0.00  0.00    +0.019 A 
ATOM      5  C   UNL     1      -1.220  -4.743  -0.259  0.00  0.00    +0.068 A 
ATOM      6  C   UNL     1      -1.847  -3.487  -0.230  0.00  0.00    +0.144 A 
ATOM      7  O   UNL     1      -0.945  -2.522  -0.513  0.00  0.00    -0.451 OA
ATOM      8  C   UNL     1       0.285  -3.037  -0.750  0.00  0.00    +0.176 C 
ATOM      9  C   UNL     1       1.403  -2.331  -1.065  0.00  0.00    +0.062 C 
ATOM     10  C   UNL     1       0.193  -4.494  -0.599  0.00  0.00    +0.231 C 
ATOM     11  O   UNL     1       1.085  -5.315  -0.726  0.00  0.00    -0.283 OA
ENDROOT
BRANCH   9  12
ATOM     12  C   UNL     1       1.379  -0.867  -1.032  0.00  0.00    +0.024 A 
ATOM     13  C   UNL     1       0.155  -0.182  -1.039  0.00  0.00    +0.015 A 
ATOM     14  C   UNL     1       0.136   1.193  -1.009  0.00  0.00    +0.050 A 
ATOM     15  C   UNL     1       1.327   1.911  -0.972  0.00  0.00    +0.165 A 
ATOM     16  C   UNL     1       2.548   1.245  -0.965  0.00  0.00    +0.204 A 
ATOM     17  C   UNL     1       2.582  -0.141  -0.995  0.00  0.00    +0.172 A 
BRANCH  17  18
ATOM     18  O   UNL     1       3.773  -0.794  -0.988  0.00  0.00    -0.491 OA
ATOM     19  C   UNL     1       4.414  -0.988  -2.250  0.00  0.00    +0.277 C 
ENDBRANCH  17  18
BRANCH  16  20
ATOM     20  O   UNL     1       3.709   1.954  -0.928  0.00  0.00    -0.488 OA
ATOM     21  C   UNL     1       4.287   2.187   0.358  0.00  0.00    +0.277 C 
ENDBRANCH  16  20
BRANCH  15  22
ATOM     22  O   UNL     1       1.297   3.269  -0.943  0.00  0.00    -0.491 OA
ATOM     23  C   UNL     1       0.010   3.889  -0.953  0.00  0.00    +0.277 C 
ENDBRANCH  15  22
ENDBRANCH   9  12
BRANCH   2  24
ATOM     24  O   UNL     1      -5.235  -4.507   0.625  0.00  0.00    -0.506 OA
ATOM     25  H   UNL     1      -5.813  -4.562  -0.148  0.00  0.00    +0.292 HD
ENDBRANCH   2  24
BRANCH   1  26
ATOM     26  C   UNL     1      -3.900  -2.084   0.107  0.00  0.00    -0.036 C 
BRANCH  26  27
ATOM     27  N   UNL     1      -4.445  -1.794  -1.236  0.00  0.00    +0.382 N 
ATOM     28  H   UNL     1      -5.001  -2.597  -1.551  0.00  0.00    -0.081 HD
BRANCH  27  30
ATOM     29  C   UNL     1      -6.656  -0.999  -0.560  0.00  0.00    -0.017 C 
ATOM     30  C   UNL     1      -5.316  -0.600  -1.180  0.00  0.00    -0.082 C 
ENDBRANCH  27  30
BRANCH  27  31
ATOM     31  C   UNL     1      -3.341  -1.569  -2.192  0.00  0.00    -0.082 C 
ATOM     32  C   UNL     1      -3.905  -1.611  -3.614  0.00  0.00    -0.017 C 
ENDBRANCH  27  31
ENDBRANCH  26  27
ENDBRANCH   1  26
TORSDOF 9
