REMARK  Name = ZINC36302518
REMARK  19 active torsions:
REMARK  status: ('A' for Active; 'I' for Inactive)
REMARK    1  A    between atoms: C_1  and  C_2
REMARK    2  A    between atoms: C_3  and  C_22
REMARK    3  A    between atoms: C_4  and  O_13
REMARK    4  A    between atoms: N_5  and  C_7
REMARK    5  A    between atoms: O_13  and  C_14
REMARK    6  A    between atoms: C_17  and  O_20
REMARK    7  A    between atoms: O_20  and  C_21
REMARK    8  A    between atoms: C_22  and  N_23
REMARK    9  A    between atoms: N_23  and  C_24
REMARK   10  A    between atoms: N_23  and  C_30
REMARK   11  A    between atoms: C_24  and  C_25
REMARK   12  A    between atoms: C_30  and  C_31
REMARK   13  A    between atoms: C_31  and  C_33
REMARK   14  A    between atoms: C_31  and  O_39
REMARK   15  A    between atoms: C_33  and  O_34
REMARK   16  A    between atoms: O_34  and  C_35
REMARK   17  A    between atoms: C_35  and  C_36
REMARK   18  A    between atoms: C_35  and  C_37
REMARK   19  A    between atoms: C_35  and  C_38
REMARK                            x       y       z     vdW  Elec       q    Type
REMARK                         _______ _______ _______ _____ _____    ______ ____
ROOT
ATOM      1  C   UNL     1      -0.208   1.979   0.505  0.00  0.00    +0.068 C 
ATOM      2  C   UNL     1       0.143   0.514   0.472  0.00  0.00    +0.065 A 
ATOM      3  C   UNL     1       0.215  -0.284  -0.674  0.00  0.00    +0.021 A 
ATOM      4  C   UNL     1       0.561  -1.541  -0.288  0.00  0.00    +0.225 A 
ATOM      5  N   UNL     1       0.701  -1.528   1.065  0.00  0.00    -0.200 N 
ATOM      6  N   UNL     1       0.438  -0.226   1.510  0.00  0.00    -0.168 NA
ENDROOT
BRANCH   5   7
ATOM      7  C   UNL     1       1.050  -2.622   1.869  0.00  0.00    +0.069 A 
ATOM      8  C   UNL     1       0.461  -3.860   1.653  0.00  0.00    +0.028 A 
ATOM      9  C   UNL     1       0.807  -4.936   2.447  0.00  0.00    +0.002 A 
ATOM     10  C   UNL     1       1.739  -4.780   3.457  0.00  0.00    +0.000 A 
ATOM     11  C   UNL     1       2.327  -3.547   3.675  0.00  0.00    +0.002 A 
ATOM     12  C   UNL     1       1.989  -2.470   2.880  0.00  0.00    +0.028 A 
ENDBRANCH   5   7
BRANCH   4  13
ATOM     13  O   UNL     1       0.734  -2.612  -1.103  0.00  0.00    -0.438 OA
BRANCH  13  14
ATOM     14  C   UNL     1      -0.361  -3.349  -1.430  0.00  0.00    +0.131 A 
ATOM     15  C   UNL     1      -1.623  -2.932  -1.029  0.00  0.00    +0.050 A 
ATOM     16  C   UNL     1      -2.735  -3.680  -1.362  0.00  0.00    +0.049 A 
ATOM     17  C   UNL     1      -2.591  -4.848  -2.096  0.00  0.00    +0.120 A 
ATOM     18  C   UNL     1      -1.330  -5.265  -2.496  0.00  0.00    +0.049 A 
ATOM     19  C   UNL     1      -0.218  -4.514  -2.169  0.00  0.00    +0.050 A 
BRANCH  17  20
ATOM     20  O   UNL     1      -3.686  -5.585  -2.422  0.00  0.00    -0.495 OA
ATOM     21  C   UNL     1      -3.465  -6.777  -3.180  0.00  0.00    +0.277 C 
ENDBRANCH  17  20
ENDBRANCH  13  14
ENDBRANCH   4  13
BRANCH   3  22
ATOM     22  C   UNL     1      -0.045   0.170  -2.088  0.00  0.00    -0.035 C 
BRANCH  22  23
ATOM     23  N   UNL     1       1.210   0.642  -2.689  0.00  0.00    +0.389 N 
ATOM     24  H   UNL     1       1.597   1.381  -2.122  0.00  0.00    -0.081 HD
BRANCH  23  25
ATOM     25  C   UNL     1       2.166  -0.471  -2.764  0.00  0.00    -0.003 C 
BRANCH  25  26
ATOM     26  C   UNL     1       3.482   0.032  -3.300  0.00  0.00    +0.089 A 
ATOM     27  C   UNL     1       4.529   0.437  -2.560  0.00  0.00    +0.042 A 
ATOM     28  C   UNL     1       5.545   0.824  -3.465  0.00  0.00    +0.041 A 
ATOM     29  C   UNL     1       5.057   0.632  -4.703  0.00  0.00    +0.195 A 
ATOM     30  O   UNL     1       3.809   0.147  -4.598  0.00  0.00    -0.470 OA
ENDBRANCH  25  26
ENDBRANCH  23  25
BRANCH  23  31
ATOM     31  C   UNL     1       0.944   1.150  -4.042  0.00  0.00    -0.044 C 
BRANCH  31  32
ATOM     32  C   UNL     1       0.096   2.421  -3.951  0.00  0.00    +0.124 C 
BRANCH  32  33
ATOM     33  O   UNL     1      -1.218   2.086  -3.499  0.00  0.00    -0.391 OA
ATOM     34  H   UNL     1      -1.688   1.470  -4.077  0.00  0.00    +0.210 HD
ENDBRANCH  32  33
BRANCH  32  35
ATOM     35  C   UNL     1       0.009   3.075  -5.331  0.00  0.00    +0.189 C 
BRANCH  35  36
ATOM     36  O   UNL     1      -0.683   4.321  -5.225  0.00  0.00    -0.372 OA
BRANCH  36  37
ATOM     37  C   UNL     1      -0.820   5.017  -6.465  0.00  0.00    +0.061 C 
ATOM     38  C   UNL     1      -1.602   4.150  -7.454  0.00  0.00    +0.041 C 
ATOM     39  C   UNL     1      -1.573   6.329  -6.233  0.00  0.00    +0.041 C 
ATOM     40  C   UNL     1       0.567   5.319  -7.036  0.00  0.00    +0.041 C 
ENDBRANCH  36  37
ENDBRANCH  35  36
ENDBRANCH  32  35
ENDBRANCH  31  32
ENDBRANCH  23  31
ENDBRANCH  22  23
ENDBRANCH   3  22
TORSDOF 14
