REMARK  Name = ZINC57916228
REMARK  8 active torsions:
REMARK  status: ('A' for Active; 'I' for Inactive)
REMARK    1  A    between atoms: C_1  and  C_2
REMARK    2  A    between atoms: C_3  and  C_14
REMARK    3  A    between atoms: C_6  and  C_8
REMARK    4  A    between atoms: N_16  and  N_17
REMARK    5  A    between atoms: N_17  and  C_18
REMARK    6  A    between atoms: C_18  and  N_20
REMARK    7  A    between atoms: N_20  and  C_21
REMARK    8  A    between atoms: C_27  and  C_29
REMARK                            x       y       z     vdW  Elec       q    Type
REMARK                         _______ _______ _______ _____ _____    ______ ____
ROOT
ATOM      1  C   UNL     1      -0.228   0.051  -2.482  0.00  0.00    +0.262 C 
ATOM      2  O   UNL     1      -0.154   1.265  -2.488  0.00  0.00    -0.269 OA
ATOM      3  N   UNL     1      -0.427  -0.618  -3.635  0.00  0.00    -0.231 N 
ATOM      4  H   UNL     1      -0.487  -1.586  -3.630  0.00  0.00    +0.173 HD
ENDROOT
BRANCH   1   7
ATOM      5  C   UNL     1      -0.074   1.502   0.015  0.00  0.00    +0.066 C 
ATOM      6  C   UNL     1      -0.024  -0.005   0.004  0.00  0.00    +0.051 A 
ATOM      7  C   UNL     1      -0.100  -0.690  -1.210  0.00  0.00    +0.059 A 
ATOM      8  C   UNL     1      -0.053  -2.091  -1.206  0.00  0.00    +0.017 A 
ATOM      9  C   UNL     1       0.067  -2.740   0.006  0.00  0.00    +0.029 A 
ATOM     10  C   UNL     1       0.137  -1.987   1.178  0.00  0.00    +0.071 A 
ATOM     11  N   UNL     1       0.095  -0.660   1.138  0.00  0.00    -0.251 NA
BRANCH  10  12
ATOM     12  C   UNL     1       0.265  -2.675   2.484  0.00  0.00    +0.000 A 
ATOM     13  C   UNL     1       0.321  -4.068   2.538  0.00  0.00    +0.010 A 
ATOM     14  C   UNL     1       0.441  -4.703   3.757  0.00  0.00    +0.001 A 
ATOM     15  C   UNL     1       0.506  -3.962   4.924  0.00  0.00    +0.000 A 
ATOM     16  C   UNL     1       0.450  -2.581   4.876  0.00  0.00    +0.001 A 
ATOM     17  C   UNL     1       0.336  -1.934   3.663  0.00  0.00    +0.010 A 
ENDBRANCH  10  12
ENDBRANCH   1   7
BRANCH   3  18
ATOM     18  N   UNL     1      -0.549   0.086  -4.840  0.00  0.00    -0.246 N 
ATOM     19  H   UNL     1      -0.490   1.054  -4.845  0.00  0.00    +0.172 HD
BRANCH  18  20
ATOM     20  C   UNL     1      -0.748  -0.583  -5.993  0.00  0.00    +0.147 C 
ATOM     21  S   UNL     1      -0.897   0.276  -7.467  0.00  0.00    -0.017 S 
BRANCH  20  22
ATOM     22  N   UNL     1      -0.830  -1.929  -5.986  0.00  0.00    -0.322 N 
ATOM     23  H   UNL     1      -0.746  -2.415  -5.152  0.00  0.00    +0.148 HD
BRANCH  22  24
ATOM     24  C   UNL     1      -1.047  -2.655  -7.240  0.00  0.00    +0.075 C 
ATOM     25  C   UNL     1       0.297  -2.888  -7.933  0.00  0.00    +0.022 C 
ATOM     26  C   UNL     1       1.208  -3.708  -7.019  0.00  0.00    +0.002 C 
ATOM     27  C   UNL     1       0.549  -5.056  -6.719  0.00  0.00    +0.000 C 
ATOM     28  C   UNL     1      -0.794  -4.824  -6.025  0.00  0.00    +0.005 C 
ATOM     29  C   UNL     1      -1.706  -4.003  -6.940  0.00  0.00    +0.006 C 
ATOM     30  C   UNL     1      -3.050  -3.772  -6.246  0.00  0.00    +0.009 C 
ENDBRANCH  22  24
ENDBRANCH  20  22
ENDBRANCH  18  20
ENDBRANCH   3  18
TORSDOF 6
