REMARK  Name = ZINC63240884
REMARK  9 active torsions:
REMARK  status: ('A' for Active; 'I' for Inactive)
REMARK    1  A    between atoms: C_7  and  C_10
REMARK    2  A    between atoms: C_10  and  C_11
REMARK    3  A    between atoms: C_11  and  C_12
REMARK    4  A    between atoms: C_12  and  C_13
REMARK    5  A    between atoms: C_13  and  O_15
REMARK    6  A    between atoms: O_15  and  C_16
REMARK    7  A    between atoms: C_16  and  C_17
REMARK    8  A    between atoms: C_20  and  C_32
REMARK    9  A    between atoms: C_23  and  C_25
REMARK                            x       y       z     vdW  Elec       q    Type
REMARK                         _______ _______ _______ _____ _____    ______ ____
ROOT
ATOM      1  C   UNL     1      -2.647  -7.914  -4.562  0.00  0.00    +0.273 C 
ATOM      2  O   UNL     1      -3.119  -8.381  -3.547  0.00  0.00    -0.270 OA
ATOM      3  N   UNL     1      -2.959  -8.449  -5.759  0.00  0.00    -0.179 N 
ATOM      4  C   UNL     1      -3.859  -9.593  -5.977  0.00  0.00    +0.173 C 
ATOM      5  C   UNL     1      -3.852  -9.773  -7.508  0.00  0.00    +0.090 C 
ATOM      6  C   UNL     1      -2.924  -8.684  -7.998  0.00  0.00    +0.069 C 
ATOM      7  N   UNL     1      -2.486  -8.007  -6.993  0.00  0.00    -0.181 NA
ENDROOT
BRANCH   6   8
ATOM      8  C   UNL     1      -2.580  -8.431  -9.409  0.00  0.00    -0.002 A 
ATOM      9  C   UNL     1      -3.128  -9.226 -10.418  0.00  0.00    +0.011 A 
ATOM     10  C   UNL     1      -2.802  -8.984 -11.736  0.00  0.00    +0.020 A 
ATOM     11  C   UNL     1      -1.933  -7.956 -12.060  0.00  0.00    +0.041 A 
ATOM     12  C   UNL     1      -1.386  -7.163 -11.065  0.00  0.00    +0.020 A 
ATOM     13  C   UNL     1      -1.708  -7.391  -9.743  0.00  0.00    +0.011 A 
ATOM     14 CL   UNL     1      -1.527  -7.658 -13.722  0.00  0.00    -0.084 Cl
ENDBRANCH   6   8
BRANCH   4  15
ATOM     15  C   UNL     1      -5.247  -9.276  -5.484  0.00  0.00    +0.128 A 
ATOM     16  C   UNL     1      -6.070 -10.129  -4.848  0.00  0.00    +0.046 A 
ATOM     17  C   UNL     1      -7.261  -9.420  -4.569  0.00  0.00    +0.041 A 
ATOM     18  C   UNL     1      -7.094  -8.175  -5.052  0.00  0.00    +0.195 A 
ATOM     19  O   UNL     1      -5.871  -8.092  -5.599  0.00  0.00    -0.466 OA
ENDBRANCH   4  15
BRANCH   1  20
ATOM     20  C   UNL     1      -1.712  -6.734  -4.485  0.00  0.00    +0.329 C 
BRANCH  20  21
ATOM     21  O   UNL     1      -1.539  -6.352  -3.119  0.00  0.00    -0.455 OA
BRANCH  21  22
ATOM     22  C   UNL     1      -0.729  -5.309  -2.876  0.00  0.00    +0.308 C 
ATOM     23  O   UNL     1      -0.185  -4.740  -3.793  0.00  0.00    -0.251 OA
BRANCH  22  24
ATOM     24  C   UNL     1      -0.499  -4.848  -1.460  0.00  0.00    +0.121 C 
BRANCH  24  25
ATOM     25  C   UNL     1       0.457  -3.653  -1.462  0.00  0.00    +0.015 C 
BRANCH  25  26
ATOM     26  C   UNL     1       0.691  -3.186  -0.024  0.00  0.00    +0.034 C 
BRANCH  26  33
ATOM     27  C   UNL     1      -0.016   1.348   0.009  0.00  0.00    +0.001 A 
ATOM     28  C   UNL     1       1.166   2.101   0.002  0.00  0.00    +0.002 A 
ATOM     29  C   UNL     1       2.391   1.535  -0.013  0.00  0.00    +0.026 A 
ATOM     30  C   UNL     1       2.529   0.120  -0.022  0.00  0.00    +0.043 A 
ATOM     31  N   UNL     1       3.587  -0.654  -0.037  0.00  0.00    -0.380 N 
ATOM     32  C   UNL     1       3.143  -2.053  -0.041  0.00  0.00    +0.144 C 
ATOM     33  C   UNL     1       1.631  -2.008  -0.025  0.00  0.00    -0.042 C 
ATOM     34  C   UNL     1       1.295  -0.698  -0.014  0.00  0.00    -0.001 A 
ATOM     35  C   UNL     1       0.002  -0.004   0.002  0.00  0.00    +0.010 A 
ATOM     36  H   UNL     1       4.509  -0.353  -0.045  0.00  0.00    +0.160 HD
ENDBRANCH  26  33
ENDBRANCH  25  26
ENDBRANCH  24  25
ENDBRANCH  22  24
ENDBRANCH  21  22
ENDBRANCH  20  21
ENDBRANCH   1  20
TORSDOF 9
