REMARK  Name = ZINC04521755
REMARK  4 active torsions:
REMARK  status: ('A' for Active; 'I' for Inactive)
REMARK    1  A    between atoms: C_1  and  C_2
REMARK    2  A    between atoms: C_10  and  O_26
REMARK    3  A    between atoms: C_20  and  O_25
REMARK    4  A    between atoms: C_22  and  O_24
REMARK                            x       y       z     vdW  Elec       q    Type
REMARK                         _______ _______ _______ _____ _____    ______ ____
ROOT
ATOM      1  C   UNL     1       1.282   4.147   2.414  0.00  0.00    +0.014 C 
ATOM      2  C   UNL     1       0.564   4.194   1.064  0.00  0.00    -0.000 C 
ATOM      3  C   UNL     1      -0.821   3.549   1.142  0.00  0.00    +0.010 C 
ATOM      4  C   UNL     1      -0.724   2.029   1.260  0.00  0.00    +0.009 C 
ATOM      5  C   UNL     1      -0.018   1.499   0.010  0.00  0.00    +0.023 C 
ATOM      6  C   UNL     1       0.002  -0.004   0.002  0.00  0.00    -0.041 A 
ATOM      7  C   UNL     1      -1.135  -0.677   0.428  0.00  0.00    +0.008 A 
ATOM      8  C   UNL     1      -1.175  -2.055   0.434  0.00  0.00    +0.046 A 
ATOM      9  C   UNL     1      -0.067  -2.776   0.009  0.00  0.00    +0.117 A 
ATOM     10  C   UNL     1       1.067  -2.104  -0.414  0.00  0.00    +0.049 A 
ATOM     11  C   UNL     1       1.107  -0.716  -0.415  0.00  0.00    -0.040 A 
ATOM     12  C   UNL     1       2.382  -0.055  -0.867  0.00  0.00    +0.036 C 
ATOM     13  C   UNL     1       2.158   1.425  -1.175  0.00  0.00    +0.009 C 
ATOM     14  C   UNL     1       1.405   2.049  -0.000  0.00  0.00    +0.001 C 
ATOM     15  C   UNL     1       1.412   3.554  -0.053  0.00  0.00    +0.004 C 
ATOM     16  C   UNL     1       0.779   4.109  -1.343  0.00  0.00    +0.038 C 
ATOM     17  C   UNL     1       0.461   5.579  -0.984  0.00  0.00    +0.144 C 
ATOM     18  C   UNL     1       0.352   5.644   0.551  0.00  0.00    +0.149 C 
ENDROOT
BRANCH  18  19
ATOM     19  O   UNL     1       1.363   6.504   1.079  0.00  0.00    -0.389 OA
ATOM     20  H   UNL     1       1.285   7.425   0.794  0.00  0.00    +0.210 HD
ENDBRANCH  18  19
BRANCH  17  21
ATOM     21  O   UNL     1      -0.778   5.972  -1.579  0.00  0.00    -0.389 OA
ATOM     22  H   UNL     1      -0.773   5.952  -2.546  0.00  0.00    +0.210 HD
ENDBRANCH  17  21
BRANCH   9  23
ATOM     23  O   UNL     1      -0.097  -4.135   0.007  0.00  0.00    -0.507 OA
ATOM     24  H   UNL     1       0.207  -4.535   0.833  0.00  0.00    +0.292 HD
ENDBRANCH   9  23
TORSDOF 3
