REMARK  Name = ZINC38701959
REMARK  10 active torsions:
REMARK  status: ('A' for Active; 'I' for Inactive)
REMARK    1  A    between atoms: C_1  and  C_2
REMARK    2  A    between atoms: C_2  and  C_3
REMARK    3  A    between atoms: C_3  and  C_4
REMARK    4  A    between atoms: C_4  and  O_5
REMARK    5  A    between atoms: O_5  and  C_6
REMARK    6  A    between atoms: C_10  and  C_12
REMARK    7  A    between atoms: C_15  and  C_31
REMARK    8  A    between atoms: N_22  and  C_23
REMARK    9  A    between atoms: C_33  and  C_38
REMARK   10  A    between atoms: C_36  and  O_37
REMARK                            x       y       z     vdW  Elec       q    Type
REMARK                         _______ _______ _______ _____ _____    ______ ____
ROOT
ATOM      1  C   UNL     1      -5.897  -6.397  -0.007  0.00  0.00    +0.142 C 
ATOM      2  C   UNL     1      -6.104  -7.011   1.350  0.00  0.00    +0.035 A 
ATOM      3  C   UNL     1      -6.186  -6.816   2.733  0.00  0.00    +0.102 A 
ATOM      4  N   UNL     1      -6.417  -7.991   3.284  0.00  0.00    -0.173 NA
ATOM      5  N   UNL     1      -6.489  -8.909   2.387  0.00  0.00    -0.272 N 
ATOM      6  H   UNL     1      -6.652  -9.848   2.563  0.00  0.00    +0.189 HD
ATOM      7  C   UNL     1      -6.301  -8.364   1.149  0.00  0.00    +0.126 A 
ATOM      8  C   UNL     1      -6.227  -8.637  -0.291  0.00  0.00    +0.266 C 
ATOM      9  O   UNL     1      -6.359  -9.735  -0.797  0.00  0.00    -0.268 OA
ATOM     10  N   UNL     1      -5.993  -7.500  -0.973  0.00  0.00    -0.280 N 
ENDROOT
BRANCH  10  11
ATOM     11  C   UNL     1      -5.857  -7.381  -2.427  0.00  0.00    +0.100 C 
ATOM     12  C   UNL     1      -7.137  -7.889  -3.111  0.00  0.00    +0.047 C 
ATOM     13  C   UNL     1      -6.888  -8.069  -4.628  0.00  0.00    +0.168 C 
ATOM     14  S   UNL     1      -5.085  -8.426  -4.702  0.00  0.00    -0.029 S 
ATOM     15  O   UNL     1      -4.897  -9.778  -5.095  0.00  0.00    -0.174 OA
ATOM     16  O   UNL     1      -4.439  -7.390  -5.430  0.00  0.00    -0.174 OA
ATOM     17  C   UNL     1      -4.667  -8.256  -2.916  0.00  0.00    +0.188 C 
ENDBRANCH  10  11
BRANCH   3  18
ATOM     18  C   UNL     1      -6.040  -5.523   3.447  0.00  0.00    +0.044 A 
ATOM     19  C   UNL     1      -6.712  -4.392   2.992  0.00  0.00    +0.017 A 
ATOM     20  C   UNL     1      -6.573  -3.192   3.660  0.00  0.00    -0.050 A 
ATOM     21  C   UNL     1      -5.768  -3.109   4.782  0.00  0.00    +0.007 A 
ATOM     22  C   UNL     1      -5.096  -4.225   5.242  0.00  0.00    +0.046 A 
ATOM     23  C   UNL     1      -5.232  -5.437   4.584  0.00  0.00    +0.126 A 
ATOM     24  C   UNL     1      -7.301  -1.969   3.165  0.00  0.00    +0.044 C 
BRANCH  23  25
ATOM     25  O   UNL     1      -4.577  -6.537   5.040  0.00  0.00    -0.506 OA
ATOM     26  H   UNL     1      -3.666  -6.612   4.723  0.00  0.00    +0.292 HD
ENDBRANCH  23  25
ENDBRANCH   3  18
BRANCH   1  31
ATOM     27  C   UNL     1      -3.165  -3.793  -0.184  0.00  0.00    +0.121 A 
ATOM     28  C   UNL     1      -2.029  -4.589  -0.227  0.00  0.00    +0.045 A 
ATOM     29  C   UNL     1      -2.150  -5.964  -0.197  0.00  0.00    +0.004 A 
ATOM     30  C   UNL     1      -3.401  -6.548  -0.126  0.00  0.00    +0.006 A 
ATOM     31  C   UNL     1      -4.534  -5.757  -0.085  0.00  0.00    -0.019 A 
ATOM     32  C   UNL     1      -4.419  -4.381  -0.108  0.00  0.00    +0.051 A 
BRANCH  27  33
ATOM     33  O   UNL     1      -3.048  -2.439  -0.213  0.00  0.00    -0.492 OA
BRANCH  33  34
ATOM     34  C   UNL     1      -1.726  -1.903  -0.292  0.00  0.00    +0.229 C 
BRANCH  34  35
ATOM     35  C   UNL     1      -1.796  -0.375  -0.313  0.00  0.00    +0.041 C 
BRANCH  35  37
ATOM     36  C   UNL     1      -0.450   1.728  -0.420  0.00  0.00    +0.004 C 
ATOM     37  C   UNL     1      -0.380   0.199  -0.399  0.00  0.00    -0.000 C 
ENDBRANCH  35  37
ENDBRANCH  34  35
ENDBRANCH  33  34
ENDBRANCH  27  33
ENDBRANCH   1  31
TORSDOF 8
