REMARK  Name = ZINC36588312
REMARK  16 active torsions:
REMARK  status: ('A' for Active; 'I' for Inactive)
REMARK    1  A    between atoms: C_1  and  C_2
REMARK    2  A    between atoms: C_5  and  C_8
REMARK    3  A    between atoms: C_8  and  C_10
REMARK    4  A    between atoms: C_8  and  N_24
REMARK    5  A    between atoms: N_12  and  C_13
REMARK    6  A    between atoms: C_13  and  S_14
REMARK    7  A    between atoms: S_14  and  C_17
REMARK    8  A    between atoms: C_20  and  C_23
REMARK    9  A    between atoms: N_24  and  C_37
REMARK   10  A    between atoms: C_25  and  C_27
REMARK   11  A    between atoms: C_27  and  C_28
REMARK   12  A    between atoms: C_28  and  C_30
REMARK   13  A    between atoms: C_28  and  C_31
REMARK   14  A    between atoms: C_37  and  C_38
REMARK   15  A    between atoms: C_37  and  C_39
REMARK   16  A    between atoms: C_37  and  C_40
REMARK                            x       y       z     vdW  Elec       q    Type
REMARK                         _______ _______ _______ _____ _____    ______ ____
ROOT
ATOM      1  C   UNL     1       0.192  -4.746  -0.610  0.00  0.00    +0.193 C 
ENDROOT
BRANCH   1   6
ATOM      2  C   UNL     1       1.958  -1.621  -5.138  0.00  0.00    +0.044 C 
ATOM      3  C   UNL     1       1.498  -2.436  -3.957  0.00  0.00    -0.050 A 
ATOM      4  C   UNL     1       0.871  -3.651  -4.159  0.00  0.00    +0.004 A 
ATOM      5  C   UNL     1       0.448  -4.399  -3.075  0.00  0.00    +0.006 A 
ATOM      6  C   UNL     1       0.653  -3.931  -1.791  0.00  0.00    -0.018 A 
ATOM      7  C   UNL     1       1.281  -2.716  -1.589  0.00  0.00    +0.006 A 
ATOM      8  C   UNL     1       1.707  -1.971  -2.673  0.00  0.00    +0.004 A 
ENDBRANCH   1   6
BRANCH   1   9
ATOM      9  C   UNL     1      -1.264  -4.463  -0.342  0.00  0.00    +0.239 C 
ATOM     10  O   UNL     1      -1.639  -4.232   0.788  0.00  0.00    -0.273 OA
ATOM     11  N   UNL     1      -2.149  -4.465  -1.359  0.00  0.00    -0.294 N 
ATOM     12  H   UNL     1      -1.849  -4.650  -2.263  0.00  0.00    +0.150 HD
BRANCH  11  13
ATOM     13  C   UNL     1      -3.564  -4.190  -1.099  0.00  0.00    +0.278 C 
BRANCH  13  14
ATOM     14  S   UNL     1      -3.900  -2.430  -1.383  0.00  0.00    +0.013 S 
ATOM     15  O   UNL     1      -5.282  -2.159  -1.196  0.00  0.00    -0.168 OA
ATOM     16  O   UNL     1      -2.913  -1.634  -0.744  0.00  0.00    -0.168 OA
BRANCH  14  17
ATOM     17  C   UNL     1      -3.624  -2.190  -3.107  0.00  0.00    +0.090 A 
ATOM     18  C   UNL     1      -2.365  -1.846  -3.564  0.00  0.00    +0.027 A 
ATOM     19  C   UNL     1      -2.149  -1.657  -4.916  0.00  0.00    +0.005 A 
ATOM     20  C   UNL     1      -3.191  -1.813  -5.811  0.00  0.00    -0.050 A 
ATOM     21  C   UNL     1      -4.449  -2.157  -5.354  0.00  0.00    +0.005 A 
ATOM     22  C   UNL     1      -4.665  -2.350  -4.003  0.00  0.00    +0.027 A 
ATOM     23  C   UNL     1      -2.955  -1.606  -7.285  0.00  0.00    +0.044 C 
ENDBRANCH  14  17
ENDBRANCH  13  14
ENDBRANCH  11  13
ENDBRANCH   1   9
BRANCH   1  24
ATOM     24  N   UNL     1       0.983  -4.388   0.570  0.00  0.00    -0.281 N 
ATOM     25  C   UNL     1       0.759  -3.220   1.203  0.00  0.00    +0.217 C 
ATOM     26  O   UNL     1      -0.065  -2.443   0.768  0.00  0.00    -0.276 OA
BRANCH  24  27
ATOM     27  C   UNL     1       2.020  -5.300   1.060  0.00  0.00    +0.030 C 
ATOM     28  C   UNL     1       2.329  -6.345  -0.014  0.00  0.00    +0.031 C 
ATOM     29  C   UNL     1       3.288  -4.506   1.381  0.00  0.00    +0.031 C 
ATOM     30  C   UNL     1       1.524  -6.002   2.326  0.00  0.00    +0.031 C 
ENDBRANCH  24  27
BRANCH  25  31
ATOM     31  C   UNL     1       1.531  -2.879   2.451  0.00  0.00    +0.104 C 
BRANCH  31  32
ATOM     32  C   UNL     1       0.893  -1.665   3.130  0.00  0.00    +0.025 C 
ATOM     33  C   UNL     1      -0.513  -2.029   3.611  0.00  0.00    +0.013 C 
BRANCH  32  34
ATOM     34  C   UNL     1       1.735  -1.249   4.309  0.00  0.00    -0.044 A 
ATOM     35  C   UNL     1       1.961  -2.136   5.345  0.00  0.00    +0.004 A 
ATOM     36  C   UNL     1       2.733  -1.754   6.426  0.00  0.00    +0.000 A 
ATOM     37  C   UNL     1       3.280  -0.486   6.471  0.00  0.00    +0.000 A 
ATOM     38  C   UNL     1       3.055   0.401   5.435  0.00  0.00    +0.000 A 
ATOM     39  C   UNL     1       2.286   0.018   4.352  0.00  0.00    +0.004 A 
ENDBRANCH  32  34
ENDBRANCH  31  32
ENDBRANCH  25  31
ENDBRANCH   1  24
TORSDOF 10
