REMARK  Name = ZINC39674472
REMARK  11 active torsions:
REMARK  status: ('A' for Active; 'I' for Inactive)
REMARK    1  A    between atoms: C_1  and  C_2
REMARK    2  A    between atoms: C_4  and  C_9
REMARK    3  A    between atoms: C_5  and  C_8
REMARK    4  A    between atoms: C_9  and  C_11
REMARK    5  A    between atoms: C_9  and  N_12
REMARK    6  A    between atoms: C_13  and  C_15
REMARK    7  A    between atoms: C_26  and  C_28
REMARK    8  A    between atoms: C_30  and  O_36
REMARK    9  A    between atoms: C_33  and  O_34
REMARK   10  A    between atoms: O_34  and  C_35
REMARK   11  A    between atoms: O_36  and  C_37
REMARK                            x       y       z     vdW  Elec       q    Type
REMARK                         _______ _______ _______ _____ _____    ______ ____
ROOT
ATOM      1  C   UNL     1      -2.805  -1.151  -4.340  0.00  0.00    +0.100 C 
ATOM      2  C   UNL     1      -2.291   0.141  -5.013  0.00  0.00    +0.121 C 
ATOM      3  N   UNL     1      -2.779   0.055  -6.409  0.00  0.00    -0.296 N 
ATOM      4  C   UNL     1      -4.143  -0.513  -6.289  0.00  0.00    +0.115 C 
ATOM      5  C   UNL     1      -4.021  -1.577  -5.180  0.00  0.00    -0.004 C 
ATOM      6  C   UNL     1      -3.784  -2.954  -5.793  0.00  0.00    -0.010 C 
ATOM      7  C   UNL     1      -5.028  -3.380  -6.577  0.00  0.00    -0.082 C 
ATOM      8  N   UNL     1      -6.187  -3.416  -5.676  0.00  0.00    +0.379 N 
ATOM      9  C   UNL     1      -6.465  -2.069  -5.163  0.00  0.00    -0.082 C 
ATOM     10  C   UNL     1      -5.281  -1.588  -4.320  0.00  0.00    -0.010 C 
ATOM     11  C   UNL     1      -2.130   0.414  -7.535  0.00  0.00    +0.250 C 
ATOM     12  O   UNL     1      -0.972   0.783  -7.478  0.00  0.00    -0.270 OA
ATOM     13  H   UNL     1      -6.992  -3.755  -6.181  0.00  0.00    -0.086 HD
ATOM     14  H   UNL     1      -5.992  -4.035  -4.904  0.00  0.00    -0.086 HD
ENDROOT
BRANCH  11  15
ATOM     15  C   UNL     1      -2.823   0.358  -8.836  0.00  0.00    +0.082 A 
ATOM     16  C   UNL     1      -4.185   0.659  -8.919  0.00  0.00    +0.062 A 
ATOM     17  C   UNL     1      -4.828   0.605 -10.142  0.00  0.00    +0.121 A 
ATOM     18  C   UNL     1      -4.123   0.253 -11.287  0.00  0.00    +0.049 A 
ATOM     19  C   UNL     1      -2.778  -0.045 -11.213  0.00  0.00    +0.050 A 
ATOM     20  C   UNL     1      -2.117   0.010  -9.995  0.00  0.00    +0.132 A 
BRANCH  20  21
ATOM     21  O   UNL     1      -0.793  -0.278  -9.925  0.00  0.00    -0.494 OA
ATOM     22  C   UNL     1      -0.139  -0.625 -11.147  0.00  0.00    +0.277 C 
ENDBRANCH  20  21
BRANCH  17  23
ATOM     23  O   UNL     1      -6.153   0.897 -10.224  0.00  0.00    -0.495 OA
ATOM     24  C   UNL     1      -6.755   0.822 -11.518  0.00  0.00    +0.277 C 
ENDBRANCH  17  23
ENDBRANCH  11  15
BRANCH   1  26
ATOM     25  N   UNL     1      -3.223  -1.868  -2.009  0.00  0.00    -0.309 N 
ATOM     26  C   UNL     1      -3.221  -0.873  -2.918  0.00  0.00    +0.219 C 
ATOM     27  O   UNL     1      -3.556   0.247  -2.593  0.00  0.00    -0.275 OA
ATOM     28  H   UNL     1      -2.955  -2.763  -2.270  0.00  0.00    +0.149 HD
BRANCH  25  29
ATOM     29  C   UNL     1      -3.627  -1.597  -0.627  0.00  0.00    +0.100 C 
ATOM     30  C   UNL     1      -2.426  -1.074   0.163  0.00  0.00    +0.033 C 
BRANCH  29  33
ATOM     31  C   UNL     1      -2.129  -4.082   0.906  0.00  0.00    +0.039 C 
ATOM     32  C   UNL     1      -3.425  -4.209   0.103  0.00  0.00    +0.154 C 
ATOM     33  C   UNL     1      -4.131  -2.868   0.007  0.00  0.00    -0.001 C 
ATOM     34  C   UNL     1      -5.301  -3.076   0.615  0.00  0.00    +0.063 C 
ATOM     35  N   UNL     1      -5.391  -4.349   1.059  0.00  0.00    -0.159 NA
ATOM     36  N   UNL     1      -4.400  -5.050   0.818  0.00  0.00    -0.180 NA
ATOM     37  C   UNL     1      -6.375  -2.032   0.783  0.00  0.00    +0.067 C 
ENDBRANCH  29  33
ENDBRANCH  25  29
ENDBRANCH   1  26
TORSDOF 6
