REMARK  Name = ZINC35275236
REMARK  12 active torsions:
REMARK  status: ('A' for Active; 'I' for Inactive)
REMARK    1  A    between atoms: C_1  and  C_2
REMARK    2  A    between atoms: C_2  and  C_3
REMARK    3  A    between atoms: C_3  and  C_5
REMARK    4  A    between atoms: C_3  and  C_6
REMARK    5  A    between atoms: C_6  and  C_8
REMARK    6  A    between atoms: C_6  and  N_22
REMARK    7  A    between atoms: C_14  and  C_16
REMARK    8  A    between atoms: N_22  and  S_23
REMARK    9  A    between atoms: S_23  and  C_26
REMARK   10  A    between atoms: C_26  and  C_27
REMARK   11  A    between atoms: C_32  and  C_33
REMARK   12  A    between atoms: C_32  and  C_34
REMARK                            x       y       z     vdW  Elec       q    Type
REMARK                         _______ _______ _______ _____ _____    ______ ____
ROOT
ATOM      1  C   UNL     1       0.340  -2.194  -1.303  0.00  0.00    +0.165 C 
ENDROOT
BRANCH   1   2
ATOM      2  C   UNL     1       1.565  -2.642  -0.548  0.00  0.00    +0.238 C 
ATOM      3  O   UNL     1       1.453  -3.384   0.404  0.00  0.00    -0.274 OA
ATOM      4  N   UNL     1       2.785  -2.217  -0.931  0.00  0.00    -0.262 N 
ATOM      5  C   UNL     1       3.921  -2.703  -0.296  0.00  0.00    +0.188 A 
ATOM      6  N   UNL     1       4.013  -3.580   0.686  0.00  0.00    -0.125 NA
ATOM      7  N   UNL     1       5.128  -3.931   1.167  0.00  0.00    -0.140 NA
ATOM      8  C   UNL     1       6.237  -3.400   0.667  0.00  0.00    +0.134 A 
ATOM      9  S   UNL     1       5.540  -2.333  -0.587  0.00  0.00    -0.030 S 
ATOM     10  H   UNL     1       2.870  -1.571  -1.650  0.00  0.00    +0.157 HD
BRANCH   8  11
ATOM     11  C   UNL     1       7.649  -3.631   1.038  0.00  0.00    +0.009 A 
ATOM     12  C   UNL     1       8.669  -2.950   0.371  0.00  0.00    +0.010 A 
ATOM     13  C   UNL     1       9.985  -3.169   0.722  0.00  0.00    +0.001 A 
ATOM     14  C   UNL     1      10.295  -4.063   1.732  0.00  0.00    +0.000 A 
ATOM     15  C   UNL     1       9.289  -4.742   2.396  0.00  0.00    +0.001 A 
ATOM     16  C   UNL     1       7.968  -4.526   2.059  0.00  0.00    +0.010 A 
ENDBRANCH   8  11
ENDBRANCH   1   2
BRANCH   1  17
ATOM     17  C   UNL     1      -0.087  -0.811  -0.808  0.00  0.00    +0.013 C 
ATOM     18  C   UNL     1      -0.497  -0.900   0.664  0.00  0.00    +0.009 C 
BRANCH  17  20
ATOM     19  C   UNL     1      -1.618   1.118  -1.230  0.00  0.00    +0.004 C 
ATOM     20  C   UNL     1      -1.273  -0.316  -1.638  0.00  0.00    +0.002 C 
ENDBRANCH  17  20
ENDBRANCH   1  17
BRANCH   1  21
ATOM     21  N   UNL     1      -0.748  -3.150  -1.080  0.00  0.00    -0.182 NA
ATOM     22  H   UNL     1      -1.069  -3.318  -0.180  0.00  0.00    +0.148 HD
BRANCH  21  23
ATOM     23  S   UNL     1      -1.428  -3.944  -2.364  0.00  0.00    +0.031 S 
ATOM     24  O   UNL     1      -2.448  -4.751  -1.792  0.00  0.00    -0.158 OA
ATOM     25  O   UNL     1      -1.752  -2.919  -3.294  0.00  0.00    -0.158 OA
BRANCH  23  26
ATOM     26  C   UNL     1      -0.100  -4.989  -3.023  0.00  0.00    +0.200 C 
BRANCH  26  27
ATOM     27  C   UNL     1      -0.621  -5.777  -4.226  0.00  0.00    +0.055 C 
ATOM     28  C   UNL     1      -1.092  -4.926  -5.445  0.00  0.00    +0.017 C 
ATOM     29  C   UNL     1      -1.062  -5.907  -6.640  0.00  0.00    +0.005 C 
ATOM     30  C   UNL     1      -0.584  -7.258  -6.023  0.00  0.00    +0.003 C 
ATOM     31  C   UNL     1       0.407  -6.738  -4.921  0.00  0.00    -0.018 C 
ATOM     32  C   UNL     1       1.589  -5.976  -5.524  0.00  0.00    +0.012 C 
ATOM     33  C   UNL     1       0.869  -7.859  -3.988  0.00  0.00    +0.012 C 
ATOM     34  C   UNL     1      -1.785  -7.727  -5.146  0.00  0.00    +0.079 C 
ATOM     35  C   UNL     1      -1.776  -6.748  -3.941  0.00  0.00    +0.142 C 
ATOM     36  O   UNL     1      -2.527  -6.735  -2.995  0.00  0.00    -0.297 OA
ENDBRANCH  26  27
ENDBRANCH  23  26
ENDBRANCH  21  23
ENDBRANCH   1  21
TORSDOF 8
