REMARK  Name = ZINC20115289
REMARK  6 active torsions:
REMARK  status: ('A' for Active; 'I' for Inactive)
REMARK    1  A    between atoms: C_1  and  C_2
REMARK    2  A    between atoms: C_2  and  C_13
REMARK    3  A    between atoms: N_3  and  N_4
REMARK    4  A    between atoms: C_5  and  C_7
REMARK    5  A    between atoms: C_15  and  O_20
REMARK    6  A    between atoms: C_18  and  O_19
REMARK                            x       y       z     vdW  Elec       q    Type
REMARK                         _______ _______ _______ _____ _____    ______ ____
ROOT
ATOM      1  C   UNL     1       1.654   1.181   0.358  0.00  0.00    +0.068 C 
ATOM      2  C   UNL     1       1.342  -0.293   0.361  0.00  0.00    +0.067 C 
ATOM      3  N   UNL     1       0.616  -0.801   1.310  0.00  0.00    -0.184 NA
ENDROOT
BRANCH   2   4
ATOM      4  C   UNL     1       1.860  -1.159  -0.713  0.00  0.00    +0.042 A 
ATOM      5  C   UNL     1       0.979  -1.774  -1.605  0.00  0.00    +0.058 A 
ATOM      6  C   UNL     1       1.473  -2.584  -2.612  0.00  0.00    +0.118 A 
ATOM      7  C   UNL     1       2.842  -2.788  -2.736  0.00  0.00    +0.049 A 
ATOM      8  C   UNL     1       3.719  -2.183  -1.856  0.00  0.00    +0.049 A 
ATOM      9  C   UNL     1       3.240  -1.363  -0.848  0.00  0.00    +0.126 A 
BRANCH   9  10
ATOM     10  O   UNL     1       4.104  -0.765   0.013  0.00  0.00    -0.506 OA
ATOM     11  H   UNL     1       4.363  -1.321   0.760  0.00  0.00    +0.292 HD
ENDBRANCH   9  10
BRANCH   6  12
ATOM     12  O   UNL     1       0.617  -3.184  -3.481  0.00  0.00    -0.507 OA
ATOM     13  H   UNL     1       0.424  -2.658  -4.269  0.00  0.00    +0.292 HD
ENDBRANCH   6  12
ENDBRANCH   2   4
BRANCH   3  14
ATOM     14  N   UNL     1       0.406  -2.185   1.367  0.00  0.00    -0.207 N 
ATOM     15  C   UNL     1      -0.417  -2.703   2.300  0.00  0.00    +0.235 C 
ATOM     16  O   UNL     1      -0.910  -1.983   3.142  0.00  0.00    -0.274 OA
ATOM     17  H   UNL     1       0.853  -2.770   0.736  0.00  0.00    +0.177 HD
BRANCH  15  18
ATOM     18  C   UNL     1      -0.725  -4.179   2.297  0.00  0.00    +0.077 C 
ATOM     19  C   UNL     1      -1.963  -4.440   1.438  0.00  0.00    +0.013 C 
ATOM     20  C   UNL     1      -2.276  -5.938   1.435  0.00  0.00    +0.001 C 
ATOM     21  C   UNL     1      -2.540  -6.406   2.867  0.00  0.00    +0.000 C 
ATOM     22  C   UNL     1      -1.302  -6.145   3.726  0.00  0.00    +0.001 C 
ATOM     23  C   UNL     1      -0.990  -4.647   3.729  0.00  0.00    +0.013 C 
ENDBRANCH  15  18
ENDBRANCH   3  14
TORSDOF 5
