REMARK  Name = ZINC35354262
REMARK  4 active torsions:
REMARK  status: ('A' for Active; 'I' for Inactive)
REMARK    1  A    between atoms: C_4  and  S_9
REMARK    2  A    between atoms: C_5  and  N_7
REMARK    3  A    between atoms: N_7  and  N_8
REMARK    4  A    between atoms: S_9  and  N_12
REMARK                            x       y       z     vdW  Elec       q    Type
REMARK                         _______ _______ _______ _____ _____    ______ ____
ROOT
ATOM      1  C   UNL     1       7.353  -1.949  -2.713  0.00  0.00    +0.002 A 
ATOM      2  C   UNL     1       6.074  -2.389  -3.000  0.00  0.00    +0.002 A 
ATOM      3  C   UNL     1       5.048  -2.179  -2.096  0.00  0.00    +0.030 A 
ATOM      4  C   UNL     1       5.299  -1.529  -0.904  0.00  0.00    +0.127 A 
ATOM      5  C   UNL     1       6.583  -1.086  -0.613  0.00  0.00    +0.067 A 
ATOM      6  C   UNL     1       7.611  -1.298  -1.523  0.00  0.00    +0.026 A 
ENDROOT
BRANCH   4   7
ATOM      7  S   UNL     1       3.991  -1.261   0.247  0.00  0.00    +0.063 S 
ATOM      8  O   UNL     1       4.117   0.080   0.700  0.00  0.00    -0.153 OA
ATOM      9  O   UNL     1       2.806  -1.750  -0.365  0.00  0.00    -0.153 OA
BRANCH   7  10
ATOM     10  N   UNL     1       4.284  -2.232   1.556  0.00  0.00    -0.177 NA
ATOM     11  C   UNL     1       4.826  -1.662   2.797  0.00  0.00    +0.109 C 
ATOM     12  C   UNL     1       3.771  -0.767   3.436  0.00  0.00    +0.017 C 
ATOM     13  C   UNL     1       2.660  -1.646   4.035  0.00  0.00    +0.001 C 
ATOM     14  C   UNL     1       1.742  -2.134   2.921  0.00  0.00    +0.000 C 
ATOM     15  C   UNL     1       1.851  -3.661   2.754  0.00  0.00    +0.001 C 
ATOM     16  C   UNL     1       3.321  -4.080   2.794  0.00  0.00    +0.017 C 
ATOM     17  C   UNL     1       4.002  -3.656   1.491  0.00  0.00    +0.109 C 
ENDBRANCH   7  10
ENDBRANCH   4   7
BRANCH   5  18
ATOM     18  N   UNL     1       6.840  -0.428   0.593  0.00  0.00    -0.281 N 
ATOM     19  H   UNL     1       6.107  -0.201   1.187  0.00  0.00    +0.166 HD
BRANCH  18  20
ATOM     20  N   UNL     1       8.122  -0.104   0.934  0.00  0.00    -0.256 NA
ATOM     21  H   UNL     1       8.151   0.365   1.827  0.00  0.00    +0.140 HD
ATOM     22  H   UNL     1       8.713  -0.921   0.936  0.00  0.00    +0.140 HD
ENDBRANCH  18  20
ENDBRANCH   5  18
TORSDOF 4
