REMARK  Name = ZINC16652759
REMARK  12 active torsions:
REMARK  status: ('A' for Active; 'I' for Inactive)
REMARK    1  A    between atoms: C_1  and  O_2
REMARK    2  A    between atoms: O_2  and  C_3
REMARK    3  A    between atoms: C_3  and  C_4
REMARK    4  A    between atoms: C_4  and  N_5
REMARK    5  A    between atoms: N_5  and  C_6
REMARK    6  A    between atoms: C_6  and  C_7
REMARK    7  A    between atoms: N_9  and  C_10
REMARK    8  A    between atoms: N_9  and  C_20
REMARK    9  A    between atoms: C_10  and  C_11
REMARK   10  A    between atoms: C_20  and  C_21
REMARK   11  A    between atoms: C_26  and  C_28
REMARK   12  A    between atoms: C_32  and  N_34
REMARK                            x       y       z     vdW  Elec       q    Type
REMARK                         _______ _______ _______ _____ _____    ______ ____
ROOT
ATOM      1  C   UNL     1       0.729   7.825   1.477  0.00  0.00    +0.234 C 
ATOM      2  O   UNL     1       0.839   7.063   2.415  0.00  0.00    -0.274 OA
ATOM      3  N   UNL     1       0.544   9.141   1.697  0.00  0.00    -0.289 N 
ENDROOT
BRANCH   1   4
ATOM      4  C   UNL     1       0.801   7.299   0.067  0.00  0.00    +0.204 C 
BRANCH   4   5
ATOM      5  N   UNL     1       1.006   5.849   0.096  0.00  0.00    -0.287 N 
ATOM      6  C   UNL     1      -0.055   5.018   0.111  0.00  0.00    +0.247 C 
ATOM      7  O   UNL     1      -1.179   5.465  -0.013  0.00  0.00    -0.270 OA
BRANCH   6   8
ATOM      8  C   UNL     1       0.147   3.563   0.279  0.00  0.00    +0.039 A 
ATOM      9  C   UNL     1       1.143   2.906  -0.445  0.00  0.00    +0.013 A 
ATOM     10  C   UNL     1       1.327   1.548  -0.283  0.00  0.00    +0.003 A 
ATOM     11  C   UNL     1       0.526   0.838   0.594  0.00  0.00    +0.033 A 
ATOM     12  C   UNL     1      -0.467   1.483   1.311  0.00  0.00    +0.127 A 
ATOM     13  C   UNL     1      -0.657   2.841   1.163  0.00  0.00    +0.045 A 
BRANCH  12  14
ATOM     14  N   UNL     1      -1.322   0.715   2.242  0.00  0.00    +0.056 N 
ATOM     15  O   UNL     1      -1.152  -0.484   2.378  0.00  0.00    -0.126 OA
ATOM     16  O   UNL     1      -2.196   1.281   2.874  0.00  0.00    -0.126 OA
ENDBRANCH  12  14
ENDBRANCH   6   8
BRANCH   5  17
ATOM     17  C   UNL     1       2.365   5.301   0.108  0.00  0.00    +0.136 C 
BRANCH  17  18
ATOM     18  C   UNL     1       2.919   5.280  -1.317  0.00  0.00    +0.178 C 
BRANCH  18  20
ATOM     19  C   UNL     1       3.631   6.713  -3.102  0.00  0.00    +0.194 C 
ATOM     20  O   UNL     1       3.113   6.620  -1.774  0.00  0.00    -0.381 OA
ENDBRANCH  18  20
ENDBRANCH  17  18
ENDBRANCH   5  17
ENDBRANCH   4   5
ENDBRANCH   1   4
BRANCH   3  21
ATOM     21  C   UNL     1       0.474   9.652   3.068  0.00  0.00    +0.143 C 
BRANCH  21  22
ATOM     22  C   UNL     1       1.857  10.027   3.536  0.00  0.00    -0.026 A 
ATOM     23  C   UNL     1       2.645   9.089   4.177  0.00  0.00    +0.009 A 
ATOM     24  C   UNL     1       3.916   9.426   4.603  0.00  0.00    +0.050 A 
ATOM     25  C   UNL     1       4.399  10.708   4.399  0.00  0.00    +0.166 A 
ATOM     26  C   UNL     1       3.603  11.654   3.758  0.00  0.00    +0.167 A 
ATOM     27  C   UNL     1       2.332  11.308   3.329  0.00  0.00    +0.054 A 
ATOM     28  O   UNL     1       4.297  12.827   3.679  0.00  0.00    -0.453 OA
ATOM     29  C   UNL     1       5.364  12.708   4.638  0.00  0.00    +0.466 C 
ATOM     30  O   UNL     1       5.592  11.288   4.721  0.00  0.00    -0.453 OA
ENDBRANCH  21  22
ENDBRANCH   3  21
BRANCH   3  31
ATOM     31  C   UNL     1       0.412  10.062   0.565  0.00  0.00    +0.182 C 
BRANCH  31  32
ATOM     32  C   UNL     1      -1.040  10.178   0.179  0.00  0.00    +0.122 A 
ATOM     33  C   UNL     1      -1.915  11.074   0.670  0.00  0.00    +0.046 A 
ATOM     34  C   UNL     1      -3.155  10.826   0.036  0.00  0.00    +0.041 A 
ATOM     35  C   UNL     1      -2.963   9.794  -0.804  0.00  0.00    +0.195 A 
ATOM     36  O   UNL     1      -1.679   9.409  -0.718  0.00  0.00    -0.466 OA
ENDBRANCH  31  32
ENDBRANCH   3  31
TORSDOF 11
