REMARK  Name = ZINC12245072
REMARK  9 active torsions:
REMARK  status: ('A' for Active; 'I' for Inactive)
REMARK    1  A    between atoms: C_1  and  C_2
REMARK    2  A    between atoms: C_2  and  C_37
REMARK    3  A    between atoms: C_7  and  C_11
REMARK    4  A    between atoms: C_11  and  C_12
REMARK    5  A    between atoms: C_12  and  N_76
REMARK    6  A    between atoms: C_13  and  N_76
REMARK    7  A    between atoms: N_16  and  C_19
REMARK    8  A    between atoms: C_22  and  C_25
REMARK    9  A    between atoms: N_27  and  C_28
REMARK                            x       y       z     vdW  Elec       q    Type
REMARK                         _______ _______ _______ _____ _____    ______ ____
ROOT
ATOM      1  C   UNL     1       4.211   5.922  -1.140  0.00  0.00    -0.069 C 
ATOM      2  C   UNL     1       3.448   6.045   0.182  0.00  0.00    +0.003 C 
ATOM      3  C   UNL     1       2.102   5.327   0.057  0.00  0.00    +0.103 C 
ATOM      4  N   UNL     1       2.328   3.913  -0.270  0.00  0.00    -0.330 N 
ATOM      5  C   UNL     1       3.018   3.769  -1.558  0.00  0.00    +0.103 C 
ATOM      6  C   UNL     1       4.391   4.441  -1.482  0.00  0.00    +0.003 C 
ENDROOT
BRANCH   4   7
ATOM      7  C   UNL     1       1.133   3.203  -0.262  0.00  0.00    +0.030 A 
ATOM      8  C   UNL     1       1.133   1.840  -0.547  0.00  0.00    +0.024 A 
ATOM      9  C   UNL     1      -0.048   1.134  -0.541  0.00  0.00    +0.015 A 
ATOM     10  C   UNL     1      -1.250   1.788  -0.252  0.00  0.00    +0.037 A 
ATOM     11  C   UNL     1      -1.246   3.155   0.040  0.00  0.00    +0.015 A 
ATOM     12  C   UNL     1      -0.061   3.855   0.032  0.00  0.00    +0.024 A 
BRANCH  10  13
ATOM     13  C   UNL     1      -2.518   1.035  -0.250  0.00  0.00    +0.245 C 
ATOM     14  O   UNL     1      -2.520  -0.155  -0.500  0.00  0.00    -0.270 OA
ATOM     15  N   UNL     1      -3.676   1.667   0.029  0.00  0.00    -0.300 N 
ATOM     16  H   UNL     1      -3.675   2.616   0.228  0.00  0.00    +0.150 HD
BRANCH  15  17
ATOM     17  C   UNL     1      -4.936   0.919   0.030  0.00  0.00    +0.159 C 
ATOM     18  C   UNL     1      -6.012   1.727   0.761  0.00  0.00    +0.032 C 
ATOM     19  C   UNL     1      -5.827   3.213   0.516  0.00  0.00    +0.004 C 
ATOM     20  C   UNL     1      -6.071   3.632  -0.923  0.00  0.00    +0.019 C 
ATOM     21  C   UNL     1      -5.001   3.050  -1.849  0.00  0.00    +0.104 C 
ATOM     22  N   UNL     1      -5.420   1.700  -2.263  0.00  0.00    -0.314 N 
ATOM     23  C   UNL     1      -5.391   0.684  -1.395  0.00  0.00    +0.233 C 
ATOM     24  O   UNL     1      -5.732  -0.425  -1.745  0.00  0.00    -0.274 OA
ATOM     25  H   UNL     1      -5.718   1.547  -3.173  0.00  0.00    +0.149 HD
ENDBRANCH  15  17
ENDBRANCH  10  13
ENDBRANCH   4   7
BRANCH   1  26
ATOM     26  N   UNL     1       5.533   6.560  -0.999  0.00  0.00    +0.381 N 
ATOM     27  H   UNL     1       5.451   7.377  -0.381  0.00  0.00    -0.086 HD
ATOM     28  H   UNL     1       6.192   5.887  -0.590  0.00  0.00    -0.086 HD
BRANCH  26  29
ATOM     29  C   UNL     1       6.036   6.995  -2.316  0.00  0.00    -0.078 C 
BRANCH  29  30
ATOM     30  C   UNL     1       7.406   7.651  -2.137  0.00  0.00    +0.012 C 
BRANCH  30  36
ATOM     31  C   UNL     1       8.713   6.162  -6.769  0.00  0.00    +0.012 C 
ATOM     32  C   UNL     1       8.197   7.270  -5.848  0.00  0.00    -0.025 C 
ATOM     33  C   UNL     1       9.044   8.559  -5.887  0.00  0.00    -0.000 C 
ATOM     34  C   UNL     1       8.272   9.737  -5.278  0.00  0.00    +0.031 C 
ATOM     35  C   UNL     1       7.746   9.326  -3.907  0.00  0.00    -0.027 C 
ATOM     36  C   UNL     1       7.928   8.098  -3.479  0.00  0.00    -0.072 C 
ATOM     37  C   UNL     1       8.678   7.144  -4.391  0.00  0.00    +0.021 C 
ATOM     38  C   UNL     1       9.968   7.843  -4.886  0.00  0.00    +0.012 C 
ATOM     39  C   UNL     1       6.692   7.510  -5.985  0.00  0.00    +0.012 C 
ENDBRANCH  30  36
ENDBRANCH  29  30
ENDBRANCH  26  29
ENDBRANCH   1  26
TORSDOF 7
