REMARK  Name = ZINC14544855
REMARK  1 active torsions:
REMARK  status: ('A' for Active; 'I' for Inactive)
REMARK    1  A    between atoms: C_7  and  C_11
REMARK                            x       y       z     vdW  Elec       q    Type
REMARK                         _______ _______ _______ _____ _____    ______ ____
ROOT
ATOM      1  C   UNL     1       0.002  -0.004   0.002  0.00  0.00    +0.107 C 
ATOM      2  C   UNL     1       0.803  -0.442  -1.226  0.00  0.00    +0.029 C 
ATOM      3  C   UNL     1       1.039  -1.975  -1.119  0.00  0.00    +0.033 C 
ATOM      4  C   UNL     1       2.235  -2.086  -0.194  0.00  0.00    -0.030 C 
ATOM      5  C   UNL     1       2.909  -0.963  -0.177  0.00  0.00    -0.023 C 
ATOM      6  C   UNL     1       2.256   0.059  -1.079  0.00  0.00    +0.050 C 
ATOM      7  C   UNL     1       2.308   1.423  -0.458  0.00  0.00    +0.000 A 
ATOM      8  C   UNL     1       3.537   2.071  -0.408  0.00  0.00    +0.047 A 
ATOM      9  C   UNL     1       3.648   3.328   0.153  0.00  0.00    +0.022 A 
ATOM     10  C   UNL     1       2.530   3.954   0.674  0.00  0.00    +0.023 A 
ATOM     11  C   UNL     1       1.306   3.320   0.629  0.00  0.00    +0.062 A 
ATOM     12  C   UNL     1       1.189   2.050   0.061  0.00  0.00    +0.051 A 
ATOM     13  N   UNL     1      -0.073   1.457   0.039  0.00  0.00    -0.335 N 
ATOM     14 CL   UNL     1      -0.098   4.105   1.282  0.00  0.00    -0.082 Cl
ATOM     15 CL   UNL     1       4.946   1.293  -1.059  0.00  0.00    -0.083 Cl
ATOM     16  H   UNL     1      -0.626   1.810  -0.727  0.00  0.00    +0.147 HD
ENDROOT
BRANCH   1  23
ATOM     17  C   UNL     1      -0.258  -4.019   2.407  0.00  0.00    +0.001 A 
ATOM     18  C   UNL     1       0.571  -4.037   3.521  0.00  0.00    +0.002 A 
ATOM     19  C   UNL     1       1.360  -2.951   3.827  0.00  0.00    +0.026 A 
ATOM     20  C   UNL     1       1.329  -1.823   3.013  0.00  0.00    +0.047 A 
ATOM     21  C   UNL     1       0.488  -1.810   1.885  0.00  0.00    +0.005 A 
ATOM     22  C   UNL     1      -0.305  -2.922   1.595  0.00  0.00    +0.010 A 
ATOM     23  C   UNL     1       0.683  -0.504   1.250  0.00  0.00    -0.002 A 
ATOM     24  C   UNL     1       1.587   0.160   1.987  0.00  0.00    +0.089 A 
ATOM     25  N   UNL     1       1.980  -0.610   3.048  0.00  0.00    -0.360 N 
ATOM     26  H   UNL     1       2.625  -0.343   3.721  0.00  0.00    +0.165 HD
ENDBRANCH   1  23
TORSDOF 1
