REMARK  Name = ZINC65481284
REMARK  10 active torsions:
REMARK  status: ('A' for Active; 'I' for Inactive)
REMARK    1  A    between atoms: C_1  and  C_2
REMARK    2  A    between atoms: C_2  and  N_3
REMARK    3  A    between atoms: N_3  and  C_4
REMARK    4  A    between atoms: N_3  and  C_6
REMARK    5  A    between atoms: C_4  and  C_5
REMARK    6  A    between atoms: C_6  and  C_7
REMARK    7  A    between atoms: C_6  and  C_22
REMARK    8  A    between atoms: C_7  and  N_8
REMARK    9  A    between atoms: N_11  and  N_12
REMARK   10  A    between atoms: C_13  and  C_15
REMARK                            x       y       z     vdW  Elec       q    Type
REMARK                         _______ _______ _______ _____ _____    ______ ____
ROOT
ATOM      1  N   UNL     1       0.717  -2.086  -3.538  0.00  0.00    -0.299 N 
ATOM      2  C   UNL     1       1.414  -2.868  -4.387  0.00  0.00    +0.316 C 
ATOM      3  O   UNL     1       2.086  -2.363  -5.265  0.00  0.00    -0.251 OA
ATOM      4  N   UNL     1       1.366  -4.209  -4.262  0.00  0.00    -0.218 N 
ATOM      5  H   UNL     1       0.240  -2.484  -2.793  0.00  0.00    +0.150 HD
ATOM      6  H   UNL     1       1.926  -4.768  -4.822  0.00  0.00    +0.174 HD
ENDROOT
BRANCH   4   7
ATOM      7  N   UNL     1       0.508  -4.794  -3.322  0.00  0.00    -0.229 N 
ATOM      8  C   UNL     1       0.536  -6.127  -3.122  0.00  0.00    +0.260 C 
ATOM      9  O   UNL     1       1.307  -6.820  -3.756  0.00  0.00    -0.269 OA
ATOM     10  H   UNL     1      -0.107  -4.241  -2.815  0.00  0.00    +0.173 HD
BRANCH   8  11
ATOM     11  C   UNL     1      -0.369  -6.744  -2.130  0.00  0.00    +0.038 A 
ATOM     12  C   UNL     1      -1.259  -5.951  -1.404  0.00  0.00    +0.014 A 
ATOM     13  C   UNL     1      -2.101  -6.533  -0.480  0.00  0.00    +0.021 A 
ATOM     14  C   UNL     1      -2.065  -7.902  -0.272  0.00  0.00    +0.041 A 
ATOM     15  C   UNL     1      -1.184  -8.694  -0.989  0.00  0.00    +0.021 A 
ATOM     16  C   UNL     1      -0.342  -8.124  -1.921  0.00  0.00    +0.014 A 
ATOM     17 CL   UNL     1      -3.128  -8.627   0.893  0.00  0.00    -0.084 Cl
ENDBRANCH   8  11
ENDBRANCH   4   7
BRANCH   1  18
ATOM     18  C   UNL     1       0.679  -0.636  -3.742  0.00  0.00    +0.098 C 
BRANCH  18  19
ATOM     19  C   UNL     1      -0.102   0.019  -2.600  0.00  0.00    +0.016 C 
BRANCH  19  20
ATOM     20  C   UNL     1      -0.070   1.517  -2.764  0.00  0.00    +0.093 A 
ATOM     21  C   UNL     1      -1.096   2.286  -3.170  0.00  0.00    +0.043 A 
ATOM     22  C   UNL     1      -0.629   3.620  -3.180  0.00  0.00    +0.041 A 
ATOM     23  C   UNL     1       0.655   3.587  -2.780  0.00  0.00    +0.195 A 
ATOM     24  O   UNL     1       0.986   2.310  -2.523  0.00  0.00    -0.469 OA
ENDBRANCH  19  20
BRANCH  19  25
ATOM     25  N   UNL     1       0.509  -0.347  -1.316  0.00  0.00    +0.387 N 
ATOM     26  H   UNL     1       0.425  -1.342  -1.174  0.00  0.00    -0.081 HD
BRANCH  25  28
ATOM     27  C   UNL     1       2.766  -1.154  -1.819  0.00  0.00    -0.017 C 
ATOM     28  C   UNL     1       1.929   0.028  -1.325  0.00  0.00    -0.081 C 
ENDBRANCH  25  28
BRANCH  25  29
ATOM     29  C   UNL     1      -0.177   0.362  -0.228  0.00  0.00    -0.081 C 
ATOM     30  C   UNL     1      -1.619  -0.138  -0.123  0.00  0.00    -0.017 C 
ENDBRANCH  25  29
ENDBRANCH  19  25
ENDBRANCH  18  19
ENDBRANCH   1  18
TORSDOF 8
