REMARK  Name = ZINC17281635
REMARK  7 active torsions:
REMARK  status: ('A' for Active; 'I' for Inactive)
REMARK    1  A    between atoms: C_1  and  C_2
REMARK    2  A    between atoms: C_2  and  C_4
REMARK    3  A    between atoms: C_2  and  N_14
REMARK    4  A    between atoms: N_14  and  C_15
REMARK    5  A    between atoms: C_18  and  N_25
REMARK    6  A    between atoms: C_20  and  S_21
REMARK    7  A    between atoms: S_21  and  N_24
REMARK                            x       y       z     vdW  Elec       q    Type
REMARK                         _______ _______ _______ _____ _____    ______ ____
ROOT
ATOM      1  C   UNL     1      -0.019  -0.613  -2.401  0.00  0.00    +0.054 A 
ATOM      2  C   UNL     1      -1.370  -0.295  -2.451  0.00  0.00    +0.027 A 
ATOM      3  C   UNL     1      -2.065  -0.431  -3.637  0.00  0.00    +0.034 A 
ATOM      4  C   UNL     1      -1.418  -0.882  -4.772  0.00  0.00    +0.128 A 
ATOM      5  C   UNL     1      -0.073  -1.199  -4.725  0.00  0.00    +0.063 A 
ATOM      6  C   UNL     1       0.630  -1.061  -3.544  0.00  0.00    +0.128 A 
ENDROOT
BRANCH   6   7
ATOM      7  S   UNL     1       2.346  -1.458  -3.487  0.00  0.00    +0.058 S 
ATOM      8  O   UNL     1       2.530  -2.301  -2.357  0.00  0.00    -0.153 OA
ATOM      9  O   UNL     1       2.715  -1.854  -4.801  0.00  0.00    -0.153 OA
BRANCH   7  10
ATOM     10  N   UNL     1       3.163  -0.054  -3.168  0.00  0.00    -0.203 NA
ATOM     11  H   UNL     1       2.675   0.776  -3.053  0.00  0.00    +0.144 HD
ATOM     12  H   UNL     1       4.130  -0.061  -3.096  0.00  0.00    +0.144 HD
ENDBRANCH   7  10
ENDBRANCH   6   7
BRANCH   4  13
ATOM     13  N   UNL     1      -2.166  -1.026  -6.041  0.00  0.00    +0.056 N 
ATOM     14  O   UNL     1      -3.342  -0.750  -6.084  0.00  0.00    -0.126 OA
ATOM     15  O   UNL     1      -1.601  -1.421  -7.035  0.00  0.00    -0.126 OA
ENDBRANCH   4  13
BRANCH   1  16
ATOM     16  N   UNL     1       0.688  -0.476  -1.203  0.00  0.00    -0.336 N 
ATOM     17  H   UNL     1       1.632  -0.695  -1.170  0.00  0.00    +0.147 HD
BRANCH  16  19
ATOM     18  C   UNL     1      -0.019   1.526   0.010  0.00  0.00    +0.033 C 
ATOM     19  C   UNL     1       0.002  -0.004   0.002  0.00  0.00    +0.098 C 
BRANCH  19  20
ATOM     20  C   UNL     1       0.731  -0.503   1.223  0.00  0.00    -0.027 A 
ATOM     21  C   UNL     1       2.113  -0.515   1.249  0.00  0.00    +0.006 A 
ATOM     22  C   UNL     1       2.773  -0.976   2.369  0.00  0.00    +0.004 A 
ATOM     23  C   UNL     1       2.060  -1.428   3.472  0.00  0.00    -0.044 A 
ATOM     24  C   UNL     1       0.684  -1.412   3.448  0.00  0.00    -0.044 A 
ATOM     25  C   UNL     1       0.021  -0.945   2.320  0.00  0.00    +0.009 A 
ATOM     26  C   UNL     1      -0.153  -1.871   4.613  0.00  0.00    +0.035 C 
ATOM     27  C   UNL     1       0.678  -2.727   5.568  0.00  0.00    +0.005 C 
ATOM     28  C   UNL     1       1.964  -1.964   5.906  0.00  0.00    +0.005 C 
ATOM     29  C   UNL     1       2.845  -1.925   4.659  0.00  0.00    +0.035 C 
ENDBRANCH  19  20
ENDBRANCH  16  19
ENDBRANCH   1  16
TORSDOF 6
