REMARK  Name = ZINC28797046
REMARK  13 active torsions:
REMARK  status: ('A' for Active; 'I' for Inactive)
REMARK    1  A    between atoms: C_1  and  C_2
REMARK    2  A    between atoms: C_5  and  O_34
REMARK    3  A    between atoms: C_6  and  N_8
REMARK    4  A    between atoms: C_9  and  C_11
REMARK    5  A    between atoms: C_11  and  C_13
REMARK    6  A    between atoms: C_11  and  O_14
REMARK    7  A    between atoms: O_14  and  C_15
REMARK    8  A    between atoms: C_15  and  C_17
REMARK    9  A    between atoms: C_20  and  S_23
REMARK   10  A    between atoms: S_23  and  N_26
REMARK   11  A    between atoms: N_26  and  C_27
REMARK   12  A    between atoms: C_32  and  C_33
REMARK   13  A    between atoms: O_34  and  C_35
REMARK                            x       y       z     vdW  Elec       q    Type
REMARK                         _______ _______ _______ _____ _____    ______ ____
ROOT
ATOM      1  C   UNL     1      -2.764   4.033  -6.108  0.00  0.00    +0.340 C 
ATOM      2  O   UNL     1      -3.303   3.295  -6.908  0.00  0.00    -0.245 OA
ENDROOT
BRANCH   1   3
ATOM      3  C   UNL     1      -2.550   3.584  -4.717  0.00  0.00    +0.059 A 
ATOM      4  C   UNL     1      -2.966   2.312  -4.319  0.00  0.00    +0.017 A 
ATOM      5  C   UNL     1      -2.763   1.899  -3.019  0.00  0.00    +0.029 A 
ATOM      6  C   UNL     1      -2.148   2.742  -2.110  0.00  0.00    +0.109 A 
ATOM      7  C   UNL     1      -1.739   4.006  -2.496  0.00  0.00    +0.029 A 
ATOM      8  C   UNL     1      -1.931   4.430  -3.795  0.00  0.00    +0.017 A 
BRANCH   6   9
ATOM      9  S   UNL     1      -1.892   2.206  -0.451  0.00  0.00    +0.072 S 
ATOM     10  O   UNL     1      -2.858   1.196  -0.197  0.00  0.00    -0.150 OA
ATOM     11  O   UNL     1      -1.791   3.380   0.344  0.00  0.00    -0.150 OA
BRANCH   9  12
ATOM     12  N   UNL     1      -0.411   1.469  -0.397  0.00  0.00    -0.216 N 
ATOM     13  H   UNL     1      -0.332   0.414  -0.095  0.00  0.00    +0.174 HD
BRANCH  12  14
ATOM     14  C   UNL     1       0.739   2.186  -0.737  0.00  0.00    +0.051 A 
ATOM     15  C   UNL     1       0.841   3.533  -0.413  0.00  0.00    +0.025 A 
ATOM     16  C   UNL     1       1.980   4.237  -0.746  0.00  0.00    +0.002 A 
ATOM     17  C   UNL     1       3.016   3.606  -1.411  0.00  0.00    +0.000 A 
ATOM     18  C   UNL     1       2.916   2.267  -1.740  0.00  0.00    +0.005 A 
ATOM     19  C   UNL     1       1.781   1.555  -1.405  0.00  0.00    -0.028 A 
ATOM     20  C   UNL     1       1.672   0.095  -1.764  0.00  0.00    +0.046 C 
ENDBRANCH  12  14
ENDBRANCH   9  12
ENDBRANCH   6   9
ENDBRANCH   1   3
BRANCH   1  21
ATOM     21  O   UNL     1      -2.362   5.261  -6.489  0.00  0.00    -0.449 OA
BRANCH  21  22
ATOM     22  C   UNL     1      -2.605   5.635  -7.871  0.00  0.00    +0.259 C 
ATOM     23  C   UNL     1      -3.976   6.303  -7.985  0.00  0.00    +0.062 C 
BRANCH  22  25
ATOM     24  N   UNL     1      -1.560   7.083  -9.583  0.00  0.00    -0.280 N 
ATOM     25  C   UNL     1      -1.538   6.597  -8.326  0.00  0.00    +0.258 C 
ATOM     26  O   UNL     1      -0.659   6.935  -7.560  0.00  0.00    -0.271 OA
ATOM     27  H   UNL     1      -2.397   6.838 -10.252  0.00  0.00    +0.155 HD
BRANCH  24  33
ATOM     28  C   UNL     1       1.843  10.510  -8.655  0.00  0.00    +0.044 C 
ATOM     29  C   UNL     1       1.151   9.570  -9.610  0.00  0.00    -0.048 A 
ATOM     30  C   UNL     1       1.549   9.515 -10.933  0.00  0.00    +0.007 A 
ATOM     31  C   UNL     1       0.918   8.655 -11.812  0.00  0.00    +0.048 A 
ATOM     32  C   UNL     1      -0.115   7.845 -11.369  0.00  0.00    +0.141 A 
ATOM     33  C   UNL     1      -0.516   7.900 -10.037  0.00  0.00    +0.076 A 
ATOM     34  C   UNL     1       0.118   8.770  -9.161  0.00  0.00    +0.030 A 
BRANCH  32  35
ATOM     35  O   UNL     1      -0.736   6.998 -12.233  0.00  0.00    -0.493 OA
ATOM     36  C   UNL     1      -0.272   6.995 -13.585  0.00  0.00    +0.277 C 
ENDBRANCH  32  35
ENDBRANCH  24  33
ENDBRANCH  22  25
ENDBRANCH  21  22
ENDBRANCH   1  21
TORSDOF 9
