REMARK  Name = ZINC39710642
REMARK  13 active torsions:
REMARK  status: ('A' for Active; 'I' for Inactive)
REMARK    1  A    between atoms: C_1  and  C_2
REMARK    2  A    between atoms: C_2  and  C_3
REMARK    3  A    between atoms: C_3  and  C_4
REMARK    4  A    between atoms: C_3  and  C_5
REMARK    5  A    between atoms: C_3  and  N_6
REMARK    6  A    between atoms: C_7  and  C_12
REMARK    7  A    between atoms: C_12  and  C_14
REMARK    8  A    between atoms: C_12  and  N_27
REMARK    9  A    between atoms: C_20  and  C_26
REMARK   10  A    between atoms: N_27  and  C_28
REMARK   11  A    between atoms: N_27  and  C_34
REMARK   12  A    between atoms: C_28  and  C_29
REMARK   13  A    between atoms: C_34  and  C_35
REMARK                            x       y       z     vdW  Elec       q    Type
REMARK                         _______ _______ _______ _____ _____    ______ ____
ROOT
ATOM      1  C   UNL     1      -3.183  -3.229   1.313  0.00  0.00    -0.009 C 
ENDROOT
BRANCH   1   2
ATOM      2  C   UNL     1      -3.060  -2.181   2.421  0.00  0.00    +0.088 C 
ATOM      3  C   UNL     1      -3.444  -2.841   3.731  0.00  0.00    -0.006 C 
ATOM      4  C   UNL     1      -4.475  -2.288   4.431  0.00  0.00    -0.007 A 
ATOM      5  C   UNL     1      -4.910  -2.862   5.705  0.00  0.00    +0.010 A 
ATOM      6  C   UNL     1      -5.942  -2.279   6.367  0.00  0.00    +0.004 A 
ATOM      7  C   UNL     1      -6.587  -1.151   5.858  0.00  0.00    -0.049 A 
ATOM      8  C   UNL     1      -6.231  -0.571   4.682  0.00  0.00    +0.027 A 
ATOM      9  C   UNL     1      -5.174  -1.098   3.917  0.00  0.00    +0.041 A 
ATOM     10  N   UNL     1      -4.832  -0.520   2.766  0.00  0.00    -0.285 N 
ATOM     11  C   UNL     1      -3.852  -0.964   1.998  0.00  0.00    +0.223 C 
ATOM     12  O   UNL     1      -3.587  -0.395   0.957  0.00  0.00    -0.275 OA
ATOM     13  C   UNL     1      -7.726  -0.553   6.644  0.00  0.00    +0.044 C 
ATOM     14  H   UNL     1      -5.327   0.262   2.477  0.00  0.00    +0.155 HD
ENDBRANCH   1   2
BRANCH   1  16
ATOM     15  N   UNL     1      -0.817  -2.938   0.666  0.00  0.00    -0.182 NA
ATOM     16  C   UNL     1      -2.212  -2.891   0.181  0.00  0.00    +0.205 C 
ATOM     17  N   UNL     1      -2.270  -3.915  -0.872  0.00  0.00    -0.152 NA
ATOM     18  N   UNL     1      -1.161  -4.442  -0.978  0.00  0.00    -0.070 NA
ATOM     19  N   UNL     1      -0.223  -3.916  -0.090  0.00  0.00    -0.179 N 
ATOM     20  H   UNL     1       0.702  -4.196  -0.019  0.00  0.00    +0.191 HD
BRANCH  15  21
ATOM     21  C   UNL     1      -0.148  -1.645   0.473  0.00  0.00    +0.037 C 
ATOM     22  C   UNL     1      -0.707  -0.628   1.470  0.00  0.00    +0.029 C 
ATOM     23  C   UNL     1      -0.396  -1.150  -0.953  0.00  0.00    +0.029 C 
BRANCH  21  25
ATOM     24  C   UNL     1       2.053  -0.462   0.501  0.00  0.00    +0.006 C 
ATOM     25  C   UNL     1       1.356  -1.809   0.702  0.00  0.00    +0.020 C 
ENDBRANCH  21  25
ENDBRANCH  15  21
ENDBRANCH   1  16
BRANCH   1  26
ATOM     26  N   UNL     1      -4.558  -3.234   0.794  0.00  0.00    +0.391 N 
ATOM     27  H   UNL     1      -4.759  -2.342   0.368  0.00  0.00    -0.080 HD
BRANCH  26  28
ATOM     28  C   UNL     1      -4.699  -4.299  -0.207  0.00  0.00    -0.002 C 
BRANCH  28  29
ATOM     29  C   UNL     1      -4.270  -5.614   0.393  0.00  0.00    +0.089 A 
ATOM     30  C   UNL     1      -5.086  -6.530   0.943  0.00  0.00    +0.042 A 
ATOM     31  C   UNL     1      -4.268  -7.599   1.376  0.00  0.00    +0.041 A 
ATOM     32  C   UNL     1      -3.002  -7.272   1.064  0.00  0.00    +0.195 A 
ATOM     33  O   UNL     1      -3.009  -6.070   0.463  0.00  0.00    -0.470 OA
ENDBRANCH  28  29
ENDBRANCH  26  28
BRANCH  26  34
ATOM     34  C   UNL     1      -5.497  -3.473   1.898  0.00  0.00    -0.046 C 
BRANCH  34  35
ATOM     35  C   UNL     1      -6.930  -3.270   1.402  0.00  0.00    +0.102 C 
ATOM     36  C   UNL     1      -7.913  -3.359   2.588  0.00  0.00    +0.032 C 
ATOM     37  C   UNL     1      -9.109  -4.131   1.968  0.00  0.00    +0.030 C 
ATOM     38  C   UNL     1      -8.372  -5.079   0.989  0.00  0.00    +0.160 C 
ATOM     39  O   UNL     1      -7.274  -4.306   0.474  0.00  0.00    -0.378 OA
ENDBRANCH  34  35
ENDBRANCH  26  34
ENDBRANCH   1  26
TORSDOF 9
