REMARK  Name = ZINC39963501
REMARK  9 active torsions:
REMARK  status: ('A' for Active; 'I' for Inactive)
REMARK    1  A    between atoms: C_1  and  C_2
REMARK    2  A    between atoms: C_2  and  O_3
REMARK    3  A    between atoms: O_3  and  C_4
REMARK    4  A    between atoms: C_4  and  C_6
REMARK    5  A    between atoms: C_10  and  C_12
REMARK    6  A    between atoms: C_15  and  C_17
REMARK    7  A    between atoms: C_18  and  C_19
REMARK    8  A    between atoms: C_18  and  C_21
REMARK    9  A    between atoms: C_28  and  C_32
REMARK                            x       y       z     vdW  Elec       q    Type
REMARK                         _______ _______ _______ _____ _____    ______ ____
ROOT
ATOM      1  C   UNL     1      -4.490  -5.809   0.025  0.00  0.00    +0.136 A 
ATOM      2  C   UNL     1      -5.691  -6.459   0.028  0.00  0.00    +0.050 A 
ATOM      3  C   UNL     1      -5.418  -7.830   0.026  0.00  0.00    +0.050 A 
ATOM      4  C   UNL     1      -4.043  -7.962   0.022  0.00  0.00    +0.130 A 
ATOM      5  O   UNL     1      -3.504  -6.724   0.015  0.00  0.00    -0.455 OA
ENDROOT
BRANCH   1  10
ATOM      6  C   UNL     1      -2.854  -2.420   0.016  0.00  0.00    +0.060 A 
ATOM      7  C   UNL     1      -3.975  -1.585   0.026  0.00  0.00    +0.015 A 
ATOM      8  C   UNL     1      -5.245  -2.128   0.035  0.00  0.00    +0.001 A 
ATOM      9  C   UNL     1      -5.417  -3.498   0.034  0.00  0.00    +0.011 A 
ATOM     10  C   UNL     1      -4.305  -4.345   0.025  0.00  0.00    +0.018 A 
ATOM     11  C   UNL     1      -3.020  -3.803   0.011  0.00  0.00    +0.026 A 
BRANCH   6  12
ATOM     12  C   UNL     1      -1.497  -1.836   0.006  0.00  0.00    +0.339 C 
ATOM     13  O   UNL     1      -0.524  -2.563  -0.007  0.00  0.00    -0.245 OA
BRANCH  12  14
ATOM     14  O   UNL     1      -1.339  -0.499   0.012  0.00  0.00    -0.461 OA
BRANCH  14  16
ATOM     15  C   UNL     1      -0.019   1.526   0.010  0.00  0.00    +0.048 C 
ATOM     16  C   UNL     1       0.002  -0.004   0.002  0.00  0.00    +0.229 C 
ENDBRANCH  14  16
ENDBRANCH  12  14
ENDBRANCH   6  12
ENDBRANCH   1  10
BRANCH   4  17
ATOM     17  C   UNL     1      -3.324  -9.181   0.019  0.00  0.00    +0.064 C 
ATOM     18  C   UNL     1      -1.967  -9.169   0.014  0.00  0.00    +0.071 C 
BRANCH  18  19
ATOM     19  C   UNL     1      -1.202 -10.467   0.011  0.00  0.00    +0.214 C 
ATOM     20  N   UNL     1      -0.322 -10.543  -1.187  0.00  0.00    -0.279 NA
ATOM     21  C   UNL     1       0.811 -11.318  -0.663  0.00  0.00    +0.128 C 
ATOM     22  C   UNL     1       2.056 -11.072  -1.472  0.00  0.00    -0.002 C 
ATOM     23  C   UNL     1       3.208 -10.970  -0.793  0.00  0.00    +0.001 C 
ATOM     24  C   UNL     1       3.250 -11.089   0.660  0.00  0.00    -0.049 C 
ATOM     25  C   UNL     1       2.142 -11.075   1.434  0.00  0.00    +0.028 C 
ATOM     26  C   UNL     1       0.860 -10.974   0.816  0.00  0.00    +0.059 C 
ATOM     27  N   UNL     1      -0.300 -10.528   1.173  0.00  0.00    -0.262 NA
ATOM     28  C   UNL     1       4.592 -11.233   1.331  0.00  0.00    +0.044 C 
ATOM     29  H   UNL     1      -0.779 -11.035  -1.940  0.00  0.00    +0.125 HD
ENDBRANCH  18  19
BRANCH  18  30
ATOM     30  C   UNL     1      -1.262  -7.922   0.013  0.00  0.00    +0.098 C 
ATOM     31  N   UNL     1      -0.703  -6.933   0.011  0.00  0.00    -0.191 NA
ENDBRANCH  18  30
ENDBRANCH   4  17
TORSDOF 7
