REMARK  Name = ZINC36066354
REMARK  12 active torsions:
REMARK  status: ('A' for Active; 'I' for Inactive)
REMARK    1  A    between atoms: C_1  and  C_2
REMARK    2  A    between atoms: C_2  and  O_3
REMARK    3  A    between atoms: O_3  and  C_4
REMARK    4  A    between atoms: C_4  and  C_5
REMARK    5  A    between atoms: C_5  and  C_6
REMARK    6  A    between atoms: C_6  and  N_7
REMARK    7  A    between atoms: C_8  and  C_33
REMARK    8  A    between atoms: C_16  and  C_22
REMARK    9  A    between atoms: N_24  and  C_25
REMARK   10  A    between atoms: C_28  and  C_32
REMARK   11  A    between atoms: C_29  and  C_31
REMARK   12  A    between atoms: N_35  and  C_36
REMARK                            x       y       z     vdW  Elec       q    Type
REMARK                         _______ _______ _______ _____ _____    ______ ____
ROOT
ATOM      1  N   UNL     1      -4.319  -4.814   0.420  0.00  0.00    -0.286 N 
ATOM      2  C   UNL     1      -5.254  -5.004   1.573  0.00  0.00    +0.198 C 
ATOM      3  C   UNL     1      -6.373  -5.772   0.940  0.00  0.00    +0.127 C 
ATOM      4  C   UNL     1      -5.991  -7.204   0.610  0.00  0.00    +0.009 C 
ATOM      5  C   UNL     1      -7.072  -7.749   0.072  0.00  0.00    +0.004 C 
ATOM      6  C   UNL     1      -8.104  -6.616   0.019  0.00  0.00    +0.155 C 
ATOM      7  O   UNL     1      -7.747  -5.840   1.238  0.00  0.00    -0.358 OA
ATOM      8  C   UNL     1      -7.545  -5.713  -1.148  0.00  0.00    +0.123 C 
ATOM      9  C   UNL     1      -6.450  -4.947  -0.407  0.00  0.00    +0.128 C 
ATOM     10  C   UNL     1      -5.021  -4.880  -0.760  0.00  0.00    +0.223 C 
ATOM     11  O   UNL     1      -4.553  -4.886  -1.879  0.00  0.00    -0.275 OA
ENDROOT
BRANCH   8  12
ATOM     12  C   UNL     1      -6.982  -6.556  -2.263  0.00  0.00    +0.224 C 
ATOM     13  O   UNL     1      -5.810  -6.466  -2.559  0.00  0.00    -0.275 OA
ATOM     14  N   UNL     1      -7.782  -7.411  -2.931  0.00  0.00    -0.285 N 
ATOM     15  H   UNL     1      -8.700  -7.540  -2.645  0.00  0.00    +0.155 HD
BRANCH  14  16
ATOM     16  C   UNL     1      -7.288  -8.113  -4.036  0.00  0.00    +0.034 A 
ATOM     17  C   UNL     1      -7.747  -9.395  -4.308  0.00  0.00    +0.023 A 
ATOM     18  C   UNL     1      -7.257 -10.085  -5.400  0.00  0.00    +0.005 A 
ATOM     19  C   UNL     1      -6.311  -9.501  -6.221  0.00  0.00    -0.047 A 
ATOM     20  C   UNL     1      -5.851  -8.224  -5.953  0.00  0.00    -0.046 A 
ATOM     21  C   UNL     1      -6.342  -7.527  -4.866  0.00  0.00    +0.027 A 
ATOM     22  C   UNL     1      -4.819  -7.591  -6.850  0.00  0.00    +0.044 C 
ATOM     23  C   UNL     1      -5.778 -10.256  -7.411  0.00  0.00    +0.044 C 
ENDBRANCH  14  16
ENDBRANCH   8  12
BRANCH   2  24
ATOM     24  C   UNL     1      -5.740  -3.677   2.096  0.00  0.00    +0.237 C 
ATOM     25  O   UNL     1      -5.651  -2.683   1.407  0.00  0.00    -0.274 OA
ATOM     26  N   UNL     1      -6.274  -3.594   3.331  0.00  0.00    -0.311 N 
ATOM     27  H   UNL     1      -6.346  -4.389   3.883  0.00  0.00    +0.149 HD
BRANCH  26  28
ATOM     28  C   UNL     1      -6.747  -2.304   3.840  0.00  0.00    +0.073 C 
ATOM     29  C   UNL     1      -5.574  -1.538   4.455  0.00  0.00    +0.022 C 
ATOM     30  C   UNL     1      -6.067  -0.191   4.987  0.00  0.00    +0.002 C 
ATOM     31  C   UNL     1      -7.139  -0.425   6.053  0.00  0.00    +0.000 C 
ATOM     32  C   UNL     1      -8.312  -1.191   5.438  0.00  0.00    +0.002 C 
ATOM     33  C   UNL     1      -7.819  -2.538   4.906  0.00  0.00    +0.022 C 
ENDBRANCH  26  28
ENDBRANCH   2  24
BRANCH   1  34
ATOM     34  C   UNL     1      -2.876  -4.586   0.532  0.00  0.00    +0.111 C 
BRANCH  34  35
ATOM     35  C   UNL     1      -2.603  -3.083   0.627  0.00  0.00    +0.047 C 
BRANCH  35  36
ATOM     36  C   UNL     1      -1.097  -2.845   0.744  0.00  0.00    +0.161 C 
BRANCH  36  37
ATOM     37  O   UNL     1      -0.842  -1.442   0.832  0.00  0.00    -0.380 OA
BRANCH  37  39
ATOM     38  C   UNL     1       0.697   0.411   1.033  0.00  0.00    +0.034 C 
ATOM     39  C   UNL     1       0.543  -1.109   0.946  0.00  0.00    +0.156 C 
ENDBRANCH  37  39
ENDBRANCH  36  37
ENDBRANCH  35  36
ENDBRANCH  34  35
ENDBRANCH   1  34
TORSDOF 9
