REMARK  Name = ZINC20731364
REMARK  4 active torsions:
REMARK  status: ('A' for Active; 'I' for Inactive)
REMARK    1  A    between atoms: C_2  and  C_3
REMARK    2  A    between atoms: C_3  and  N_4
REMARK    3  A    between atoms: C_15  and  O_29
REMARK    4  A    between atoms: N_21  and  C_22
REMARK                            x       y       z     vdW  Elec       q    Type
REMARK                         _______ _______ _______ _____ _____    ______ ____
ROOT
ATOM      1  N   UNL     1       1.367  -1.676   1.111  0.00  0.00    -0.266 N 
ATOM      2  C   UNL     1       1.854  -1.351   2.366  0.00  0.00    +0.041 A 
ATOM      3  C   UNL     1       2.377  -0.143   2.828  0.00  0.00    +0.024 A 
ATOM      4  C   UNL     1       2.796  -0.097   4.149  0.00  0.00    +0.002 A 
ATOM      5  C   UNL     1       2.707  -1.193   4.982  0.00  0.00    +0.000 A 
ATOM      6  C   UNL     1       2.188  -2.403   4.534  0.00  0.00    +0.007 A 
ATOM      7  C   UNL     1       1.768  -2.457   3.222  0.00  0.00    -0.006 A 
ATOM      8  C   UNL     1       1.172  -3.564   2.414  0.00  0.00    +0.112 C 
ATOM      9  C   UNL     1       0.939  -2.954   1.050  0.00  0.00    +0.236 C 
ATOM     10  O   UNL     1       0.461  -3.509   0.083  0.00  0.00    -0.274 OA
ATOM     11  C   UNL     1       2.125  -4.753   2.312  0.00  0.00    +0.121 C 
ATOM     12  C   UNL     1       2.042  -5.632   3.527  0.00  0.00    +0.191 C 
ATOM     13  N   UNL     1       0.953  -5.803   4.216  0.00  0.00    -0.197 NA
ATOM     14  C   UNL     1      -0.176  -5.124   3.867  0.00  0.00    +0.164 A 
ATOM     15  C   UNL     1      -0.128  -4.035   3.002  0.00  0.00    +0.036 A 
ATOM     16  C   UNL     1      -1.417  -3.562   2.845  0.00  0.00    +0.142 A 
ATOM     17  N   UNL     1      -2.223  -4.299   3.575  0.00  0.00    -0.172 NA
ATOM     18  N   UNL     1      -1.468  -5.282   4.234  0.00  0.00    -0.213 N 
ENDROOT
BRANCH  18  19
ATOM     19  C   UNL     1      -1.963  -6.253   5.115  0.00  0.00    +0.086 A 
ATOM     20  C   UNL     1      -1.098  -7.164   5.705  0.00  0.00    +0.029 A 
ATOM     21  C   UNL     1      -1.589  -8.119   6.573  0.00  0.00    +0.002 A 
ATOM     22  C   UNL     1      -2.942  -8.169   6.856  0.00  0.00    +0.002 A 
ATOM     23  C   UNL     1      -3.808  -7.264   6.270  0.00  0.00    +0.022 A 
ATOM     24  C   UNL     1      -3.321  -6.301   5.405  0.00  0.00    +0.066 A 
ATOM     25 CL   UNL     1      -4.407  -5.159   4.677  0.00  0.00    -0.081 Cl
ENDBRANCH  18  19
BRANCH  12  26
ATOM     26  O   UNL     1       3.157  -6.277   3.925  0.00  0.00    -0.495 OA
ATOM     27  H   UNL     1       3.034  -6.825   4.713  0.00  0.00    +0.293 HD
ENDBRANCH  12  26
BRANCH   1  28
ATOM     28  C   UNL     1       1.317  -0.740  -0.015  0.00  0.00    +0.140 C 
BRANCH  28  30
ATOM     29  C   UNL     1      -0.016   1.306   0.009  0.00  0.00    +0.005 C 
ATOM     30  C   UNL     1       0.002  -0.004   0.002  0.00  0.00    -0.015 C 
ENDBRANCH  28  30
ENDBRANCH   1  28
TORSDOF 4
