REMARK  Name = ZINC35530521
REMARK  6 active torsions:
REMARK  status: ('A' for Active; 'I' for Inactive)
REMARK    1  A    between atoms: C_1  and  C_2
REMARK    2  A    between atoms: C_7  and  N_14
REMARK    3  A    between atoms: C_10  and  C_12
REMARK    4  A    between atoms: C_10  and  C_13
REMARK    5  A    between atoms: N_14  and  S_15
REMARK    6  A    between atoms: S_15  and  C_18
REMARK                            x       y       z     vdW  Elec       q    Type
REMARK                         _______ _______ _______ _____ _____    ______ ____
ROOT
ATOM      1  C   UNL     1      -0.443   1.298  -0.072  0.00  0.00    +0.047 C 
ATOM      2  C   UNL     1      -0.235  -0.193   0.012  0.00  0.00    -0.008 A 
ATOM      3  C   UNL     1      -0.358  -1.081  -0.994  0.00  0.00    +0.198 A 
ATOM      4  O   UNL     1      -0.091  -2.309  -0.514  0.00  0.00    -0.467 OA
ATOM      5  C   UNL     1       0.204  -2.223   0.788  0.00  0.00    +0.110 A 
ATOM      6  C   UNL     1       0.131  -0.926   1.155  0.00  0.00    +0.015 A 
ATOM      7  C   UNL     1       0.398  -0.415   2.546  0.00  0.00    +0.110 C 
ATOM      8  C   UNL     1       0.356  -1.604   3.515  0.00  0.00    +0.032 C 
ATOM      9  C   UNL     1       1.236  -2.734   2.972  0.00  0.00    -0.026 C 
ATOM     10  C   UNL     1       0.571  -3.344   1.730  0.00  0.00    +0.081 C 
ATOM     11  C   UNL     1       1.397  -3.814   4.044  0.00  0.00    +0.011 C 
ATOM     12  C   UNL     1       2.611  -2.176   2.601  0.00  0.00    +0.011 C 
ENDROOT
BRANCH   7  13
ATOM     13  N   UNL     1      -0.628   0.562   2.918  0.00  0.00    -0.182 NA
ATOM     14  H   UNL     1      -1.539   0.452   2.603  0.00  0.00    +0.149 HD
BRANCH  13  15
ATOM     15  S   UNL     1      -0.233   1.853   3.877  0.00  0.00    +0.059 S 
ATOM     16  O   UNL     1      -1.408   2.643   3.997  0.00  0.00    -0.153 OA
ATOM     17  O   UNL     1       0.449   1.326   5.007  0.00  0.00    -0.153 OA
BRANCH  15  18
ATOM     18  C   UNL     1       0.938   2.823   2.988  0.00  0.00    +0.105 A 
ATOM     19  C   UNL     1       2.292   2.593   3.151  0.00  0.00    +0.030 A 
ATOM     20  C   UNL     1       3.211   3.353   2.454  0.00  0.00    +0.022 A 
ATOM     21  C   UNL     1       2.777   4.346   1.593  0.00  0.00    +0.041 A 
ATOM     22  C   UNL     1       1.423   4.576   1.431  0.00  0.00    +0.022 A 
ATOM     23  C   UNL     1       0.504   3.811   2.124  0.00  0.00    +0.030 A 
ATOM     24 CL   UNL     1       3.932   5.303   0.718  0.00  0.00    -0.084 Cl
ENDBRANCH  15  18
ENDBRANCH  13  15
ENDBRANCH   7  13
TORSDOF 3
