REMARK  Name = ZINC06272712
REMARK  6 active torsions:
REMARK  status: ('A' for Active; 'I' for Inactive)
REMARK    1  A    between atoms: C_1  and  C_2
REMARK    2  A    between atoms: C_5  and  C_8
REMARK    3  A    between atoms: N_9  and  N_10
REMARK    4  A    between atoms: C_11  and  C_13
REMARK    5  A    between atoms: C_18  and  N_19
REMARK    6  A    between atoms: C_20  and  C_22
REMARK                            x       y       z     vdW  Elec       q    Type
REMARK                         _______ _______ _______ _____ _____    ______ ____
ROOT
ATOM      1  C   UNL     1      -0.216  -8.528   2.304  0.00  0.00    +0.060 A 
ATOM      2  C   UNL     1      -0.293  -9.230   1.098  0.00  0.00    +0.015 A 
ATOM      3  C   UNL     1       0.099 -10.549   1.044  0.00  0.00    +0.001 A 
ATOM      4  C   UNL     1       0.570 -11.187   2.181  0.00  0.00    +0.002 A 
ATOM      5  C   UNL     1       0.651 -10.508   3.380  0.00  0.00    +0.024 A 
ATOM      6  C   UNL     1       0.266  -9.175   3.452  0.00  0.00    +0.046 A 
ENDROOT
BRANCH   1   8
ATOM      7  N   UNL     1      -0.985  -6.465   1.242  0.00  0.00    -0.203 N 
ATOM      8  C   UNL     1      -0.634  -7.116   2.369  0.00  0.00    +0.265 C 
ATOM      9  O   UNL     1      -0.662  -6.538   3.439  0.00  0.00    -0.268 OA
ATOM     10  H   UNL     1      -0.963  -6.925   0.389  0.00  0.00    +0.178 HD
BRANCH   7  12
ATOM     11  C   UNL     1      -1.720  -4.495   0.219  0.00  0.00    +0.138 C 
ATOM     12  N   UNL     1      -1.382  -5.122   1.304  0.00  0.00    -0.187 NA
BRANCH  11  17
ATOM     13  C   UNL     1      -3.351   1.014   0.471  0.00  0.00    +0.044 C 
ATOM     14  C   UNL     1      -2.924  -0.430   0.405  0.00  0.00    -0.050 A 
ATOM     15  C   UNL     1      -2.892  -1.083  -0.814  0.00  0.00    +0.004 A 
ATOM     16  C   UNL     1      -2.502  -2.405  -0.882  0.00  0.00    +0.010 A 
ATOM     17  C   UNL     1      -2.138  -3.083   0.284  0.00  0.00    -0.005 A 
ATOM     18  C   UNL     1      -2.172  -2.416   1.511  0.00  0.00    +0.010 A 
ATOM     19  C   UNL     1      -2.559  -1.093   1.563  0.00  0.00    +0.004 A 
ENDBRANCH  11  17
ENDBRANCH   7  12
ENDBRANCH   1   8
BRANCH   6  20
ATOM     20  N   UNL     1       0.353  -8.486   4.659  0.00  0.00    -0.278 N 
ATOM     21  C   UNL     1      -0.033  -9.082   5.804  0.00  0.00    +0.284 C 
ATOM     22  O   UNL     1      -0.385 -10.247   5.796  0.00  0.00    -0.266 OA
ATOM     23  H   UNL     1       0.692  -7.577   4.675  0.00  0.00    +0.155 HD
BRANCH  21  24
ATOM     24  C   UNL     1      -0.028  -8.327   7.061  0.00  0.00    +0.189 A 
ATOM     25  C   UNL     1      -0.388  -8.808   8.287  0.00  0.00    +0.054 A 
ATOM     26  C   UNL     1      -0.231  -7.750   9.197  0.00  0.00    +0.042 A 
ATOM     27  C   UNL     1       0.211  -6.684   8.495  0.00  0.00    +0.196 A 
ATOM     28  O   UNL     1       0.338  -7.037   7.209  0.00  0.00    -0.458 OA
ENDBRANCH  21  24
ENDBRANCH   6  20
TORSDOF 5
