REMARK  Name = ZINC40000332
REMARK  8 active torsions:
REMARK  status: ('A' for Active; 'I' for Inactive)
REMARK    1  A    between atoms: C_1  and  C_2
REMARK    2  A    between atoms: C_2  and  S_3
REMARK    3  A    between atoms: S_3  and  C_4
REMARK    4  A    between atoms: C_10  and  C_30
REMARK    5  A    between atoms: C_12  and  C_17
REMARK    6  A    between atoms: C_17  and  C_19
REMARK    7  A    between atoms: C_26  and  C_29
REMARK    8  A    between atoms: C_33  and  C_36
REMARK                            x       y       z     vdW  Elec       q    Type
REMARK                         _______ _______ _______ _____ _____    ______ ____
ROOT
ATOM      1  C   UNL     1       1.151  -2.384   1.351  0.00  0.00    +0.160 A 
ATOM      2  N   UNL     1       0.478  -3.091   0.454  0.00  0.00    -0.133 NA
ATOM      3  N   UNL     1       0.447  -4.352   0.486  0.00  0.00    -0.125 NA
ATOM      4  C   UNL     1       1.085  -5.046   1.416  0.00  0.00    +0.192 A 
ATOM      5  S   UNL     1       1.821  -3.709   2.351  0.00  0.00    -0.024 S 
ATOM      6  N   UNL     1       1.163  -6.420   1.608  0.00  0.00    -0.230 N 
ATOM      7  C   UNL     1       0.529  -7.446   0.773  0.00  0.00    +0.152 C 
ATOM      8  C   UNL     1       0.906  -8.777   1.382  0.00  0.00    +0.077 C 
ATOM      9  C   UNL     1       1.681  -8.507   2.459  0.00  0.00    +0.250 C 
ATOM     10  C   UNL     1       1.840  -7.044   2.589  0.00  0.00    +0.293 C 
ATOM     11  O   UNL     1       2.485  -6.487   3.455  0.00  0.00    -0.266 OA
ATOM     12  O   UNL     1       2.227  -9.430   3.284  0.00  0.00    -0.282 OA
ENDROOT
BRANCH   7  13
ATOM     13  C   UNL     1      -0.968  -7.274   0.787  0.00  0.00    -0.022 A 
ATOM     14  C   UNL     1      -1.622  -7.013   1.977  0.00  0.00    +0.006 A 
ATOM     15  C   UNL     1      -2.995  -6.855   1.991  0.00  0.00    +0.004 A 
ATOM     16  C   UNL     1      -3.715  -6.957   0.815  0.00  0.00    -0.050 A 
ATOM     17  C   UNL     1      -3.060  -7.217  -0.375  0.00  0.00    +0.004 A 
ATOM     18  C   UNL     1      -1.687  -7.371  -0.390  0.00  0.00    +0.006 A 
ATOM     19  C   UNL     1      -5.212  -6.786   0.829  0.00  0.00    +0.044 C 
ENDBRANCH   7  13
BRANCH   8  20
ATOM     20  C   UNL     1       0.509 -10.103   0.901  0.00  0.00    +0.195 C 
ATOM     21  O   UNL     1      -0.219 -10.804   1.579  0.00  0.00    -0.287 OA
BRANCH  20  22
ATOM     22  C   UNL     1       0.993 -10.588  -0.407  0.00  0.00    +0.023 A 
ATOM     23  C   UNL     1       1.927  -9.844  -1.134  0.00  0.00    +0.015 A 
ATOM     24  C   UNL     1       2.380 -10.300  -2.349  0.00  0.00    +0.046 A 
ATOM     25  C   UNL     1       1.913 -11.508  -2.870  0.00  0.00    +0.124 A 
ATOM     26  C   UNL     1       0.976 -12.241  -2.145  0.00  0.00    -0.002 A 
ATOM     27  C   UNL     1       0.525 -11.800  -0.926  0.00  0.00    +0.019 A 
ATOM     28  C   UNL     1       0.647 -13.473  -2.966  0.00  0.00    +0.083 C 
ATOM     29  C   UNL     1       1.212 -13.092  -4.355  0.00  0.00    +0.175 C 
ATOM     30  O   UNL     1       2.236 -12.137  -4.031  0.00  0.00    -0.488 OA
ATOM     31  C   UNL     1       1.808 -14.316  -5.052  0.00  0.00    +0.052 C 
ENDBRANCH  20  22
ENDBRANCH   8  20
BRANCH   1  32
ATOM     32  S   UNL     1       1.338  -0.639   1.508  0.00  0.00    -0.097 S 
BRANCH  32  34
ATOM     33  C   UNL     1       0.444   1.560   0.150  0.00  0.00    +0.016 C 
ATOM     34  C   UNL     1       0.367   0.033   0.131  0.00  0.00    +0.073 C 
ENDBRANCH  32  34
ENDBRANCH   1  32
TORSDOF 5
