REMARK  Name = ZINC63506962
REMARK  9 active torsions:
REMARK  status: ('A' for Active; 'I' for Inactive)
REMARK    1  A    between atoms: C_1  and  C_2
REMARK    2  A    between atoms: C_6  and  C_38
REMARK    3  A    between atoms: C_7  and  N_8
REMARK    4  A    between atoms: C_9  and  C_11
REMARK    5  A    between atoms: C_11  and  N_17
REMARK    6  A    between atoms: N_17  and  C_18
REMARK    7  A    between atoms: C_18  and  C_19
REMARK    8  A    between atoms: C_19  and  C_20
REMARK    9  A    between atoms: C_29  and  C_31
REMARK                            x       y       z     vdW  Elec       q    Type
REMARK                         _______ _______ _______ _____ _____    ______ ____
ROOT
ATOM      1  N   UNL     1       0.691   1.153   4.077  0.00  0.00    -0.283 N 
ATOM      2  C   UNL     1       0.306   2.242   3.383  0.00  0.00    +0.250 C 
ATOM      3  O   UNL     1       1.052   3.197   3.287  0.00  0.00    -0.270 OA
ENDROOT
BRANCH   2   4
ATOM      4  C   UNL     1      -1.023   2.275   2.739  0.00  0.00    +0.072 A 
ATOM      5  C   UNL     1      -2.010   1.364   3.120  0.00  0.00    +0.016 A 
ATOM      6  C   UNL     1      -3.249   1.400   2.516  0.00  0.00    +0.001 A 
ATOM      7  C   UNL     1      -3.516   2.337   1.532  0.00  0.00    +0.003 A 
ATOM      8  C   UNL     1      -2.546   3.243   1.147  0.00  0.00    +0.039 A 
ATOM      9  C   UNL     1      -1.300   3.223   1.749  0.00  0.00    +0.135 A 
ATOM     10  F   UNL     1      -0.354   4.112   1.377  0.00  0.00    -0.205 F 
ENDBRANCH   2   4
BRANCH   1  11
ATOM     11  C   UNL     1      -0.104   0.693   5.218  0.00  0.00    +0.114 C 
ATOM     12  C   UNL     1      -1.241   1.682   5.480  0.00  0.00    +0.035 C 
ATOM     13  C   UNL     1      -0.656   3.061   5.790  0.00  0.00    +0.003 C 
ATOM     14  C   UNL     1       0.236   2.970   7.029  0.00  0.00    +0.000 C 
ATOM     15  C   UNL     1       1.373   1.981   6.768  0.00  0.00    +0.003 C 
ATOM     16  C   UNL     1       0.788   0.601   6.458  0.00  0.00    +0.035 C 
BRANCH  11  18
ATOM     17  N   UNL     1      -1.048  -0.975   3.654  0.00  0.00    -0.283 N 
ATOM     18  C   UNL     1      -0.680  -0.666   4.913  0.00  0.00    +0.241 C 
ATOM     19  O   UNL     1      -0.814  -1.482   5.801  0.00  0.00    -0.273 OA
ATOM     20  H   UNL     1      -0.889  -0.344   2.934  0.00  0.00    +0.155 HD
BRANCH  17  27
ATOM     21  C   UNL     1       0.157  -2.675   1.716  0.00  0.00    +0.045 C 
ATOM     22  C   UNL     1      -1.102  -3.066   2.446  0.00  0.00    -0.029 A 
ATOM     23  C   UNL     1      -1.702  -4.283   2.187  0.00  0.00    +0.005 A 
ATOM     24  C   UNL     1      -2.858  -4.641   2.857  0.00  0.00    +0.001 A 
ATOM     25  C   UNL     1      -3.416  -3.784   3.788  0.00  0.00    +0.005 A 
ATOM     26  C   UNL     1      -2.820  -2.567   4.051  0.00  0.00    -0.029 A 
ATOM     27  C   UNL     1      -1.657  -2.206   3.385  0.00  0.00    +0.039 A 
ATOM     28  C   UNL     1      -3.429  -1.633   5.066  0.00  0.00    +0.045 C 
ENDBRANCH  17  27
ENDBRANCH  11  18
ENDBRANCH   1  11
BRANCH   1  29
ATOM     29  C   UNL     1       1.905   0.430   3.691  0.00  0.00    +0.113 C 
BRANCH  29  30
ATOM     30  C   UNL     1       1.584  -0.531   2.545  0.00  0.00    +0.052 C 
BRANCH  30  31
ATOM     31  C   UNL     1       2.833  -1.275   2.148  0.00  0.00    -0.040 C 
ATOM     32  C   UNL     1       3.222  -2.498   2.576  0.00  0.00    -0.001 A 
ATOM     33  C   UNL     1       2.623  -3.463   3.506  0.00  0.00    +0.010 A 
ATOM     34  C   UNL     1       3.263  -4.631   3.741  0.00  0.00    +0.001 A 
ATOM     35  C   UNL     1       4.482  -4.941   3.122  0.00  0.00    +0.002 A 
ATOM     36  C   UNL     1       5.094  -4.105   2.257  0.00  0.00    +0.026 A 
ATOM     37  C   UNL     1       4.509  -2.849   1.935  0.00  0.00    +0.043 A 
ATOM     38  N   UNL     1       4.900  -1.882   1.141  0.00  0.00    -0.380 N 
ATOM     39  C   UNL     1       3.901  -0.809   1.185  0.00  0.00    +0.144 C 
ATOM     40  H   UNL     1       5.712  -1.879   0.611  0.00  0.00    +0.160 HD
ENDBRANCH  30  31
ENDBRANCH  29  30
ENDBRANCH   1  29
TORSDOF 7
