REMARK  Name = ZINC08299195
REMARK  6 active torsions:
REMARK  status: ('A' for Active; 'I' for Inactive)
REMARK    1  A    between atoms: C_4  and  C_7
REMARK    2  A    between atoms: C_10  and  C_13
REMARK    3  A    between atoms: N_15  and  C_18
REMARK    4  A    between atoms: C_18  and  C_19
REMARK    5  A    between atoms: C_27  and  C_29
REMARK    6  A    between atoms: C_34  and  C_37
REMARK                            x       y       z     vdW  Elec       q    Type
REMARK                         _______ _______ _______ _____ _____    ______ ____
ROOT
ATOM      1  C   UNL     1       0.615   3.605  -1.273  0.00  0.00    -0.046 C 
ATOM      2  C   UNL     1       1.378   3.152  -0.026  0.00  0.00    -0.010 C 
ATOM      3  C   UNL     1       1.425   1.619  -0.003  0.00  0.00    -0.004 C 
ATOM      4  C   UNL     1       2.118   1.132  -1.282  0.00  0.00    -0.015 C 
ATOM      5  C   UNL     1       1.334   1.641  -2.494  0.00  0.00    -0.078 C 
ATOM      6  C   UNL     1      -0.739   1.596  -1.240  0.00  0.00    -0.065 C 
ATOM      7  C   UNL     1      -0.013   1.086   0.008  0.00  0.00    +0.062 C 
ATOM      8  N   UNL     1       0.165   2.434  -2.057  0.00  0.00    +0.383 N 
ATOM      9  H   UNL     1      -0.344   2.764  -2.886  0.00  0.00    -0.081 HD
ENDROOT
BRANCH   7  10
ATOM     10  C   UNL     1      -0.723   1.574   1.244  0.00  0.00    +0.217 C 
ATOM     11  O   UNL     1      -0.139   2.276   2.042  0.00  0.00    -0.275 OA
ATOM     12  N   UNL     1      -2.008   1.232   1.462  0.00  0.00    -0.301 N 
ATOM     13  C   UNL     1      -2.732   0.388   0.501  0.00  0.00    +0.108 C 
ATOM     14  C   UNL     1      -4.027   1.090   0.099  0.00  0.00    +0.032 C 
ATOM     15  C   UNL     1      -4.827   1.440   1.355  0.00  0.00    +0.078 C 
ATOM     16  C   UNL     1      -4.012   2.392   2.232  0.00  0.00    +0.032 C 
ATOM     17  C   UNL     1      -2.715   1.700   2.662  0.00  0.00    +0.108 C 
BRANCH  15  18
ATOM     18  C   UNL     1      -6.120   2.105   0.959  0.00  0.00    +0.214 C 
ATOM     19  O   UNL     1      -6.365   3.230   1.339  0.00  0.00    -0.276 OA
ATOM     20  N   UNL     1      -7.004   1.449   0.180  0.00  0.00    -0.329 N 
ATOM     21  H   UNL     1      -6.808   0.550  -0.125  0.00  0.00    +0.145 HD
ATOM     22  H   UNL     1      -7.836   1.878  -0.075  0.00  0.00    +0.145 HD
ENDBRANCH  15  18
ENDBRANCH   7  10
BRANCH   1  23
ATOM     23  C   UNL     1      -0.609   4.422  -0.854  0.00  0.00    +0.130 C 
BRANCH  23  26
ATOM     24  C   UNL     1      -2.762   5.435  -3.552  0.00  0.00    +0.113 A 
ATOM     25  C   UNL     1      -2.573   4.771  -2.374  0.00  0.00    +0.138 A 
ATOM     26  N   UNL     1      -1.274   4.953  -2.047  0.00  0.00    -0.253 N 
ATOM     27  N   UNL     1      -0.719   5.666  -2.963  0.00  0.00    -0.065 NA
ATOM     28  N   UNL     1      -1.572   5.972  -3.875  0.00  0.00    -0.130 NA
BRANCH  24  32
ATOM     29  C   UNL     1      -6.385   5.731  -5.766  0.00  0.00    -0.018 A 
ATOM     30  C   UNL     1      -5.227   6.349  -6.237  0.00  0.00    +0.009 A 
ATOM     31  C   UNL     1      -4.054   6.253  -5.521  0.00  0.00    +0.011 A 
ATOM     32  C   UNL     1      -4.025   5.538  -4.324  0.00  0.00    +0.004 A 
ATOM     33  C   UNL     1      -5.181   4.916  -3.856  0.00  0.00    +0.011 A 
ATOM     34  C   UNL     1      -6.355   5.016  -4.570  0.00  0.00    +0.009 A 
BRANCH  29  38
ATOM     35  C   UNL     1     -10.004   6.029  -7.978  0.00  0.00    +0.000 A 
ATOM     36  C   UNL     1      -9.978   5.318  -6.791  0.00  0.00    +0.001 A 
ATOM     37  C   UNL     1      -8.806   5.218  -6.069  0.00  0.00    +0.008 A 
ATOM     38  C   UNL     1      -7.647   5.835  -6.538  0.00  0.00    -0.018 A 
ATOM     39  C   UNL     1      -7.681   6.554  -7.731  0.00  0.00    +0.008 A 
ATOM     40  C   UNL     1      -8.857   6.643  -8.447  0.00  0.00    +0.001 A 
ENDBRANCH  29  38
ENDBRANCH  24  32
ENDBRANCH  23  26
ENDBRANCH   1  23
TORSDOF 6
