REMARK  Name = ZINC18200519
REMARK  8 active torsions:
REMARK  status: ('A' for Active; 'I' for Inactive)
REMARK    1  A    between atoms: C_1  and  C_2
REMARK    2  A    between atoms: C_5  and  C_7
REMARK    3  A    between atoms: C_15  and  O_16
REMARK    4  A    between atoms: C_23  and  C_26
REMARK    5  A    between atoms: C_29  and  O_34
REMARK    6  A    between atoms: C_30  and  O_32
REMARK    7  A    between atoms: O_32  and  C_33
REMARK    8  A    between atoms: O_34  and  C_35
REMARK                            x       y       z     vdW  Elec       q    Type
REMARK                         _______ _______ _______ _____ _____    ______ ____
ROOT
ATOM      1  C   UNL     1       1.043  -4.062  -0.027  0.00  0.00    +0.099 C 
ATOM      2  C   UNL     1       1.875  -4.271  -1.260  0.00  0.00    +0.067 A 
ATOM      3  C   UNL     1       3.242  -4.347  -1.219  0.00  0.00    +0.126 A 
ATOM      4  N   UNL     1       3.681  -4.531  -2.479  0.00  0.00    -0.260 N 
ATOM      5  H   UNL     1       4.607  -4.618  -2.755  0.00  0.00    +0.190 HD
ATOM      6  N   UNL     1       2.559  -4.574  -3.321  0.00  0.00    -0.134 NA
ATOM      7  C   UNL     1       1.480  -4.417  -2.586  0.00  0.00    +0.237 A 
ATOM      8  N   UNL     1       3.937  -4.240  -0.021  0.00  0.00    -0.303 N 
ATOM      9  C   UNL     1       3.239  -4.365   1.154  0.00  0.00    +0.017 C 
ATOM     10  C   UNL     1       1.893  -4.287   1.205  0.00  0.00    +0.025 C 
ATOM     11  C   UNL     1       1.210  -4.412   2.429  0.00  0.00    +0.162 C 
ATOM     12  O   UNL     1      -0.003  -4.345   2.441  0.00  0.00    -0.292 OA
ATOM     13  C   UNL     1       1.947  -4.626   3.721  0.00  0.00    +0.088 C 
ATOM     14  C   UNL     1       3.337  -3.989   3.610  0.00  0.00    +0.032 C 
ATOM     15  C   UNL     1       4.050  -4.605   2.408  0.00  0.00    +0.059 C 
ATOM     16  H   UNL     1       4.894  -4.082  -0.015  0.00  0.00    +0.153 HD
ENDROOT
BRANCH   1  21
ATOM     17  C   UNL     1      -0.018   1.503   0.010  0.00  0.00    +0.051 C 
ATOM     18  C   UNL     1       0.002  -0.004   0.002  0.00  0.00    -0.013 A 
ATOM     19  C   UNL     1      -1.039  -0.872   0.002  0.00  0.00    +0.011 A 
ATOM     20  C   UNL     1      -0.780  -2.230  -0.007  0.00  0.00    +0.012 A 
ATOM     21  C   UNL     1       0.507  -2.653  -0.016  0.00  0.00    +0.002 A 
ATOM     22  S   UNL     1       1.404  -1.109  -0.018  0.00  0.00    -0.097 S 
ENDBRANCH   1  21
BRANCH  14  23
ATOM     23  C   UNL     1       4.125  -4.265   4.864  0.00  0.00    -0.040 A 
ATOM     24  C   UNL     1       4.392  -5.569   5.238  0.00  0.00    +0.008 A 
ATOM     25  C   UNL     1       5.114  -5.828   6.388  0.00  0.00    +0.049 A 
ATOM     26  C   UNL     1       5.572  -4.779   7.169  0.00  0.00    +0.161 A 
ATOM     27  C   UNL     1       5.303  -3.466   6.793  0.00  0.00    +0.162 A 
ATOM     28  C   UNL     1       4.583  -3.214   5.636  0.00  0.00    +0.053 A 
BRANCH  27  29
ATOM     29  O   UNL     1       5.751  -2.434   7.556  0.00  0.00    -0.491 OA
ATOM     30  C   UNL     1       5.438  -1.113   7.108  0.00  0.00    +0.277 C 
ENDBRANCH  27  29
BRANCH  26  31
ATOM     31  O   UNL     1       6.282  -5.032   8.301  0.00  0.00    -0.491 OA
ATOM     32  C   UNL     1       6.519  -6.403   8.625  0.00  0.00    +0.277 C 
ENDBRANCH  26  31
ENDBRANCH  14  23
BRANCH   7  34
ATOM     33  H   UNL     1      -0.122  -3.524  -3.287  0.00  0.00    +0.294 HD
ATOM     34  O   UNL     1       0.199  -4.403  -3.043  0.00  0.00    -0.491 OA
ENDBRANCH   7  34
TORSDOF 5
