REMARK  Name = ZINC05051900
REMARK  11 active torsions:
REMARK  status: ('A' for Active; 'I' for Inactive)
REMARK    1  A    between atoms: C_1  and  C_2
REMARK    2  A    between atoms: C_2  and  C_3
REMARK    3  A    between atoms: C_3  and  O_4
REMARK    4  A    between atoms: O_4  and  C_5
REMARK    5  A    between atoms: C_8  and  C_11
REMARK    6  A    between atoms: C_14  and  C_25
REMARK    7  A    between atoms: C_20  and  N_24
REMARK    8  A    between atoms: C_21  and  C_22
REMARK    9  A    between atoms: C_25  and  C_26
REMARK   10  A    between atoms: C_25  and  C_27
REMARK   11  A    between atoms: C_25  and  C_28
REMARK                            x       y       z     vdW  Elec       q    Type
REMARK                         _______ _______ _______ _____ _____    ______ ____
ROOT
ATOM      1  C   UNL     1       3.109  -4.981  -5.752  0.00  0.00    +0.101 C 
ATOM      2  C   UNL     1       2.210  -5.696  -6.728  0.00  0.00    +0.050 A 
ATOM      3  C   UNL     1       1.143  -5.200  -7.464  0.00  0.00    +0.076 A 
ATOM      4  N   UNL     1       0.652  -6.183  -8.181  0.00  0.00    -0.175 NA
ATOM      5  N   UNL     1       1.400  -7.341  -7.918  0.00  0.00    -0.246 N 
ATOM      6  H   UNL     1       1.256  -8.216  -8.311  0.00  0.00    +0.192 HD
ATOM      7  C   UNL     1       2.351  -7.022  -7.025  0.00  0.00    +0.222 A 
ATOM      8  O   UNL     1       3.312  -7.800  -6.469  0.00  0.00    -0.423 OA
ATOM      9  C   UNL     1       4.314  -7.180  -5.811  0.00  0.00    +0.200 C 
ATOM     10  C   UNL     1       4.285  -5.877  -5.451  0.00  0.00    +0.098 C 
ENDROOT
BRANCH   1  14
ATOM     11  C   UNL     1       0.963  -4.161  -2.148  0.00  0.00    +0.121 A 
ATOM     12  C   UNL     1       1.717  -3.164  -2.751  0.00  0.00    +0.046 A 
ATOM     13  C   UNL     1       2.410  -3.432  -3.915  0.00  0.00    +0.008 A 
ATOM     14  C   UNL     1       2.353  -4.692  -4.481  0.00  0.00    -0.034 A 
ATOM     15  C   UNL     1       1.602  -5.687  -3.883  0.00  0.00    +0.008 A 
ATOM     16  C   UNL     1       0.912  -5.426  -2.715  0.00  0.00    +0.046 A 
BRANCH  11  17
ATOM     17  O   UNL     1       0.281  -3.900  -1.003  0.00  0.00    -0.492 OA
BRANCH  17  18
ATOM     18  C   UNL     1       0.380  -2.575  -0.476  0.00  0.00    +0.229 C 
BRANCH  18  20
ATOM     19  C   UNL     1      -0.343  -1.054   1.370  0.00  0.00    +0.007 C 
ATOM     20  C   UNL     1      -0.449  -2.473   0.806  0.00  0.00    +0.038 C 
ENDBRANCH  18  20
ENDBRANCH  17  18
ENDBRANCH  11  17
ENDBRANCH   1  14
BRANCH   3  21
ATOM     21  C   UNL     1       0.637  -3.781  -7.444  0.00  0.00    +0.007 C 
ATOM     22  C   UNL     1       1.807  -2.819  -7.661  0.00  0.00    +0.017 C 
ATOM     23  C   UNL     1      -0.393  -3.591  -8.559  0.00  0.00    +0.017 C 
ATOM     24  C   UNL     1      -0.017  -3.491  -6.091  0.00  0.00    +0.017 C 
ENDBRANCH   3  21
BRANCH   9  25
ATOM     25  N   UNL     1       5.427  -7.915  -5.489  0.00  0.00    -0.328 N 
ATOM     26  H   UNL     1       5.477  -8.852  -5.733  0.00  0.00    +0.145 HD
ATOM     27  H   UNL     1       6.164  -7.497  -5.016  0.00  0.00    +0.145 HD
ENDBRANCH   9  25
BRANCH  10  28
ATOM     28  C   UNL     1       5.412  -5.327  -4.760  0.00  0.00    +0.101 C 
ATOM     29  N   UNL     1       6.306  -4.890  -4.211  0.00  0.00    -0.191 NA
ENDBRANCH  10  28
TORSDOF 7
