REMARK  Name = ZINC60600507
REMARK  2 active torsions:
REMARK  status: ('A' for Active; 'I' for Inactive)
REMARK    1  A    between atoms: C_6  and  C_7
REMARK    2  A    between atoms: C_7  and  N_11
REMARK                            x       y       z     vdW  Elec       q    Type
REMARK                         _______ _______ _______ _____ _____    ______ ____
ROOT
ATOM      1  C   UNL     1      -1.291  -0.773   0.012  0.00  0.00    +0.061 C 
ATOM      2  C   UNL     1      -1.606  -1.429  -1.343  0.00  0.00    +0.031 C 
ATOM      3  C   UNL     1      -2.112  -2.644  -0.548  0.00  0.00    +0.005 C 
ATOM      4  C   UNL     1      -1.172  -2.196   0.584  0.00  0.00    +0.031 C 
ENDROOT
BRANCH   1   5
ATOM      5  N   UNL     1      -2.408  -0.008   0.570  0.00  0.00    -0.290 N 
ATOM      6  C   UNL     1      -2.847   1.100  -0.060  0.00  0.00    +0.303 C 
ATOM      7  O   UNL     1      -2.380   1.412  -1.138  0.00  0.00    -0.253 OA
ATOM      8  N   UNL     1      -3.805   1.862   0.505  0.00  0.00    -0.286 N 
ATOM      9  C   UNL     1      -4.449   1.606   1.802  0.00  0.00    +0.109 C 
ATOM     10  C   UNL     1      -5.494   2.720   2.022  0.00  0.00    +0.020 C 
ATOM     11  C   UNL     1      -5.776   3.222   0.582  0.00  0.00    +0.020 C 
ATOM     12  C   UNL     1      -4.374   3.094  -0.071  0.00  0.00    +0.109 C 
ATOM     13  H   UNL     1      -2.832  -0.298   1.393  0.00  0.00    +0.151 HD
ENDBRANCH   1   5
BRANCH   1  19
ATOM     14  C   UNL     1       1.126  -0.534  -0.594  0.00  0.00    +0.007 A 
ATOM     15  C   UNL     1       2.317   0.168  -0.582  0.00  0.00    +0.015 A 
ATOM     16  C   UNL     1       2.389   1.397   0.047  0.00  0.00    +0.018 A 
ATOM     17  C   UNL     1       1.269   1.924   0.666  0.00  0.00    +0.015 A 
ATOM     18  C   UNL     1       0.079   1.221   0.654  0.00  0.00    +0.007 A 
ATOM     19  C   UNL     1       0.007  -0.008   0.024  0.00  0.00    -0.024 A 
ATOM     20 BR   UNL     1       4.018   2.357   0.064  0.00  0.00    -0.050 Br
ENDBRANCH   1  19
TORSDOF 2
