REMARK  Name = ZINC41106900
REMARK  7 active torsions:
REMARK  status: ('A' for Active; 'I' for Inactive)
REMARK    1  A    between atoms: C_1  and  C_2
REMARK    2  A    between atoms: C_6  and  C_8
REMARK    3  A    between atoms: C_10  and  C_18
REMARK    4  A    between atoms: C_11  and  C_17
REMARK    5  A    between atoms: N_12  and  C_16
REMARK    6  A    between atoms: N_20  and  C_21
REMARK    7  A    between atoms: C_26  and  C_27
REMARK                            x       y       z     vdW  Elec       q    Type
REMARK                         _______ _______ _______ _____ _____    ______ ____
ROOT
ATOM      1  C   UNL     1      -0.024  -2.121   2.203  0.00  0.00    +0.142 C 
ATOM      2  C   UNL     1       1.345  -2.662   2.565  0.00  0.00    +0.056 C 
ATOM      3  C   UNL     1       1.492  -4.001   2.633  0.00  0.00    +0.022 C 
ATOM      4  N   UNL     1       0.443  -4.841   2.385  0.00  0.00    -0.262 N 
ATOM      5  C   UNL     1      -0.786  -4.417   2.062  0.00  0.00    +0.307 C 
ATOM      6  O   UNL     1      -1.657  -5.240   1.859  0.00  0.00    -0.252 OA
ATOM      7  N   UNL     1      -1.087  -3.109   1.954  0.00  0.00    -0.288 N 
ATOM      8  C   UNL     1       0.675  -6.284   2.477  0.00  0.00    +0.139 C 
ATOM      9  C   UNL     1       2.837  -4.582   2.989  0.00  0.00    +0.061 C 
ATOM     10  H   UNL     1      -1.984  -2.824   1.719  0.00  0.00    +0.151 HD
ENDROOT
BRANCH   1  16
ATOM     11  C   UNL     1       0.395   2.378   0.052  0.00  0.00    +0.044 C 
ATOM     12  C   UNL     1       0.323   0.878  -0.064  0.00  0.00    -0.050 A 
ATOM     13  C   UNL     1       0.393   0.277  -1.308  0.00  0.00    +0.003 A 
ATOM     14  C   UNL     1       0.327  -1.099  -1.414  0.00  0.00    +0.001 A 
ATOM     15  C   UNL     1       0.192  -1.876  -0.278  0.00  0.00    +0.006 A 
ATOM     16  C   UNL     1       0.124  -1.275   0.965  0.00  0.00    -0.022 A 
ATOM     17  C   UNL     1       0.194   0.102   1.072  0.00  0.00    +0.009 A 
ENDBRANCH   1  16
BRANCH   2  18
ATOM     18  C   UNL     1       2.432  -1.791   2.821  0.00  0.00    +0.248 C 
ATOM     19  O   UNL     1       2.480  -1.168   3.867  0.00  0.00    -0.270 OA
ATOM     20  N   UNL     1       3.414  -1.652   1.909  0.00  0.00    -0.281 N 
ATOM     21  H   UNL     1       3.342  -2.093   1.048  0.00  0.00    +0.155 HD
BRANCH  20  22
ATOM     22  C   UNL     1       4.537  -0.873   2.203  0.00  0.00    +0.045 A 
ATOM     23  C   UNL     1       4.844  -0.564   3.523  0.00  0.00    +0.024 A 
ATOM     24  C   UNL     1       5.954   0.205   3.810  0.00  0.00    +0.002 A 
ATOM     25  C   UNL     1       6.760   0.669   2.786  0.00  0.00    +0.001 A 
ATOM     26  C   UNL     1       6.457   0.365   1.472  0.00  0.00    +0.014 A 
ATOM     27  C   UNL     1       5.351  -0.410   1.178  0.00  0.00    +0.076 A 
BRANCH  27  28
ATOM     28  C   UNL     1       5.025  -0.746  -0.254  0.00  0.00    +0.419 C 
ATOM     29  F   UNL     1       5.972  -0.157  -1.099  0.00  0.00    -0.166 F 
ATOM     30  F   UNL     1       5.049  -2.135  -0.424  0.00  0.00    -0.166 F 
ATOM     31  F   UNL     1       3.752  -0.260  -0.570  0.00  0.00    -0.166 F 
ENDBRANCH  27  28
ENDBRANCH  20  22
ENDBRANCH   2  18
TORSDOF 4
