REMARK  Name = ZINC04878458
REMARK  7 active torsions:
REMARK  status: ('A' for Active; 'I' for Inactive)
REMARK    1  A    between atoms: C_1  and  C_2
REMARK    2  A    between atoms: C_3  and  C_20
REMARK    3  A    between atoms: C_4  and  C_12
REMARK    4  A    between atoms: C_15  and  S_18
REMARK    5  A    between atoms: S_18  and  C_19
REMARK    6  A    between atoms: C_20  and  O_22
REMARK    7  A    between atoms: O_22  and  C_23
REMARK                            x       y       z     vdW  Elec       q    Type
REMARK                         _______ _______ _______ _____ _____    ______ ____
ROOT
ATOM      1  C   UNL     1      -0.018   1.503   0.010  0.00  0.00    +0.061 C 
ATOM      2  C   UNL     1       0.002  -0.004   0.002  0.00  0.00    +0.020 C 
ATOM      3  C   UNL     1      -1.164  -0.668   0.004  0.00  0.00    +0.082 C 
ATOM      4  C   UNL     1      -1.253  -2.171   0.008  0.00  0.00    +0.179 C 
ATOM      5  N   UNL     1       0.061  -2.737  -0.283  0.00  0.00    -0.221 N 
ATOM      6  C   UNL     1       1.207  -2.012  -0.280  0.00  0.00    +0.218 A 
ATOM      7  N   UNL     1       2.193  -2.817  -0.570  0.00  0.00    -0.201 NA
ATOM      8  C   UNL     1       1.720  -4.051  -0.766  0.00  0.00    +0.247 A 
ATOM      9  N   UNL     1       0.420  -4.046  -0.602  0.00  0.00    -0.156 NA
ATOM     10  N   UNL     1       1.212  -0.651  -0.013  0.00  0.00    -0.287 N 
ATOM     11  H   UNL     1       2.040  -0.175   0.160  0.00  0.00    +0.155 HD
ENDROOT
BRANCH   4  12
ATOM     12  C   UNL     1      -1.716  -2.644   1.362  0.00  0.00    -0.018 A 
ATOM     13  C   UNL     1      -0.971  -2.345   2.488  0.00  0.00    +0.007 A 
ATOM     14  C   UNL     1      -1.391  -2.777   3.731  0.00  0.00    +0.015 A 
ATOM     15  C   UNL     1      -2.565  -3.512   3.849  0.00  0.00    +0.008 A 
ATOM     16  C   UNL     1      -3.311  -3.810   2.715  0.00  0.00    +0.015 A 
ATOM     17  C   UNL     1      -2.887  -3.370   1.476  0.00  0.00    +0.007 A 
BRANCH  15  18
ATOM     18  S   UNL     1      -3.105  -4.065   5.432  0.00  0.00    -0.129 S 
ATOM     19  C   UNL     1      -4.645  -4.959   5.083  0.00  0.00    +0.090 C 
ENDBRANCH  15  18
ENDBRANCH   4  12
BRANCH   3  20
ATOM     20  C   UNL     1      -2.364   0.077   0.003  0.00  0.00    +0.339 C 
ATOM     21  O   UNL     1      -2.324   1.294   0.000  0.00  0.00    -0.245 OA
BRANCH  20  22
ATOM     22  O   UNL     1      -3.554  -0.559   0.005  0.00  0.00    -0.458 OA
BRANCH  22  23
ATOM     23  C   UNL     1      -4.726   0.258   0.004  0.00  0.00    +0.177 C 
ATOM     24  C   UNL     1      -5.144   0.552   1.446  0.00  0.00    +0.044 C 
ATOM     25  C   UNL     1      -6.400   1.427   1.445  0.00  0.00    +0.004 C 
ATOM     26  C   UNL     1      -7.532   0.692   0.726  0.00  0.00    +0.000 C 
ATOM     27  C   UNL     1      -7.115   0.397  -0.717  0.00  0.00    +0.004 C 
ATOM     28  C   UNL     1      -5.859  -0.477  -0.715  0.00  0.00    +0.044 C 
ENDBRANCH  22  23
ENDBRANCH  20  22
ENDBRANCH   3  20
TORSDOF 5
