REMARK  Name = ZINC39941797
REMARK  6 active torsions:
REMARK  status: ('A' for Active; 'I' for Inactive)
REMARK    1  A    between atoms: C_8  and  C_13
REMARK    2  A    between atoms: N_14  and  N_15
REMARK    3  A    between atoms: C_16  and  C_18
REMARK    4  A    between atoms: N_20  and  C_21
REMARK    5  A    between atoms: C_26  and  C_27
REMARK    6  A    between atoms: N_29  and  C_30
REMARK                            x       y       z     vdW  Elec       q    Type
REMARK                         _______ _______ _______ _____ _____    ______ ____
ROOT
ATOM      1  C   UNL     1       3.804  -7.972   3.080  0.00  0.00    +0.305 C 
ATOM      2  O   UNL     1       4.360  -7.563   4.079  0.00  0.00    -0.265 OA
ATOM      3  N   UNL     1       3.307  -9.224   3.051  0.00  0.00    -0.277 N 
ATOM      4  H   UNL     1       2.805  -9.529   2.279  0.00  0.00    +0.155 HD
ENDROOT
BRANCH   3   5
ATOM      5  C   UNL     1       3.512 -10.079   4.129  0.00  0.00    +0.046 A 
ATOM      6  C   UNL     1       3.530  -9.578   5.424  0.00  0.00    +0.024 A 
ATOM      7  C   UNL     1       3.735 -10.429   6.492  0.00  0.00    +0.002 A 
ATOM      8  C   UNL     1       3.923 -11.786   6.282  0.00  0.00    +0.001 A 
ATOM      9  C   UNL     1       3.908 -12.301   5.003  0.00  0.00    +0.015 A 
ATOM     10  C   UNL     1       3.696 -11.454   3.913  0.00  0.00    +0.058 A 
BRANCH  10  11
ATOM     11  C   UNL     1       3.673 -11.999   2.543  0.00  0.00    +0.246 C 
ATOM     12  O   UNL     1       3.591 -11.248   1.591  0.00  0.00    -0.270 OA
ATOM     13  N   UNL     1       3.743 -13.331   2.347  0.00  0.00    -0.308 N 
ATOM     14  H   UNL     1       3.808 -13.930   3.106  0.00  0.00    +0.149 HD
BRANCH  13  15
ATOM     15  C   UNL     1       3.719 -13.873   0.986  0.00  0.00    +0.073 C 
ATOM     16  C   UNL     1       2.269 -14.028   0.523  0.00  0.00    +0.022 C 
ATOM     17  C   UNL     1       2.245 -14.595  -0.898  0.00  0.00    +0.002 C 
ATOM     18  C   UNL     1       2.935 -15.960  -0.915  0.00  0.00    +0.000 C 
ATOM     19  C   UNL     1       4.385 -15.805  -0.452  0.00  0.00    +0.002 C 
ATOM     20  C   UNL     1       4.409 -15.239   0.969  0.00  0.00    +0.022 C 
ENDBRANCH  13  15
ENDBRANCH  10  11
ENDBRANCH   3   5
BRANCH   1  22
ATOM     21  N   UNL     1       4.168  -5.836   1.915  0.00  0.00    -0.199 N 
ATOM     22  C   UNL     1       3.671  -7.088   1.886  0.00  0.00    +0.318 C 
ATOM     23  O   UNL     1       3.115  -7.497   0.887  0.00  0.00    -0.263 OA
ATOM     24  H   UNL     1       4.613  -5.509   2.713  0.00  0.00    +0.178 HD
BRANCH  21  26
ATOM     25  C   UNL     1       4.516  -3.817   0.821  0.00  0.00    +0.120 C 
ATOM     26  N   UNL     1       4.044  -5.006   0.793  0.00  0.00    -0.191 NA
BRANCH  25  34
ATOM     27  C   UNL     1       3.578   1.876   0.060  0.00  0.00    +0.001 A 
ATOM     28  C   UNL     1       4.888   2.082  -0.373  0.00  0.00    +0.002 A 
ATOM     29  C   UNL     1       5.723   1.059  -0.692  0.00  0.00    +0.024 A 
ATOM     30  C   UNL     1       5.289  -0.276  -0.595  0.00  0.00    +0.040 A 
ATOM     31  N   UNL     1       6.117  -1.271  -0.909  0.00  0.00    -0.284 N 
ATOM     32  C   UNL     1       5.774  -2.546  -0.841  0.00  0.00    +0.229 C 
ATOM     33  O   UNL     1       6.574  -3.411  -1.141  0.00  0.00    -0.274 OA
ATOM     34  C   UNL     1       4.382  -2.924  -0.386  0.00  0.00    +0.141 C 
ATOM     35  C   UNL     1       3.435  -1.796  -0.026  0.00  0.00    +0.001 C 
ATOM     36  C   UNL     1       3.910  -0.522  -0.139  0.00  0.00    -0.007 A 
ATOM     37  C   UNL     1       3.063   0.626   0.188  0.00  0.00    +0.009 A 
ATOM     38  H   UNL     1       7.015  -1.049  -1.203  0.00  0.00    +0.155 HD
ENDBRANCH  25  34
ENDBRANCH  21  26
ENDBRANCH   1  22
TORSDOF 6
