REMARK  Name = ZINC08990694
REMARK  11 active torsions:
REMARK  status: ('A' for Active; 'I' for Inactive)
REMARK    1  A    between atoms: C_1  and  C_2
REMARK    2  A    between atoms: C_5  and  C_8
REMARK    3  A    between atoms: C_8  and  C_10
REMARK    4  A    between atoms: C_8  and  N_59
REMARK    5  A    between atoms: C_13  and  O_16
REMARK    6  A    between atoms: O_16  and  C_17
REMARK    7  A    between atoms: C_17  and  C_18
REMARK    8  A    between atoms: C_17  and  C_19
REMARK    9  A    between atoms: C_20  and  N_59
REMARK   10  A    between atoms: C_25  and  C_27
REMARK   11  A    between atoms: C_25  and  C_28
REMARK                            x       y       z     vdW  Elec       q    Type
REMARK                         _______ _______ _______ _____ _____    ______ ____
ROOT
ATOM      1  C   UNL     1       4.264  -1.915   2.262  0.00  0.00    -0.010 C 
ENDROOT
BRANCH   1   6
ATOM      2  C   UNL     1       9.832  -1.323   0.833  0.00  0.00    +0.044 C 
ATOM      3  C   UNL     1       8.379  -1.477   1.205  0.00  0.00    -0.050 A 
ATOM      4  C   UNL     1       7.653  -2.551   0.726  0.00  0.00    +0.003 A 
ATOM      5  C   UNL     1       6.321  -2.693   1.067  0.00  0.00    +0.002 A 
ATOM      6  C   UNL     1       5.716  -1.761   1.889  0.00  0.00    -0.057 A 
ATOM      7  C   UNL     1       6.440  -0.684   2.364  0.00  0.00    +0.002 A 
ATOM      8  C   UNL     1       7.773  -0.544   2.026  0.00  0.00    +0.003 A 
ENDBRANCH   1   6
BRANCH   1   9
ATOM      9  C   UNL     1       4.160  -2.511   3.643  0.00  0.00    -0.057 A 
ATOM     10  C   UNL     1       4.331  -1.707   4.755  0.00  0.00    +0.006 A 
ATOM     11  C   UNL     1       4.231  -2.249   6.022  0.00  0.00    +0.046 A 
ATOM     12  C   UNL     1       3.970  -3.603   6.177  0.00  0.00    +0.121 A 
ATOM     13  C   UNL     1       3.805  -4.408   5.059  0.00  0.00    +0.046 A 
ATOM     14  C   UNL     1       3.901  -3.860   3.795  0.00  0.00    +0.006 A 
BRANCH  12  15
ATOM     15  O   UNL     1       3.876  -4.140   7.422  0.00  0.00    -0.489 OA
BRANCH  15  16
ATOM     16  C   UNL     1       3.490  -5.513   7.510  0.00  0.00    +0.167 C 
ATOM     17  C   UNL     1       4.724  -6.401   7.346  0.00  0.00    +0.051 C 
ATOM     18  C   UNL     1       2.848  -5.776   8.873  0.00  0.00    +0.051 C 
ENDBRANCH  15  16
ENDBRANCH  12  15
ENDBRANCH   1   9
BRANCH   1  19
ATOM     19  N   UNL     1       3.610  -0.593   2.254  0.00  0.00    +0.388 N 
ATOM     20  H   UNL     1       4.277   0.116   2.579  0.00  0.00    -0.084 HD
ATOM     21  H   UNL     1       2.798  -0.613   2.883  0.00  0.00    -0.084 HD
BRANCH  19  22
ATOM     22  C   UNL     1       3.161  -0.252   0.891  0.00  0.00    -0.066 C 
ATOM     23  C   UNL     1       1.781  -0.865   0.636  0.00  0.00    +0.012 C 
ATOM     24  C   UNL     1       1.286  -0.432  -0.746  0.00  0.00    +0.159 C 
ATOM     25  O   UNL     1       1.248   0.995  -0.812  0.00  0.00    -0.374 OA
ATOM     26  C   UNL     1       2.519   1.621  -0.628  0.00  0.00    +0.063 C 
ATOM     27  C   UNL     1       3.063   1.271   0.759  0.00  0.00    +0.019 C 
ATOM     28  C   UNL     1       3.493   1.125  -1.698  0.00  0.00    +0.041 C 
ATOM     29  C   UNL     1       2.361   3.139  -0.746  0.00  0.00    +0.041 C 
ENDBRANCH  19  22
ENDBRANCH   1  19
TORSDOF 6
