REMARK  Name = ZINC58246497
REMARK  4 active torsions:
REMARK  status: ('A' for Active; 'I' for Inactive)
REMARK    1  A    between atoms: C_3  and  S_9
REMARK    2  A    between atoms: C_6  and  C_7
REMARK    3  A    between atoms: S_9  and  N_12
REMARK    4  A    between atoms: C_22  and  C_24
REMARK                            x       y       z     vdW  Elec       q    Type
REMARK                         _______ _______ _______ _____ _____    ______ ____
ROOT
ATOM      1  N   UNL     1       4.324   2.568   1.557  0.00  0.00    -0.161 NA
ATOM      2  C   UNL     1       3.945   3.695   2.393  0.00  0.00    +0.084 C 
ATOM      3  C   UNL     1       2.602   4.345   2.134  0.00  0.00    +0.021 C 
ATOM      4  C   UNL     1       2.464   5.520   3.116  0.00  0.00    +0.002 C 
ATOM      5  C   UNL     1       2.600   5.055   4.563  0.00  0.00    +0.000 C 
ATOM      6  C   UNL     1       3.913   4.287   4.787  0.00  0.00    +0.005 C 
ATOM      7  C   UNL     1       3.896   3.103   3.828  0.00  0.00    +0.010 C 
ATOM      8  C   UNL     1       5.184   2.265   3.821  0.00  0.00    +0.035 C 
ATOM      9  C   UNL     1       5.168   1.674   2.385  0.00  0.00    +0.166 C 
ENDROOT
BRANCH   9  10
ATOM     10  C   UNL     1       6.570   1.635   1.833  0.00  0.00    +0.229 C 
ATOM     11  O   UNL     1       6.852   2.283   0.848  0.00  0.00    -0.274 OA
ATOM     12  N   UNL     1       7.510   0.880   2.435  0.00  0.00    -0.328 N 
ATOM     13  H   UNL     1       7.284   0.361   3.224  0.00  0.00    +0.145 HD
ATOM     14  H   UNL     1       8.412   0.854   2.080  0.00  0.00    +0.145 HD
ENDBRANCH   9  10
BRANCH   1  15
ATOM     15  S   UNL     1       3.889   2.325  -0.023  0.00  0.00    +0.062 S 
ATOM     16  O   UNL     1       4.872   1.468  -0.587  0.00  0.00    -0.153 OA
ATOM     17  O   UNL     1       3.592   3.605  -0.564  0.00  0.00    -0.153 OA
BRANCH  15  20
ATOM     18  C   UNL     1      -0.017   1.392   0.010  0.00  0.00    +0.021 A 
ATOM     19  C   UNL     1       1.170   2.095   0.002  0.00  0.00    +0.030 A 
ATOM     20  C   UNL     1       2.378   1.419  -0.013  0.00  0.00    +0.106 A 
ATOM     21  C   UNL     1       2.404   0.036  -0.021  0.00  0.00    +0.030 A 
ATOM     22  C   UNL     1       1.224  -0.679  -0.014  0.00  0.00    +0.021 A 
ATOM     23  C   UNL     1       0.002  -0.004   0.002  0.00  0.00    +0.052 A 
BRANCH  23  24
ATOM     24  C   UNL     1      -1.226  -0.740   0.010  0.00  0.00    +0.099 C 
ATOM     25  N   UNL     1      -2.201  -1.324   0.017  0.00  0.00    -0.191 NA
ENDBRANCH  23  24
ENDBRANCH  15  20
ENDBRANCH   1  15
TORSDOF 4
