REMARK  Name = ZINC04523713
REMARK  7 active torsions:
REMARK  status: ('A' for Active; 'I' for Inactive)
REMARK    1  A    between atoms: C_1  and  C_2
REMARK    2  A    between atoms: C_2  and  C_3
REMARK    3  A    between atoms: C_2  and  C_4
REMARK    4  A    between atoms: C_2  and  C_5
REMARK    5  A    between atoms: C_12  and  C_16
REMARK    6  A    between atoms: N_18  and  N_19
REMARK    7  A    between atoms: C_20  and  C_21
REMARK                            x       y       z     vdW  Elec       q    Type
REMARK                         _______ _______ _______ _____ _____    ______ ____
ROOT
ATOM      1  C   UNL     1      -0.052  -0.005  -3.696  0.00  0.00    -0.038 A 
ATOM      2  C   UNL     1      -1.355  -0.225  -4.102  0.00  0.00    +0.008 A 
ATOM      3  C   UNL     1      -2.322   0.737  -3.881  0.00  0.00    +0.050 A 
ATOM      4  C   UNL     1      -1.987   1.927  -3.251  0.00  0.00    +0.162 A 
ATOM      5  C   UNL     1      -0.676   2.149  -2.845  0.00  0.00    +0.163 A 
ATOM      6  C   UNL     1       0.289   1.178  -3.068  0.00  0.00    +0.053 A 
ATOM      7  O   UNL     1      -0.325   3.313  -2.233  0.00  0.00    -0.472 OA
ATOM      8  C   UNL     1      -1.389   4.103  -1.692  0.00  0.00    +0.297 C 
ATOM      9  C   UNL     1      -2.504   4.191  -2.743  0.00  0.00    +0.283 C 
ATOM     10  O   UNL     1      -2.951   2.862  -3.034  0.00  0.00    -0.484 OA
ENDROOT
BRANCH   1  12
ATOM     11  C   UNL     1       0.365  -2.260  -4.641  0.00  0.00    +0.015 C 
ATOM     12  C   UNL     1       0.999  -1.058  -3.937  0.00  0.00    -0.013 C 
ATOM     13  C   UNL     1       2.108  -0.479  -4.817  0.00  0.00    +0.015 C 
ATOM     14  C   UNL     1       1.591  -1.505  -2.599  0.00  0.00    +0.015 C 
ENDBRANCH   1  12
BRANCH   8  15
ATOM     15  C   UNL     1      -0.883   5.485  -1.371  0.00  0.00    +0.276 C 
ATOM     16  O   UNL     1       0.245   5.806  -1.681  0.00  0.00    -0.270 OA
ATOM     17  N   UNL     1      -1.683   6.365  -0.737  0.00  0.00    -0.204 N 
ATOM     18  H   UNL     1      -2.558   6.087  -0.424  0.00  0.00    +0.177 HD
BRANCH  17  19
ATOM     19  N   UNL     1      -1.251   7.682  -0.531  0.00  0.00    -0.188 NA
ATOM     20  C   UNL     1      -1.970   8.498   0.177  0.00  0.00    +0.139 C 
BRANCH  20  21
ATOM     21  C   UNL     1      -3.123   7.989   0.944  0.00  0.00    +0.014 A 
ATOM     22  C   UNL     1      -3.138   6.665   1.392  0.00  0.00    +0.011 A 
ATOM     23  C   UNL     1      -4.216   6.197   2.113  0.00  0.00    +0.002 A 
ATOM     24  C   UNL     1      -5.287   7.030   2.384  0.00  0.00    +0.021 A 
ATOM     25  C   UNL     1      -5.284   8.341   1.939  0.00  0.00    +0.060 A 
ATOM     26  C   UNL     1      -4.207   8.825   1.220  0.00  0.00    +0.068 A 
ATOM     27 CL   UNL     1      -4.202  10.470   0.663  0.00  0.00    -0.081 Cl
ATOM     28 CL   UNL     1      -6.633   9.377   2.284  0.00  0.00    -0.082 Cl
ENDBRANCH  20  21
ENDBRANCH  17  19
ENDBRANCH   8  15
TORSDOF 4
