REMARK  Name = ZINC66382766
REMARK  8 active torsions:
REMARK  status: ('A' for Active; 'I' for Inactive)
REMARK    1  A    between atoms: C_1  and  C_2
REMARK    2  A    between atoms: C_2  and  C_3
REMARK    3  A    between atoms: C_3  and  C_5
REMARK    4  A    between atoms: C_3  and  N_8
REMARK    5  A    between atoms: C_5  and  C_6
REMARK    6  A    between atoms: C_5  and  C_7
REMARK    7  A    between atoms: C_15  and  C_18
REMARK    8  A    between atoms: C_24  and  C_27
REMARK                            x       y       z     vdW  Elec       q    Type
REMARK                         _______ _______ _______ _____ _____    ______ ____
ROOT
ATOM      1  N   UNL     1      -2.081  -0.163   1.274  0.00  0.00    -0.296 N 
ATOM      2  C   UNL     1      -3.423  -0.051   1.334  0.00  0.00    +0.302 C 
ATOM      3  O   UNL     1      -4.089  -0.169   0.324  0.00  0.00    -0.253 OA
ATOM      4  N   UNL     1      -4.026   0.192   2.514  0.00  0.00    -0.285 N 
ATOM      5  C   UNL     1      -3.231   0.456   3.721  0.00  0.00    +0.109 C 
ATOM      6  C   UNL     1      -3.700   1.776   4.342  0.00  0.00    +0.020 C 
ATOM      7  C   UNL     1      -5.210   1.712   4.586  0.00  0.00    +0.016 C 
ATOM      8  C   UNL     1      -5.936   1.520   3.252  0.00  0.00    +0.093 C 
ATOM      9  C   UNL     1      -5.492   0.203   2.618  0.00  0.00    +0.122 C 
ATOM     10  H   UNL     1      -1.544   0.007   2.063  0.00  0.00    +0.151 HD
ENDROOT
BRANCH   8  11
ATOM     11  C   UNL     1      -7.424   1.490   3.489  0.00  0.00    +0.223 C 
ATOM     12  O   UNL     1      -7.861   1.610   4.614  0.00  0.00    -0.275 OA
ATOM     13  N   UNL     1      -8.268   1.330   2.451  0.00  0.00    -0.270 N 
ATOM     14  C   UNL     1      -9.646   1.407   2.655  0.00  0.00    +0.125 A 
ATOM     15  C   UNL     1     -10.507   1.346   1.565  0.00  0.00    +0.044 A 
ATOM     16  C   UNL     1     -11.872   1.424   1.781  0.00  0.00    +0.008 A 
ATOM     17  C   UNL     1     -12.329   1.560   3.085  0.00  0.00    -0.032 A 
ATOM     18  C   UNL     1     -11.416   1.614   4.120  0.00  0.00    +0.116 A 
ATOM     19  N   UNL     1     -10.121   1.532   3.884  0.00  0.00    -0.240 NA
ATOM     20  C   UNL     1     -13.806   1.650   3.368  0.00  0.00    +0.045 C 
ATOM     21  H   UNL     1      -7.918   1.160   1.563  0.00  0.00    +0.156 HD
ENDBRANCH   8  11
BRANCH   1  22
ATOM     22  C   UNL     1      -1.434  -0.541   0.015  0.00  0.00    +0.077 C 
BRANCH  22  23
ATOM     23  C   UNL     1      -1.420  -2.065  -0.114  0.00  0.00    +0.003 C 
ATOM     24  C   UNL     1      -2.857  -2.591  -0.102  0.00  0.00    +0.009 C 
ATOM     25  C   UNL     1      -0.744  -2.459  -1.429  0.00  0.00    +0.009 C 
ENDBRANCH  22  23
BRANCH  22  27
ATOM     26  C   UNL     1      -0.014   1.515   0.006  0.00  0.00    +0.006 C 
ATOM     27  C   UNL     1       0.003  -0.015   0.003  0.00  0.00    +0.019 C 
ENDBRANCH  22  27
ENDBRANCH   1  22
TORSDOF 4
