REMARK  Name = ZINC49429591
REMARK  5 active torsions:
REMARK  status: ('A' for Active; 'I' for Inactive)
REMARK    1  A    between atoms: C_1  and  C_2
REMARK    2  A    between atoms: C_5  and  C_25
REMARK    3  A    between atoms: C_6  and  N_8
REMARK    4  A    between atoms: C_9  and  C_11
REMARK    5  A    between atoms: N_19  and  C_20
REMARK                            x       y       z     vdW  Elec       q    Type
REMARK                         _______ _______ _______ _____ _____    ______ ____
ROOT
ATOM      1  C   UNL     1       0.281  -2.903   4.853  0.00  0.00    +0.078 C 
ATOM      2  C   UNL     1       1.542  -3.769   4.810  0.00  0.00    +0.032 C 
ATOM      3  C   UNL     1       1.651  -4.569   6.111  0.00  0.00    +0.110 C 
ATOM      4  N   UNL     1       1.597  -3.637   7.246  0.00  0.00    -0.285 N 
ATOM      5  C   UNL     1       0.472  -2.697   7.335  0.00  0.00    +0.110 C 
ATOM      6  C   UNL     1       0.376  -1.917   6.019  0.00  0.00    +0.032 C 
ATOM      7  C   UNL     1       2.562  -3.645   8.187  0.00  0.00    +0.307 C 
ATOM      8  O   UNL     1       3.535  -4.362   8.055  0.00  0.00    -0.252 OA
ATOM      9  N   UNL     1       2.448  -2.858   9.275  0.00  0.00    -0.264 N 
ATOM     10  H   UNL     1       1.709  -2.233   9.347  0.00  0.00    +0.157 HD
ENDROOT
BRANCH   9  11
ATOM     11  C   UNL     1       3.393  -2.942  10.302  0.00  0.00    +0.073 A 
ATOM     12  C   UNL     1       3.454  -2.248  11.472  0.00  0.00    +0.031 A 
ATOM     13  C   UNL     1       4.496  -2.504  12.345  0.00  0.00    +0.009 A 
ATOM     14  C   UNL     1       5.422  -3.434  12.011  0.00  0.00    +0.047 A 
ATOM     15  S   UNL     1       4.831  -3.994  10.422  0.00  0.00    -0.082 S 
ENDBRANCH   9  11
BRANCH   1  17
ATOM     16  N   UNL     1       0.052  -2.805   2.391  0.00  0.00    -0.285 N 
ATOM     17  C   UNL     1       0.152  -2.140   3.559  0.00  0.00    +0.220 C 
ATOM     18  O   UNL     1       0.138  -0.927   3.570  0.00  0.00    -0.275 OA
ATOM     19  H   UNL     1      -0.017  -3.772   2.389  0.00  0.00    +0.155 HD
BRANCH  16  25
ATOM     20  C   UNL     1       1.272   1.212  -0.167  0.00  0.00    +0.044 C 
ATOM     21  C   UNL     1       0.633  -0.150  -0.086  0.00  0.00    -0.049 A 
ATOM     22  C   UNL     1       0.042  -0.705  -1.207  0.00  0.00    +0.004 A 
ATOM     23  C   UNL     1      -0.544  -1.954  -1.136  0.00  0.00    +0.005 A 
ATOM     24  C   UNL     1      -0.543  -2.654   0.056  0.00  0.00    -0.029 A 
ATOM     25  C   UNL     1       0.049  -2.099   1.183  0.00  0.00    +0.037 A 
ATOM     26  C   UNL     1       0.642  -0.846   1.107  0.00  0.00    +0.027 A 
ATOM     27  C   UNL     1      -1.183  -4.016   0.132  0.00  0.00    +0.045 C 
ENDBRANCH  16  25
ENDBRANCH   1  17
TORSDOF 3
