REMARK  Name = ZINC05868111
REMARK  10 active torsions:
REMARK  status: ('A' for Active; 'I' for Inactive)
REMARK    1  A    between atoms: C_1  and  C_2
REMARK    2  A    between atoms: C_5  and  C_7
REMARK    3  A    between atoms: C_7  and  C_28
REMARK    4  A    between atoms: N_8  and  N_9
REMARK    5  A    between atoms: C_10  and  C_12
REMARK    6  A    between atoms: C_15  and  C_18
REMARK    7  A    between atoms: C_18  and  S_19
REMARK    8  A    between atoms: S_19  and  C_20
REMARK    9  A    between atoms: C_22  and  C_27
REMARK   10  A    between atoms: C_24  and  C_26
REMARK                            x       y       z     vdW  Elec       q    Type
REMARK                         _______ _______ _______ _____ _____    ______ ____
ROOT
ATOM      1  C   UNL     1       0.046   0.085   4.790  0.00  0.00    +0.038 A 
ATOM      2  C   UNL     1       0.033   1.481   4.801  0.00  0.00    +0.013 A 
ATOM      3  C   UNL     1       0.030   2.158   6.003  0.00  0.00    +0.005 A 
ATOM      4  C   UNL     1       0.051   1.457   7.195  0.00  0.00    -0.037 A 
ATOM      5  C   UNL     1       0.070   0.073   7.191  0.00  0.00    +0.005 A 
ATOM      6  C   UNL     1       0.067  -0.616   5.996  0.00  0.00    +0.013 A 
ENDROOT
BRANCH   1   8
ATOM      7  N   UNL     1       0.024   0.033   2.342  0.00  0.00    -0.203 N 
ATOM      8  C   UNL     1       0.044  -0.647   3.506  0.00  0.00    +0.263 C 
ATOM      9  O   UNL     1       0.060  -1.863   3.499  0.00  0.00    -0.268 OA
ATOM     10  H   UNL     1       0.011   1.003   2.348  0.00  0.00    +0.178 HD
BRANCH   7  12
ATOM     11  C   UNL     1       0.002  -0.004   0.002  0.00  0.00    +0.098 C 
ATOM     12  N   UNL     1       0.022  -0.661   1.125  0.00  0.00    -0.181 NA
ATOM     13  C   UNL     1      -0.018   1.503   0.010  0.00  0.00    +0.071 C 
BRANCH  11  18
ATOM     14  C   UNL     1      -0.035  -0.933  -4.920  0.00  0.00    +0.086 C 
ATOM     15  C   UNL     1      -0.016  -1.145  -3.428  0.00  0.00    +0.103 A 
ATOM     16  C   UNL     1       0.006  -2.341  -2.805  0.00  0.00    +0.045 A 
ATOM     17  C   UNL     1       0.017  -2.087  -1.421  0.00  0.00    +0.051 A 
ATOM     18  C   UNL     1      -0.000  -0.730  -1.271  0.00  0.00    +0.150 A 
ATOM     19  O   UNL     1      -0.025  -0.175  -2.500  0.00  0.00    -0.459 OA
ENDBRANCH  11  18
ENDBRANCH   7  12
ENDBRANCH   1   8
BRANCH   4  20
ATOM     20  C   UNL     1       0.054   2.203   8.504  0.00  0.00    +0.112 C 
BRANCH  20  21
ATOM     21  S   UNL     1       1.761   2.525   9.013  0.00  0.00    -0.081 S 
BRANCH  21  22
ATOM     22  C   UNL     1       1.473   3.382  10.525  0.00  0.00    +0.189 A 
ATOM     23  N   UNL     1       0.227   3.592  10.923  0.00  0.00    -0.227 NA
ATOM     24  C   UNL     1      -0.023   4.227  12.056  0.00  0.00    +0.043 A 
ATOM     25  C   UNL     1       1.037   4.684  12.823  0.00  0.00    +0.046 A 
ATOM     26  C   UNL     1       2.328   4.452  12.375  0.00  0.00    +0.043 A 
ATOM     27  N   UNL     1       2.509   3.806  11.236  0.00  0.00    -0.227 NA
ATOM     28  C   UNL     1       3.511   4.931  13.177  0.00  0.00    +0.066 C 
ATOM     29  C   UNL     1      -1.444   4.456  12.505  0.00  0.00    +0.066 C 
ENDBRANCH  21  22
ENDBRANCH  20  21
ENDBRANCH   4  20
TORSDOF 6
