REMARK  Name = ZINC22386139
REMARK  9 active torsions:
REMARK  status: ('A' for Active; 'I' for Inactive)
REMARK    1  A    between atoms: C_1  and  S_2
REMARK    2  A    between atoms: S_2  and  C_3
REMARK    3  A    between atoms: C_6  and  S_9
REMARK    4  A    between atoms: S_9  and  N_12
REMARK    5  A    between atoms: N_12  and  C_13
REMARK    6  A    between atoms: N_12  and  C_23
REMARK    7  A    between atoms: C_13  and  C_14
REMARK    8  A    between atoms: N_16  and  C_17
REMARK    9  A    between atoms: C_17  and  C_18
REMARK                            x       y       z     vdW  Elec       q    Type
REMARK                         _______ _______ _______ _____ _____    ______ ____
ROOT
ATOM      1  N   UNL     1      -3.601   1.770   0.018  0.00  0.00    -0.194 N 
ENDROOT
BRANCH   1   2
ATOM      2  C   UNL     1      -4.057   2.281   1.235  0.00  0.00    +0.055 A 
ATOM      3  C   UNL     1      -3.174   2.443   2.296  0.00  0.00    +0.025 A 
ATOM      4  C   UNL     1      -3.627   2.949   3.499  0.00  0.00    +0.005 A 
ATOM      5  C   UNL     1      -4.957   3.296   3.649  0.00  0.00    +0.038 A 
ATOM      6  C   UNL     1      -5.840   3.137   2.594  0.00  0.00    +0.125 A 
ATOM      7  C   UNL     1      -5.391   2.635   1.385  0.00  0.00    +0.063 A 
ATOM      8  F   UNL     1      -7.138   3.477   2.743  0.00  0.00    -0.205 F 
ENDBRANCH   1   2
BRANCH   1   9
ATOM      9  S   UNL     1      -3.784   2.652  -1.371  0.00  0.00    +0.075 S 
ATOM     10  O   UNL     1      -4.028   3.994  -0.972  0.00  0.00    -0.150 OA
ATOM     11  O   UNL     1      -2.704   2.295  -2.224  0.00  0.00    -0.150 OA
BRANCH   9  15
ATOM     12  C   UNL     1      -7.565   1.196  -3.395  0.00  0.00    +0.008 A 
ATOM     13  C   UNL     1      -7.602   2.316  -2.573  0.00  0.00    +0.016 A 
ATOM     14  C   UNL     1      -6.447   2.757  -1.958  0.00  0.00    +0.030 A 
ATOM     15  C   UNL     1      -5.255   2.085  -2.159  0.00  0.00    +0.109 A 
ATOM     16  C   UNL     1      -5.213   0.974  -2.980  0.00  0.00    +0.030 A 
ATOM     17  C   UNL     1      -6.365   0.524  -3.595  0.00  0.00    +0.016 A 
BRANCH  12  19
ATOM     18  C   UNL     1      -8.498  -0.823  -5.126  0.00  0.00    +0.090 C 
ATOM     19  S   UNL     1      -9.036   0.629  -4.182  0.00  0.00    -0.129 S 
ENDBRANCH  12  19
ENDBRANCH   9  15
ENDBRANCH   1   9
BRANCH   1  20
ATOM     20  C   UNL     1      -2.962   0.453  -0.029  0.00  0.00    +0.227 C 
BRANCH  20  21
ATOM     21  C   UNL     1      -1.497   0.593   0.295  0.00  0.00    +0.233 C 
ATOM     22  O   UNL     1      -1.032   1.686   0.541  0.00  0.00    -0.274 OA
ATOM     23  N   UNL     1      -0.702  -0.495   0.311  0.00  0.00    -0.307 N 
ATOM     24  H   UNL     1      -1.124  -1.487   0.092  0.00  0.00    +0.149 HD
BRANCH  23  25
ATOM     25  C   UNL     1       0.723  -0.358   0.620  0.00  0.00    +0.178 C 
BRANCH  25  26
ATOM     26  C   UNL     1       1.382  -1.712   0.566  0.00  0.00    +0.122 A 
ATOM     27  C   UNL     1       1.941  -2.272  -0.522  0.00  0.00    +0.046 A 
ATOM     28  C   UNL     1       2.435  -3.535  -0.124  0.00  0.00    +0.041 A 
ATOM     29  C   UNL     1       2.148  -3.672   1.183  0.00  0.00    +0.195 A 
ATOM     30  O   UNL     1       1.515  -2.562   1.597  0.00  0.00    -0.466 OA
ENDBRANCH  25  26
ENDBRANCH  23  25
ENDBRANCH  20  21
ENDBRANCH   1  20
TORSDOF 8
