REMARK  Name = ZINC36591771
REMARK  14 active torsions:
REMARK  status: ('A' for Active; 'I' for Inactive)
REMARK    1  A    between atoms: C_1  and  C_2
REMARK    2  A    between atoms: C_2  and  C_3
REMARK    3  A    between atoms: C_2  and  C_4
REMARK    4  A    between atoms: C_2  and  N_5
REMARK    5  A    between atoms: N_5  and  C_6
REMARK    6  A    between atoms: C_6  and  C_8
REMARK    7  A    between atoms: C_6  and  C_18
REMARK    8  A    between atoms: C_11  and  O_16
REMARK    9  A    between atoms: C_12  and  O_14
REMARK   10  A    between atoms: O_14  and  C_15
REMARK   11  A    between atoms: O_16  and  C_17
REMARK   12  A    between atoms: N_20  and  C_21
REMARK   13  A    between atoms: C_27  and  C_29
REMARK   14  A    between atoms: C_33  and  N_35
REMARK                            x       y       z     vdW  Elec       q    Type
REMARK                         _______ _______ _______ _____ _____    ______ ____
ROOT
ATOM      1  C   UNL     1       1.343  -1.518   0.266  0.00  0.00    +0.193 C 
ENDROOT
BRANCH   1   2
ATOM      2  C   UNL     1       1.677  -2.814   0.958  0.00  0.00    -0.014 A 
ATOM      3  C   UNL     1       0.674  -3.553   1.558  0.00  0.00    +0.010 A 
ATOM      4  C   UNL     1       0.976  -4.743   2.195  0.00  0.00    +0.050 A 
ATOM      5  C   UNL     1       2.284  -5.197   2.232  0.00  0.00    +0.162 A 
ATOM      6  C   UNL     1       3.293  -4.453   1.628  0.00  0.00    +0.162 A 
ATOM      7  C   UNL     1       2.984  -3.264   0.987  0.00  0.00    +0.055 A 
BRANCH   6   8
ATOM      8  O   UNL     1       4.579  -4.894   1.662  0.00  0.00    -0.491 OA
ATOM      9  C   UNL     1       5.562  -4.079   1.021  0.00  0.00    +0.277 C 
ENDBRANCH   6   8
BRANCH   5  10
ATOM     10  O   UNL     1       2.582  -6.367   2.858  0.00  0.00    -0.491 OA
ATOM     11  C   UNL     1       1.496  -7.077   3.457  0.00  0.00    +0.277 C 
ENDBRANCH   5  10
ENDBRANCH   1   2
BRANCH   1  12
ATOM     12  C   UNL     1       1.457  -0.380   1.247  0.00  0.00    +0.238 C 
ATOM     13  O   UNL     1       0.498   0.329   1.468  0.00  0.00    -0.273 OA
ATOM     14  N   UNL     1       2.625  -0.150   1.880  0.00  0.00    -0.311 N 
ATOM     15  H   UNL     1       3.392  -0.717   1.703  0.00  0.00    +0.149 HD
BRANCH  14  16
ATOM     16  C   UNL     1       2.736   0.957   2.834  0.00  0.00    +0.073 C 
ATOM     17  C   UNL     1       3.058   2.249   2.081  0.00  0.00    +0.022 C 
ATOM     18  C   UNL     1       3.173   3.404   3.078  0.00  0.00    +0.002 C 
ATOM     19  C   UNL     1       4.291   3.105   4.078  0.00  0.00    +0.000 C 
ATOM     20  C   UNL     1       3.969   1.812   4.831  0.00  0.00    +0.002 C 
ATOM     21  C   UNL     1       3.854   0.657   3.834  0.00  0.00    +0.022 C 
ENDBRANCH  14  16
ENDBRANCH   1  12
BRANCH   1  22
ATOM     22  N   UNL     1      -0.025  -1.579  -0.254  0.00  0.00    -0.277 N 
ATOM     23  C   UNL     1      -1.042  -1.918   0.564  0.00  0.00    +0.248 C 
ATOM     24  O   UNL     1      -0.975  -1.667   1.752  0.00  0.00    -0.270 OA
BRANCH  23  25
ATOM     25  C   UNL     1      -2.237  -2.594   0.017  0.00  0.00    +0.039 A 
ATOM     26  C   UNL     1      -2.422  -2.682  -1.364  0.00  0.00    +0.013 A 
ATOM     27  C   UNL     1      -3.539  -3.315  -1.868  0.00  0.00    +0.003 A 
ATOM     28  C   UNL     1      -4.476  -3.861  -1.008  0.00  0.00    +0.033 A 
ATOM     29  C   UNL     1      -4.299  -3.777   0.361  0.00  0.00    +0.127 A 
ATOM     30  C   UNL     1      -3.182  -3.152   0.879  0.00  0.00    +0.045 A 
BRANCH  29  31
ATOM     31  N   UNL     1      -5.306  -4.364   1.274  0.00  0.00    +0.056 N 
ATOM     32  O   UNL     1      -6.282  -4.916   0.822  0.00  0.00    -0.126 OA
ATOM     33  O   UNL     1      -5.152  -4.291   2.471  0.00  0.00    -0.126 OA
ENDBRANCH  29  31
ENDBRANCH  23  25
BRANCH  22  35
ATOM     34  C   UNL     1       0.754  -0.277  -2.171  0.00  0.00    +0.031 C 
ATOM     35  C   UNL     1      -0.289  -1.273  -1.662  0.00  0.00    +0.030 C 
ATOM     36  C   UNL     1      -1.686  -0.663  -1.798  0.00  0.00    +0.031 C 
ATOM     37  C   UNL     1      -0.212  -2.560  -2.486  0.00  0.00    +0.031 C 
ENDBRANCH  22  35
ENDBRANCH   1  22
TORSDOF 9
