REMARK  Name = ZINC63362461
REMARK  11 active torsions:
REMARK  status: ('A' for Active; 'I' for Inactive)
REMARK    1  A    between atoms: C_1  and  C_2
REMARK    2  A    between atoms: C_2  and  C_3
REMARK    3  A    between atoms: C_3  and  C_4
REMARK    4  A    between atoms: C_4  and  C_5
REMARK    5  A    between atoms: C_5  and  C_7
REMARK    6  A    between atoms: C_5  and  C_9
REMARK    7  A    between atoms: C_7  and  C_8
REMARK    8  A    between atoms: C_9  and  N_10
REMARK    9  A    between atoms: C_11  and  C_13
REMARK   10  A    between atoms: C_18  and  N_19
REMARK   11  A    between atoms: C_22  and  C_38
REMARK                            x       y       z     vdW  Elec       q    Type
REMARK                         _______ _______ _______ _____ _____    ______ ____
ROOT
ATOM      1  N   UNL     1      -5.135  -8.597  -0.216  0.00  0.00    -0.192 N 
ATOM      2  C   UNL     1      -4.641  -9.107   0.930  0.00  0.00    +0.253 C 
ATOM      3  O   UNL     1      -4.993  -8.843   2.060  0.00  0.00    -0.272 OA
ATOM      4  C   UNL     1      -3.558 -10.079   0.515  0.00  0.00    +0.137 C 
ATOM      5  C   UNL     1      -2.203  -9.625   1.070  0.00  0.00    +0.139 C 
ATOM      6  C   UNL     1      -1.138 -10.282   0.200  0.00  0.00    -0.034 C 
ATOM      7  C   UNL     1      -0.369 -10.991   1.021  0.00  0.00    -0.001 A 
ATOM      8  C   UNL     1       0.845 -11.788   0.779  0.00  0.00    +0.010 A 
ATOM      9  C   UNL     1       1.383 -12.404   1.864  0.00  0.00    +0.001 A 
ATOM     10  C   UNL     1       0.842 -12.309   3.150  0.00  0.00    +0.002 A 
ATOM     11  C   UNL     1      -0.269 -11.595   3.464  0.00  0.00    +0.026 A 
ATOM     12  C   UNL     1      -0.922 -10.898   2.406  0.00  0.00    +0.043 A 
ATOM     13  N   UNL     1      -1.986 -10.130   2.428  0.00  0.00    -0.375 N 
ATOM     14  C   UNL     1      -1.097 -10.146  -1.303  0.00  0.00    +0.052 C 
ATOM     15  C   UNL     1      -2.496 -10.522  -1.832  0.00  0.00    +0.115 C 
ATOM     16  N   UNL     1      -3.498  -9.909  -0.955  0.00  0.00    -0.268 N 
ATOM     17  C   UNL     1      -4.498  -9.085  -1.289  0.00  0.00    +0.317 C 
ATOM     18  O   UNL     1      -4.793  -8.807  -2.435  0.00  0.00    -0.252 OA
ATOM     19  C   UNL     1      -3.896 -11.517   0.913  0.00  0.00    +0.044 C 
ATOM     20  H   UNL     1      -2.537  -9.931   3.202  0.00  0.00    +0.160 HD
ENDROOT
BRANCH   1  26
ATOM     21  C   UNL     1      -5.920  -6.302  -0.251  0.00  0.00    +0.059 A 
ATOM     22  C   UNL     1      -6.978  -5.394  -0.318  0.00  0.00    +0.015 A 
ATOM     23  C   UNL     1      -8.274  -5.853  -0.405  0.00  0.00    +0.001 A 
ATOM     24  C   UNL     1      -8.534  -7.214  -0.426  0.00  0.00    +0.002 A 
ATOM     25  C   UNL     1      -7.497  -8.124  -0.360  0.00  0.00    +0.025 A 
ATOM     26  C   UNL     1      -6.185  -7.679  -0.278  0.00  0.00    +0.058 A 
BRANCH  21  28
ATOM     27  N   UNL     1      -4.278  -4.492  -0.132  0.00  0.00    -0.311 N 
ATOM     28  C   UNL     1      -4.529  -5.816  -0.158  0.00  0.00    +0.246 C 
ATOM     29  O   UNL     1      -3.610  -6.611  -0.104  0.00  0.00    -0.270 OA
ATOM     30  H   UNL     1      -5.011  -3.859  -0.175  0.00  0.00    +0.149 HD
BRANCH  27  31
ATOM     31  C   UNL     1      -2.898  -4.010  -0.040  0.00  0.00    +0.108 C 
BRANCH  31  32
ATOM     32  C   UNL     1      -2.892  -2.480  -0.029  0.00  0.00    +0.006 C 
BRANCH  32  33
ATOM     33  C   UNL     1      -3.582  -1.977   1.241  0.00  0.00    +0.002 C 
ATOM     34  C   UNL     1      -3.705  -0.453   1.184  0.00  0.00    +0.004 C 
ENDBRANCH  32  33
BRANCH  32  35
ATOM     35  C   UNL     1      -1.448  -1.976  -0.058  0.00  0.00    +0.005 C 
BRANCH  35  36
ATOM     36  C   UNL     1      -0.801  -2.360  -1.391  0.00  0.00    +0.000 C 
BRANCH  36  38
ATOM     37  C   UNL     1       1.244  -2.127  -2.807  0.00  0.00    +0.004 C 
ATOM     38  C   UNL     1       0.597  -1.743  -1.475  0.00  0.00    -0.003 C 
ENDBRANCH  36  38
ENDBRANCH  35  36
ENDBRANCH  32  35
ENDBRANCH  31  32
ENDBRANCH  27  31
ENDBRANCH  21  28
ENDBRANCH   1  26
TORSDOF 8
