REMARK  Name = ZINC31057983
REMARK  10 active torsions:
REMARK  status: ('A' for Active; 'I' for Inactive)
REMARK    1  A    between atoms: C_1  and  C_2
REMARK    2  A    between atoms: C_7  and  C_8
REMARK    3  A    between atoms: C_8  and  C_10
REMARK    4  A    between atoms: C_8  and  N_13
REMARK    5  A    between atoms: C_10  and  C_11
REMARK    6  A    between atoms: C_10  and  C_12
REMARK    7  A    between atoms: C_14  and  C_16
REMARK    8  A    between atoms: N_21  and  C_23
REMARK    9  A    between atoms: C_23  and  C_24
REMARK   10  A    between atoms: C_26  and  C_29
REMARK                            x       y       z     vdW  Elec       q    Type
REMARK                         _______ _______ _______ _____ _____    ______ ____
ROOT
ATOM      1  C   UNL     1       6.702   0.950   1.958  0.00  0.00    +0.058 C 
ATOM      2  C   UNL     1       7.390   0.079   0.903  0.00  0.00    +0.009 C 
ATOM      3  C   UNL     1       8.466  -0.775   1.580  0.00  0.00    -0.018 C 
ATOM      4  C   UNL     1       9.463   0.141   2.292  0.00  0.00    -0.078 C 
ATOM      5  N   UNL     1       8.757   0.952   3.292  0.00  0.00    +0.386 N 
ATOM      6  C   UNL     1       7.751   1.816   2.660  0.00  0.00    -0.065 C 
ATOM      7  H   UNL     1       8.230   0.265   3.970  0.00  0.00    -0.081 HD
ENDROOT
BRANCH   1   9
ATOM      8  N   UNL     1       4.657   1.289   0.609  0.00  0.00    -0.308 N 
ATOM      9  C   UNL     1       5.682   1.836   1.292  0.00  0.00    +0.215 C 
ATOM     10  O   UNL     1       5.783   3.042   1.369  0.00  0.00    -0.276 OA
ATOM     11  H   UNL     1       4.565   0.195   0.538  0.00  0.00    +0.149 HD
BRANCH   8  12
ATOM     12  C   UNL     1       3.665   2.151  -0.039  0.00  0.00    +0.106 C 
BRANCH  12  19
ATOM     13  C   UNL     1       2.450   2.606   2.542  0.00  0.00    +0.044 C 
ATOM     14  C   UNL     1       1.700   1.844   1.480  0.00  0.00    -0.045 A 
ATOM     15  C   UNL     1       0.430   1.363   1.740  0.00  0.00    +0.004 A 
ATOM     16  C   UNL     1      -0.257   0.663   0.766  0.00  0.00    +0.000 A 
ATOM     17  C   UNL     1       0.325   0.445  -0.469  0.00  0.00    +0.000 A 
ATOM     18  C   UNL     1       1.594   0.926  -0.730  0.00  0.00    +0.006 A 
ATOM     19  C   UNL     1       2.282   1.626   0.245  0.00  0.00    -0.024 A 
ENDBRANCH  12  19
BRANCH  12  20
ATOM     20  C   UNL     1       3.907   2.160  -1.550  0.00  0.00    +0.008 C 
ATOM     21  C   UNL     1       2.953   3.156  -2.213  0.00  0.00    +0.009 C 
ATOM     22  C   UNL     1       5.353   2.573  -1.833  0.00  0.00    +0.009 C 
ENDBRANCH  12  20
ENDBRANCH   8  12
ENDBRANCH   1   9
BRANCH   5  23
ATOM     23  C   UNL     1       9.702   1.744   4.091  0.00  0.00    +0.022 C 
BRANCH  23  24
ATOM     24  C   UNL     1      10.852   0.869   4.519  0.00  0.00    +0.211 A 
ATOM     25  N   UNL     1      11.967   0.673   3.861  0.00  0.00    -0.192 NA
ATOM     26  C   UNL     1      12.696  -0.175   4.624  0.00  0.00    +0.209 A 
ATOM     27  N   UNL     1      11.980  -0.448   5.687  0.00  0.00    -0.056 NA
ATOM     28  O   UNL     1      10.923   0.143   5.640  0.00  0.00    -0.340 OA
BRANCH  26  29
ATOM     29  C   UNL     1      14.042  -0.699   4.313  0.00  0.00    +0.060 A 
ATOM     30  C   UNL     1      14.824  -1.555   5.042  0.00  0.00    +0.019 A 
ATOM     31  C   UNL     1      16.057  -1.911   4.545  0.00  0.00    +0.008 A 
ATOM     32  C   UNL     1      16.465  -1.396   3.355  0.00  0.00    +0.046 A 
ATOM     33  S   UNL     1      15.075  -0.375   2.894  0.00  0.00    -0.093 S 
ENDBRANCH  26  29
ENDBRANCH  23  24
ENDBRANCH   5  23
TORSDOF 7
