REMARK  Name = ZINC62221013
REMARK  12 active torsions:
REMARK  status: ('A' for Active; 'I' for Inactive)
REMARK    1  A    between atoms: C_1  and  C_2
REMARK    2  A    between atoms: C_7  and  C_8
REMARK    3  A    between atoms: C_10  and  C_14
REMARK    4  A    between atoms: C_11  and  C_13
REMARK    5  A    between atoms: C_14  and  C_15
REMARK    6  A    between atoms: C_19  and  C_31
REMARK    7  A    between atoms: N_21  and  C_26
REMARK    8  A    between atoms: C_22  and  C_25
REMARK    9  A    between atoms: C_26  and  C_27
REMARK   10  A    between atoms: C_27  and  C_28
REMARK   11  A    between atoms: C_28  and  O_29
REMARK   12  A    between atoms: O_29  and  C_30
REMARK                            x       y       z     vdW  Elec       q    Type
REMARK                         _______ _______ _______ _____ _____    ______ ____
ROOT
ATOM      1  C   UNL     1       2.016   0.843   6.281  0.00  0.00    +0.221 C 
ATOM      2  O   UNL     1       2.821   1.043   5.396  0.00  0.00    -0.275 OA
ATOM      3  N   UNL     1       2.434   0.723   7.556  0.00  0.00    -0.304 N 
ATOM      4  C   UNL     1       1.477   0.473   8.646  0.00  0.00    +0.092 C 
ATOM      5  C   UNL     1       1.734   1.492   9.761  0.00  0.00    -0.054 C 
ATOM      6  N   UNL     1       3.143   1.429  10.166  0.00  0.00    +0.385 N 
ATOM      7  C   UNL     1       4.004   1.840   9.050  0.00  0.00    -0.054 C 
ATOM      8  C   UNL     1       3.861   0.832   7.899  0.00  0.00    +0.092 C 
ATOM      9  C   UNL     1       5.461   1.877   9.515  0.00  0.00    -0.012 C 
ATOM     10  C   UNL     1       0.842   1.170  10.961  0.00  0.00    -0.012 C 
ATOM     11  H   UNL     1       3.372   0.484  10.435  0.00  0.00    -0.081 HD
ENDROOT
BRANCH   1  12
ATOM     12  C   UNL     1       0.550   0.727   5.954  0.00  0.00    +0.154 C 
BRANCH  12  15
ATOM     13  C   UNL     1       0.154   0.446   2.371  0.00  0.00    +0.228 A 
ATOM     14  N   UNL     1       0.361  -0.084   3.554  0.00  0.00    -0.213 NA
ATOM     15  C   UNL     1       0.351   0.897   4.470  0.00  0.00    +0.091 A 
ATOM     16  C   UNL     1       0.131   2.059   3.828  0.00  0.00    +0.126 A 
ATOM     17  O   UNL     1       0.014   1.775   2.516  0.00  0.00    -0.440 OA
ATOM     18  C   UNL     1       0.039   3.424   4.458  0.00  0.00    +0.088 C 
BRANCH  13  25
ATOM     19  C   UNL     1      -1.995   0.983   0.510  0.00  0.00    +0.044 C 
ATOM     20  C   UNL     1      -0.941  -0.044   0.188  0.00  0.00    -0.038 A 
ATOM     21  C   UNL     1      -0.991  -0.736  -1.005  0.00  0.00    +0.004 A 
ATOM     22  C   UNL     1      -0.024  -1.679  -1.302  0.00  0.00    +0.000 A 
ATOM     23  C   UNL     1       0.999  -1.937  -0.406  0.00  0.00    +0.001 A 
ATOM     24  C   UNL     1       1.060  -1.253   0.790  0.00  0.00    +0.013 A 
ATOM     25  C   UNL     1       0.091  -0.295   1.093  0.00  0.00    +0.040 A 
ENDBRANCH  13  25
ENDBRANCH  12  15
ENDBRANCH   1  12
BRANCH   6  26
ATOM     26  C   UNL     1       3.364   2.326  11.308  0.00  0.00    -0.076 C 
BRANCH  26  27
ATOM     27  C   UNL     1       2.943   3.748  10.928  0.00  0.00    +0.009 C 
BRANCH  27  28
ATOM     28  C   UNL     1       3.287   4.704  12.071  0.00  0.00    +0.157 C 
BRANCH  28  29
ATOM     29  O   UNL     1       2.895   6.032  11.716  0.00  0.00    -0.383 OA
ATOM     30  C   UNL     1       3.173   7.008  12.722  0.00  0.00    +0.193 C 
ENDBRANCH  28  29
ENDBRANCH  27  28
ENDBRANCH  26  27
ENDBRANCH   6  26
TORSDOF 7
