REMARK  Name = ZINC03227393
REMARK  7 active torsions:
REMARK  status: ('A' for Active; 'I' for Inactive)
REMARK    1  A    between atoms: C_1  and  C_2
REMARK    2  A    between atoms: C_5  and  C_8
REMARK    3  A    between atoms: C_12  and  C_26
REMARK    4  A    between atoms: C_15  and  C_16
REMARK    5  A    between atoms: C_16  and  N_18
REMARK    6  A    between atoms: N_18  and  C_19
REMARK    7  A    between atoms: C_24  and  C_25
REMARK                            x       y       z     vdW  Elec       q    Type
REMARK                         _______ _______ _______ _____ _____    ______ ____
ROOT
ATOM      1  C   UNL     1       3.626   1.206   0.679  0.00  0.00    +0.017 A 
ATOM      2  C   UNL     1       4.433   0.082   0.779  0.00  0.00    +0.005 A 
ATOM      3  C   UNL     1       3.620  -0.974   0.479  0.00  0.00    +0.141 A 
ATOM      4  N   UNL     1       3.693  -2.344   0.618  0.00  0.00    -0.309 N 
ATOM      5  C   UNL     1       2.543  -2.825   0.086  0.00  0.00    +0.163 A 
ATOM      6  N   UNL     1       1.752  -1.813  -0.227  0.00  0.00    -0.146 NA
ATOM      7  N   UNL     1       2.386  -0.608   0.110  0.00  0.00    -0.211 N 
ATOM      8  C   UNL     1       2.350   0.765   0.258  0.00  0.00    +0.104 A 
ATOM      9  C   UNL     1       4.860  -2.893   1.308  0.00  0.00    +0.125 C 
ATOM     10  C   UNL     1       6.128  -2.648   0.514  0.00  0.00    +0.022 C 
ATOM     11  C   UNL     1       6.387  -1.193   0.096  0.00  0.00    +0.006 C 
ATOM     12  C   UNL     1       5.909  -0.108   1.073  0.00  0.00    +0.039 C 
ENDROOT
BRANCH   1  17
ATOM     13  C   UNL     1       5.176   6.639   1.788  0.00  0.00    +0.044 C 
ATOM     14  C   UNL     1       4.770   5.217   1.498  0.00  0.00    -0.050 A 
ATOM     15  C   UNL     1       3.818   4.598   2.287  0.00  0.00    +0.004 A 
ATOM     16  C   UNL     1       3.442   3.296   2.027  0.00  0.00    +0.009 A 
ATOM     17  C   UNL     1       4.025   2.604   0.965  0.00  0.00    -0.015 A 
ATOM     18  C   UNL     1       4.988   3.232   0.176  0.00  0.00    +0.009 A 
ATOM     19  C   UNL     1       5.351   4.536   0.443  0.00  0.00    +0.004 A 
ENDBRANCH   1  17
BRANCH   5  20
ATOM     20  C   UNL     1       2.223  -4.256  -0.113  0.00  0.00    +0.019 A 
ATOM     21  C   UNL     1       3.240  -5.210  -0.095  0.00  0.00    +0.011 A 
ATOM     22  C   UNL     1       2.935  -6.543  -0.276  0.00  0.00    +0.001 A 
ATOM     23  C   UNL     1       1.625  -6.934  -0.487  0.00  0.00    +0.000 A 
ATOM     24  C   UNL     1       0.612  -5.992  -0.511  0.00  0.00    +0.001 A 
ATOM     25  C   UNL     1       0.904  -4.656  -0.326  0.00  0.00    +0.011 A 
ENDBRANCH   5  20
BRANCH   8  26
ATOM     26  C   UNL     1       1.230   1.589   0.022  0.00  0.00    +0.103 C 
ATOM     27  S   UNL     1       1.350   3.281   0.251  0.00  0.00    -0.033 S 
BRANCH  26  28
ATOM     28  N   UNL     1       0.066   1.045  -0.384  0.00  0.00    -0.307 N 
ATOM     29  H   UNL     1       0.015   0.095  -0.574  0.00  0.00    +0.153 HD
BRANCH  28  30
ATOM     30  C   UNL     1      -1.066   1.850  -0.538  0.00  0.00    +0.035 A 
ATOM     31  C   UNL     1      -0.973   3.059  -1.215  0.00  0.00    +0.023 A 
ATOM     32  C   UNL     1      -2.095   3.850  -1.370  0.00  0.00    +0.002 A 
ATOM     33  C   UNL     1      -3.307   3.444  -0.842  0.00  0.00    +0.000 A 
ATOM     34  C   UNL     1      -3.401   2.243  -0.163  0.00  0.00    +0.005 A 
ATOM     35  C   UNL     1      -2.285   1.445  -0.009  0.00  0.00    -0.029 A 
ATOM     36  C   UNL     1      -2.388   0.137   0.732  0.00  0.00    +0.045 C 
ENDBRANCH  28  30
ENDBRANCH  26  28
ENDBRANCH   8  26
TORSDOF 5
