REMARK  Name = ZINC20895469
REMARK  9 active torsions:
REMARK  status: ('A' for Active; 'I' for Inactive)
REMARK    1  A    between atoms: C_1  and  C_2
REMARK    2  A    between atoms: C_4  and  C_34
REMARK    3  A    between atoms: C_5  and  C_9
REMARK    4  A    between atoms: C_7  and  C_8
REMARK    5  A    between atoms: C_15  and  C_17
REMARK    6  A    between atoms: C_17  and  N_18
REMARK    7  A    between atoms: C_23  and  C_30
REMARK    8  A    between atoms: C_26  and  C_28
REMARK    9  A    between atoms: C_26  and  C_29
REMARK                            x       y       z     vdW  Elec       q    Type
REMARK                         _______ _______ _______ _____ _____    ______ ____
ROOT
ATOM      1  C   UNL     1      -0.849   2.654   0.520  0.00  0.00    +0.080 A 
ATOM      2  C   UNL     1      -2.019   1.961   0.656  0.00  0.00    +0.076 A 
ATOM      3  S   UNL     1      -3.167   3.302   0.939  0.00  0.00    -0.060 S 
ATOM      4  C   UNL     1      -1.981   4.636   0.839  0.00  0.00    +0.165 A 
ATOM      5  N   UNL     1      -0.861   3.975   0.613  0.00  0.00    -0.225 NA
ATOM      6  N   UNL     1      -2.184   6.005   0.966  0.00  0.00    -0.263 N 
ATOM      7  C   UNL     1      -3.422   6.483   1.198  0.00  0.00    +0.237 C 
ATOM      8  O   UNL     1      -4.359   5.720   1.296  0.00  0.00    -0.274 OA
ATOM      9  H   UNL     1      -1.334   6.697   0.877  0.00  0.00    +0.157 HD
ENDROOT
BRANCH   1  14
ATOM     10  C   UNL     1       4.083  -0.145  -0.485  0.00  0.00    +0.044 C 
ATOM     11  C   UNL     1       2.793   0.588  -0.220  0.00  0.00    -0.047 A 
ATOM     12  C   UNL     1       2.762   1.970  -0.271  0.00  0.00    +0.007 A 
ATOM     13  C   UNL     1       1.584   2.646  -0.029  0.00  0.00    -0.041 A 
ATOM     14  C   UNL     1       0.423   1.933   0.266  0.00  0.00    +0.004 A 
ATOM     15  C   UNL     1       0.459   0.541   0.315  0.00  0.00    +0.014 A 
ATOM     16  C   UNL     1       1.644  -0.124   0.072  0.00  0.00    -0.047 A 
ATOM     17  C   UNL     1       1.685  -1.630   0.125  0.00  0.00    +0.044 C 
ATOM     18  C   UNL     1       1.552   4.152  -0.085  0.00  0.00    +0.044 C 
ENDBRANCH   1  14
BRANCH   7  19
ATOM     19  C   UNL     1      -3.643   7.968   1.336  0.00  0.00    +0.214 C 
BRANCH  19  20
ATOM     20  N   UNL     1      -5.063   8.230   1.583  0.00  0.00    -0.215 N 
ATOM     21  C   UNL     1      -5.974   8.447   0.612  0.00  0.00    +0.247 C 
ATOM     22  O   UNL     1      -5.781   8.461  -0.585  0.00  0.00    -0.273 OA
ATOM     23  C   UNL     1      -7.285   8.666   1.330  0.00  0.00    +0.113 C 
ATOM     24  C   UNL     1      -8.299   7.597   0.936  0.00  0.00    +0.038 C 
ATOM     25  C   UNL     1      -9.605   7.823   1.701  0.00  0.00    -0.011 C 
ATOM     26  C   UNL     1     -10.152   9.214   1.374  0.00  0.00    +0.009 C 
ATOM     27  C   UNL     1      -9.134  10.277   1.795  0.00  0.00    -0.032 C 
ATOM     28  C   UNL     1      -7.826  10.059   1.029  0.00  0.00    +0.041 C 
ATOM     29  C   UNL     1      -8.870  10.164   3.298  0.00  0.00    +0.011 C 
ATOM     30  C   UNL     1      -9.687  11.667   1.476  0.00  0.00    +0.011 C 
ATOM     31  C   UNL     1     -10.628   6.763   1.289  0.00  0.00    +0.007 C 
ATOM     32  N   UNL     1      -6.938   8.545   2.752  0.00  0.00    -0.285 N 
ATOM     33  C   UNL     1      -5.616   8.290   2.800  0.00  0.00    +0.310 C 
ATOM     34  O   UNL     1      -4.996   8.131   3.833  0.00  0.00    -0.252 OA
ATOM     35  H   UNL     1      -7.716   8.665   3.520  0.00  0.00    +0.151 HD
ENDBRANCH  19  20
ENDBRANCH   7  19
TORSDOF 3
