REMARK  Name = ZINC33810457
REMARK  10 active torsions:
REMARK  status: ('A' for Active; 'I' for Inactive)
REMARK    1  A    between atoms: C_1  and  C_2
REMARK    2  A    between atoms: C_2  and  C_3
REMARK    3  A    between atoms: C_2  and  S_4
REMARK    4  A    between atoms: S_4  and  C_5
REMARK    5  A    between atoms: C_12  and  C_24
REMARK    6  A    between atoms: C_18  and  C_22
REMARK    7  A    between atoms: C_18  and  C_23
REMARK    8  A    between atoms: C_27  and  O_31
REMARK    9  A    between atoms: C_28  and  O_30
REMARK   10  A    between atoms: O_31  and  C_32
REMARK                            x       y       z     vdW  Elec       q    Type
REMARK                         _______ _______ _______ _____ _____    ______ ____
ROOT
ATOM      1  C   UNL     1       5.804   3.432  -1.188  0.00  0.00    +0.171 A 
ATOM      2  N   UNL     1       4.659   4.059  -0.799  0.00  0.00    -0.208 NA
ATOM      3  C   UNL     1       3.571   3.322  -0.410  0.00  0.00    +0.135 A 
ATOM      4  C   UNL     1       3.649   1.965  -0.414  0.00  0.00    +0.069 A 
ATOM      5  C   UNL     1       4.853   1.353  -0.826  0.00  0.00    +0.258 A 
ATOM      6  O   UNL     1       4.950   0.135  -0.843  0.00  0.00    -0.267 OA
ATOM      7  N   UNL     1       5.892   2.118  -1.198  0.00  0.00    -0.302 N 
ATOM      8  C   UNL     1       2.482   1.123   0.011  0.00  0.00    +0.093 C 
ATOM      9  C   UNL     1       1.201   1.917   0.001  0.00  0.00    +0.024 C 
ATOM     10  C   UNL     1       1.221   3.267  -0.012  0.00  0.00    +0.017 C 
ATOM     11  N   UNL     1       2.409   3.947  -0.021  0.00  0.00    -0.302 N 
ATOM     12  C   UNL     1      -0.061   4.064  -0.022  0.00  0.00    +0.058 C 
ATOM     13  C   UNL     1      -1.154   3.287   0.716  0.00  0.00    -0.023 C 
ATOM     14  C   UNL     1      -1.335   1.931   0.019  0.00  0.00    +0.086 C 
ATOM     15  C   UNL     1      -0.014   1.211   0.009  0.00  0.00    +0.162 C 
ATOM     16  O   UNL     1       0.002  -0.004   0.002  0.00  0.00    -0.292 OA
ATOM     17  C   UNL     1      -0.738   3.071   2.172  0.00  0.00    +0.011 C 
ATOM     18  C   UNL     1      -2.466   4.073   0.666  0.00  0.00    +0.011 C 
ATOM     19  H   UNL     1       2.429   5.003   0.287  0.00  0.00    +0.153 HD
ATOM     20  H   UNL     1       6.826   1.631  -1.515  0.00  0.00    +0.171 HD
ENDROOT
BRANCH   8  21
ATOM     21  C   UNL     1       2.731   0.604   1.403  0.00  0.00    -0.032 A 
ATOM     22  C   UNL     1       2.873   1.491   2.454  0.00  0.00    +0.008 A 
ATOM     23  C   UNL     1       3.101   1.021   3.734  0.00  0.00    +0.050 A 
ATOM     24  C   UNL     1       3.188  -0.343   3.966  0.00  0.00    +0.161 A 
ATOM     25  C   UNL     1       3.045  -1.236   2.908  0.00  0.00    +0.159 A 
ATOM     26  C   UNL     1       2.811  -0.757   1.629  0.00  0.00    +0.053 A 
BRANCH  25  27
ATOM     27  O   UNL     1       3.130  -2.575   3.130  0.00  0.00    -0.503 OA
ATOM     28  H   UNL     1       3.017  -3.279   2.293  0.00  0.00    +0.292 HD
ENDBRANCH  25  27
BRANCH  24  29
ATOM     29  O   UNL     1       3.413  -0.807   5.224  0.00  0.00    -0.491 OA
ATOM     30  C   UNL     1       3.550   0.167   6.260  0.00  0.00    +0.277 C 
ENDBRANCH  24  29
ENDBRANCH   8  21
BRANCH   1  31
ATOM     31  S   UNL     1       7.193   4.396  -1.684  0.00  0.00    -0.085 S 
BRANCH  31  33
ATOM     32  C   UNL     1       9.645   3.686  -2.656  0.00  0.00    +0.019 C 
ATOM     33  C   UNL     1       8.369   3.076  -2.072  0.00  0.00    +0.048 C 
ATOM     34  C   UNL     1       8.711   2.305  -0.795  0.00  0.00    +0.019 C 
ENDBRANCH  31  33
ENDBRANCH   1  31
TORSDOF 5
