REMARK  Name = ZINC08066796
REMARK  6 active torsions:
REMARK  status: ('A' for Active; 'I' for Inactive)
REMARK    1  A    between atoms: C_4  and  C_7
REMARK    2  A    between atoms: C_7  and  C_9
REMARK    3  A    between atoms: C_7  and  N_14
REMARK    4  A    between atoms: C_15  and  C_17
REMARK    5  A    between atoms: C_17  and  S_18
REMARK    6  A    between atoms: S_18  and  C_19
REMARK                            x       y       z     vdW  Elec       q    Type
REMARK                         _______ _______ _______ _____ _____    ______ ____
ROOT
ATOM      1  N   UNL     1      -1.329   6.729   0.052  0.00  0.00    -0.303 N 
ATOM      2  C   UNL     1      -0.202   5.990   0.037  0.00  0.00    +0.224 C 
ATOM      3  O   UNL     1       0.881   6.536   0.029  0.00  0.00    -0.275 OA
ATOM      4  H   UNL     1      -2.195   6.292   0.059  0.00  0.00    +0.150 HD
ENDROOT
BRANCH   1   5
ATOM      5  C   UNL     1      -1.246   8.191   0.059  0.00  0.00    +0.140 C 
BRANCH   5   9
ATOM      6  C   UNL     1      -4.826   9.828  -1.599  0.00  0.00    +0.000 A 
ATOM      7  C   UNL     1      -3.602  10.396  -1.900  0.00  0.00    +0.000 A 
ATOM      8  C   UNL     1      -2.444   9.866  -1.364  0.00  0.00    +0.006 A 
ATOM      9  C   UNL     1      -2.509   8.769  -0.525  0.00  0.00    -0.022 A 
ATOM     10  C   UNL     1      -3.732   8.198  -0.228  0.00  0.00    +0.006 A 
ATOM     11  C   UNL     1      -4.891   8.731  -0.761  0.00  0.00    +0.000 A 
ENDBRANCH   5   9
BRANCH   5  12
ATOM     12  C   UNL     1      -1.080   8.678   1.476  0.00  0.00    +0.014 A 
ATOM     13  C   UNL     1      -0.292   9.675   1.949  0.00  0.00    +0.013 A 
ATOM     14  C   UNL     1      -0.303   9.952   3.303  0.00  0.00    +0.008 A 
ATOM     15  C   UNL     1      -1.094   9.213   4.119  0.00  0.00    +0.045 A 
ATOM     16  S   UNL     1      -1.863   8.087   2.967  0.00  0.00    -0.099 S 
ENDBRANCH   5  12
ENDBRANCH   1   5
BRANCH   2  17
ATOM     17  C   UNL     1      -0.287   4.485   0.030  0.00  0.00    +0.172 C 
BRANCH  17  18
ATOM     18  S   UNL     1       1.386   3.785   0.009  0.00  0.00    -0.088 S 
BRANCH  18  19
ATOM     19  C   UNL     1       1.119   2.043   0.002  0.00  0.00    +0.160 A 
ATOM     20  N   UNL     1      -0.017   1.371   0.010  0.00  0.00    -0.133 NA
ATOM     21  N   UNL     1       0.002  -0.004   0.002  0.00  0.00    -0.125 NA
ATOM     22  C   UNL     1       1.154  -0.645  -0.012  0.00  0.00    +0.180 A 
ATOM     23  S   UNL     1       2.313   0.715  -0.016  0.00  0.00    -0.025 S 
ATOM     24  N   UNL     1       1.402  -2.013  -0.022  0.00  0.00    -0.336 N 
ATOM     25  H   UNL     1       0.661  -2.639  -0.018  0.00  0.00    +0.144 HD
ATOM     26  H   UNL     1       2.314  -2.340  -0.033  0.00  0.00    +0.144 HD
ENDBRANCH  18  19
ENDBRANCH  17  18
ENDBRANCH   2  17
TORSDOF 6
