REMARK  Name = ZINC02601190
REMARK  7 active torsions:
REMARK  status: ('A' for Active; 'I' for Inactive)
REMARK    1  A    between atoms: C_4  and  C_7
REMARK    2  A    between atoms: N_9  and  C_10
REMARK    3  A    between atoms: C_15  and  O_17
REMARK    4  A    between atoms: O_17  and  C_18
REMARK    5  A    between atoms: C_18  and  C_20
REMARK    6  A    between atoms: C_20  and  C_21
REMARK    7  A    between atoms: C_21  and  N_22
REMARK                            x       y       z     vdW  Elec       q    Type
REMARK                         _______ _______ _______ _____ _____    ______ ____
ROOT
ATOM      1  O   UNL     1      -2.386   3.340   1.858  0.00  0.00    -0.459 OA
ENDROOT
BRANCH   1   6
ATOM      2  C   UNL     1      -0.794   1.613   1.228  0.00  0.00    +0.124 C 
ATOM      3  C   UNL     1      -0.013   1.086   0.008  0.00  0.00    +0.095 C 
ATOM      4  S   UNL     1      -0.974   1.731  -1.424  0.00  0.00    -0.155 S 
ATOM      5  C   UNL     1      -1.934   3.032  -0.533  0.00  0.00    +0.115 C 
ATOM      6  C   UNL     1      -2.089   2.339   0.850  0.00  0.00    +0.207 C 
BRANCH   2   9
ATOM      7  C   UNL     1      -0.242   0.066   3.028  0.00  0.00    +0.244 C 
ATOM      8  O   UNL     1       0.828   0.631   3.146  0.00  0.00    -0.270 OA
ATOM      9  N   UNL     1      -1.125   0.481   2.098  0.00  0.00    -0.304 N 
ATOM     10  H   UNL     1      -1.979   0.031   2.004  0.00  0.00    +0.149 HD
BRANCH   7  14
ATOM     11  C   UNL     1      -1.202  -3.214   5.551  0.00  0.00    +0.000 A 
ATOM     12  C   UNL     1       0.017  -2.573   5.687  0.00  0.00    +0.001 A 
ATOM     13  C   UNL     1       0.335  -1.508   4.871  0.00  0.00    +0.013 A 
ATOM     14  C   UNL     1      -0.576  -1.075   3.906  0.00  0.00    +0.037 A 
ATOM     15  C   UNL     1      -1.806  -1.722   3.778  0.00  0.00    +0.013 A 
ATOM     16  C   UNL     1      -2.110  -2.790   4.596  0.00  0.00    +0.001 A 
ENDBRANCH   7  14
ENDBRANCH   2   9
ENDBRANCH   1   6
BRANCH   1  17
ATOM     17  C   UNL     1      -3.682   3.595   2.100  0.00  0.00    +0.309 C 
ATOM     18  O   UNL     1      -4.539   3.001   1.490  0.00  0.00    -0.251 OA
BRANCH  17  19
ATOM     19  C   UNL     1      -4.067   4.621   3.134  0.00  0.00    +0.140 C 
BRANCH  19  20
ATOM     20  C   UNL     1      -5.592   4.718   3.213  0.00  0.00    +0.128 C 
BRANCH  20  21
ATOM     21  N   UNL     1      -5.967   5.716   4.218  0.00  0.00    -0.234 N 
ATOM     22  C   UNL     1      -6.177   5.444   5.519  0.00  0.00    +0.254 C 
ATOM     23  O   UNL     1      -6.086   4.351   6.038  0.00  0.00    -0.270 OA
ATOM     24  C   UNL     1      -6.533   6.701   6.210  0.00  0.00    +0.049 A 
ATOM     25  C   UNL     1      -6.847   7.030   7.519  0.00  0.00    +0.014 A 
ATOM     26  C   UNL     1      -7.147   8.344   7.845  0.00  0.00    +0.001 A 
ATOM     27  C   UNL     1      -7.135   9.327   6.873  0.00  0.00    +0.001 A 
ATOM     28  C   UNL     1      -6.822   9.013   5.560  0.00  0.00    +0.014 A 
ATOM     29  C   UNL     1      -6.520   7.704   5.220  0.00  0.00    +0.049 A 
ATOM     30  C   UNL     1      -6.152   7.023   3.960  0.00  0.00    +0.254 C 
ATOM     31  O   UNL     1      -6.036   7.555   2.874  0.00  0.00    -0.270 OA
ENDBRANCH  20  21
ENDBRANCH  19  20
ENDBRANCH  17  19
ENDBRANCH   1  17
TORSDOF 7
