REMARK  Name = ZINC08996830
REMARK  8 active torsions:
REMARK  status: ('A' for Active; 'I' for Inactive)
REMARK    1  A    between atoms: C_1  and  S_2
REMARK    2  A    between atoms: S_2  and  C_3
REMARK    3  A    between atoms: C_3  and  C_4
REMARK    4  A    between atoms: C_4  and  C_5
REMARK    5  A    between atoms: C_5  and  C_7
REMARK    6  A    between atoms: C_5  and  N_23
REMARK    7  A    between atoms: C_24  and  C_26
REMARK    8  A    between atoms: C_26  and  C_27
REMARK                            x       y       z     vdW  Elec       q    Type
REMARK                         _______ _______ _______ _____ _____    ______ ____
ROOT
ATOM      1  C   UNL     1       1.728   7.296   3.258  0.00  0.00    +0.236 C 
ATOM      2  O   UNL     1       1.878   7.976   2.265  0.00  0.00    -0.274 OA
ATOM      3  N   UNL     1       2.066   7.785   4.468  0.00  0.00    -0.300 N 
ATOM      4  C   UNL     1       1.980   6.941   5.667  0.00  0.00    +0.107 C 
ATOM      5  C   UNL     1       1.132   7.655   6.718  0.00  0.00    +0.013 C 
ATOM      6  C   UNL     1       1.703   9.052   6.969  0.00  0.00    -0.022 C 
ATOM      7  C   UNL     1       1.662   9.867   5.676  0.00  0.00    +0.013 C 
ATOM      8  C   UNL     1       2.521   9.175   4.612  0.00  0.00    +0.107 C 
ATOM      9  C   UNL     1       0.897   9.746   8.034  0.00  0.00    +0.027 A 
ATOM     10  C   UNL     1       1.313   9.889   9.314  0.00  0.00    +0.059 A 
ATOM     11  N   UNL     1       0.366  10.547   9.984  0.00  0.00    -0.241 NA
ATOM     12  C   UNL     1      -0.624  10.818   9.172  0.00  0.00    +0.196 A 
ATOM     13  N   UNL     1      -0.326  10.331   7.944  0.00  0.00    -0.349 N 
ATOM     14  H   UNL     1      -0.898  10.390   7.126  0.00  0.00    +0.166 HD
ATOM     15  C   UNL     1       2.636   9.363   9.813  0.00  0.00    +0.038 C 
ATOM     16  C   UNL     1       3.161   8.353   8.783  0.00  0.00    -0.075 C 
ATOM     17  N   UNL     1       3.105   8.941   7.429  0.00  0.00    +0.387 N 
ATOM     18  H   UNL     1       3.528   9.877   7.449  0.00  0.00    -0.085 HD
ATOM     19  H   UNL     1       3.627   8.343   6.779  0.00  0.00    -0.085 HD
ENDROOT
BRANCH   1  20
ATOM     20  C   UNL     1       1.162   5.904   3.140  0.00  0.00    +0.160 C 
BRANCH  20  21
ATOM     21  N   UNL     1       1.402   5.393   1.788  0.00  0.00    -0.304 N 
ATOM     22  C   UNL     1       1.461   4.065   1.570  0.00  0.00    +0.218 C 
ATOM     23  O   UNL     1       1.316   3.292   2.494  0.00  0.00    -0.275 OA
ATOM     24  H   UNL     1       1.518   6.011   1.049  0.00  0.00    +0.149 HD
BRANCH  22  25
ATOM     25  C   UNL     1       1.708   3.539   0.180  0.00  0.00    +0.130 C 
BRANCH  25  26
ATOM     26  C   UNL     1       1.728   2.032   0.209  0.00  0.00    -0.039 A 
ATOM     27  C   UNL     1       0.558   1.322   0.020  0.00  0.00    +0.005 A 
ATOM     28  C   UNL     1       0.576  -0.060   0.046  0.00  0.00    +0.020 A 
ATOM     29  C   UNL     1       1.766  -0.732   0.260  0.00  0.00    +0.041 A 
ATOM     30  C   UNL     1       2.938  -0.020   0.449  0.00  0.00    +0.020 A 
ATOM     31  C   UNL     1       2.918   1.361   0.423  0.00  0.00    +0.005 A 
ATOM     32 CL   UNL     1       1.790  -2.468   0.294  0.00  0.00    -0.084 Cl
ENDBRANCH  25  26
ENDBRANCH  22  25
ENDBRANCH  20  21
BRANCH  20  33
ATOM     33  C   UNL     1      -0.343   5.941   3.412  0.00  0.00    +0.042 C 
BRANCH  33  34
ATOM     34  C   UNL     1      -0.891   4.512   3.440  0.00  0.00    +0.071 C 
BRANCH  34  36
ATOM     35  C   UNL     1      -3.163   2.808   3.764  0.00  0.00    +0.084 C 
ATOM     36  S   UNL     1      -2.675   4.555   3.762  0.00  0.00    -0.164 S 
ENDBRANCH  34  36
ENDBRANCH  33  34
ENDBRANCH  20  33
ENDBRANCH   1  20
TORSDOF 7
