REMARK  Name = ZINC06147906
REMARK  10 active torsions:
REMARK  status: ('A' for Active; 'I' for Inactive)
REMARK    1  A    between atoms: C_1  and  C_2
REMARK    2  A    between atoms: C_2  and  C_3
REMARK    3  A    between atoms: C_3  and  C_4
REMARK    4  A    between atoms: C_4  and  N_5
REMARK    5  A    between atoms: N_5  and  S_6
REMARK    6  A    between atoms: S_6  and  C_9
REMARK    7  A    between atoms: C_16  and  S_19
REMARK    8  A    between atoms: S_19  and  C_20
REMARK    9  A    between atoms: C_20  and  C_21
REMARK   10  A    between atoms: C_30  and  C_32
REMARK                            x       y       z     vdW  Elec       q    Type
REMARK                         _______ _______ _______ _____ _____    ______ ____
ROOT
ATOM      1  C   UNL     1      -2.336  -5.140   0.890  0.00  0.00    +0.107 A 
ATOM      2  C   UNL     1      -1.023  -5.561   0.739  0.00  0.00    +0.030 A 
ATOM      3  C   UNL     1      -0.420  -6.333   1.711  0.00  0.00    +0.030 A 
ATOM      4  C   UNL     1      -1.130  -6.691   2.847  0.00  0.00    +0.067 A 
ATOM      5  C   UNL     1      -2.460  -6.267   3.005  0.00  0.00    +0.092 A 
ATOM      6  C   UNL     1      -3.054  -5.482   2.014  0.00  0.00    +0.058 A 
ATOM      7  N   UNL     1      -2.898  -6.760   4.194  0.00  0.00    -0.222 NA
ATOM      8  C   UNL     1      -1.940  -7.446   4.766  0.00  0.00    +0.168 A 
ATOM      9  N   UNL     1      -0.826  -7.435   3.975  0.00  0.00    -0.333 N 
ATOM     10  H   UNL     1       0.021  -7.868   4.168  0.00  0.00    +0.168 HD
ENDROOT
BRANCH   1  11
ATOM     11  S   UNL     1      -3.088  -4.155  -0.362  0.00  0.00    +0.058 S 
ATOM     12  O   UNL     1      -4.491  -4.342  -0.238  0.00  0.00    -0.153 OA
ATOM     13  O   UNL     1      -2.386  -4.426  -1.568  0.00  0.00    -0.153 OA
BRANCH  11  14
ATOM     14  N   UNL     1      -2.787  -2.571   0.015  0.00  0.00    -0.190 NA
ATOM     15  H   UNL     1      -3.521  -1.978   0.242  0.00  0.00    +0.148 HD
BRANCH  14  16
ATOM     16  C   UNL     1      -1.413  -2.063   0.004  0.00  0.00    +0.106 C 
BRANCH  16  17
ATOM     17  C   UNL     1      -1.433  -0.534   0.013  0.00  0.00    +0.017 C 
BRANCH  17  19
ATOM     18  C   UNL     1      -0.019   1.526   0.010  0.00  0.00    +0.004 C 
ATOM     19  C   UNL     1       0.002  -0.004   0.002  0.00  0.00    -0.002 C 
ENDBRANCH  17  19
ENDBRANCH  16  17
ENDBRANCH  14  16
ENDBRANCH  11  14
ENDBRANCH   1  11
BRANCH   8  20
ATOM     20  S   UNL     1      -2.069  -8.261   6.323  0.00  0.00    -0.083 S 
BRANCH  20  21
ATOM     21  C   UNL     1      -3.764  -7.910   6.863  0.00  0.00    +0.113 C 
BRANCH  21  22
ATOM     22  C   UNL     1      -4.010  -8.559   8.201  0.00  0.00    -0.020 A 
ATOM     23  C   UNL     1      -4.053  -7.818   9.337  0.00  0.00    +0.097 A 
ATOM     24  C   UNL     1      -4.285  -8.450  10.578  0.00  0.00    +0.338 A 
ATOM     25  O   UNL     1      -4.321  -7.774  11.591  0.00  0.00    -0.245 OA
ATOM     26  O   UNL     1      -4.467  -9.776  10.670  0.00  0.00    -0.422 OA
ATOM     27  C   UNL     1      -4.437 -10.570   9.578  0.00  0.00    +0.140 A 
ATOM     28  C   UNL     1      -4.216 -10.006   8.309  0.00  0.00    +0.023 A 
ATOM     29  C   UNL     1      -4.189 -10.825   7.176  0.00  0.00    +0.032 A 
ATOM     30  C   UNL     1      -4.385 -12.182   7.312  0.00  0.00    +0.045 A 
ATOM     31  C   UNL     1      -4.609 -12.736   8.566  0.00  0.00    -0.029 A 
ATOM     32  C   UNL     1      -4.627 -11.941   9.693  0.00  0.00    +0.051 A 
ATOM     33  C   UNL     1      -4.822 -14.222   8.697  0.00  0.00    +0.045 C 
ATOM     34 CL   UNL     1      -4.353 -13.204   5.910  0.00  0.00    -0.083 Cl
ENDBRANCH  21  22
ENDBRANCH  20  21
ENDBRANCH   8  20
TORSDOF 8
