REMARK  Name = ZINC16427408
REMARK  13 active torsions:
REMARK  status: ('A' for Active; 'I' for Inactive)
REMARK    1  A    between atoms: C_1  and  C_2
REMARK    2  A    between atoms: C_2  and  C_3
REMARK    3  A    between atoms: C_3  and  C_4
REMARK    4  A    between atoms: C_4  and  C_5
REMARK    5  A    between atoms: C_5  and  C_6
REMARK    6  A    between atoms: C_6  and  N_7
REMARK    7  A    between atoms: N_7  and  C_8
REMARK    8  A    between atoms: C_8  and  C_10
REMARK    9  A    between atoms: C_8  and  C_11
REMARK   10  A    between atoms: N_21  and  C_22
REMARK   11  A    between atoms: C_25  and  C_29
REMARK   12  A    between atoms: C_27  and  C_28
REMARK   13  A    between atoms: N_32  and  C_33
REMARK                            x       y       z     vdW  Elec       q    Type
REMARK                         _______ _______ _______ _____ _____    ______ ____
ROOT
ATOM      1  C   UNL     1      -0.201   1.070   0.487  0.00  0.00    +0.141 C 
ATOM      2  C   UNL     1      -1.096   1.734   1.535  0.00  0.00    +0.036 C 
ENDROOT
BRANCH   1   3
ATOM      3  C   UNL     1      -0.545   1.604  -0.880  0.00  0.00    +0.138 A 
ATOM      4  N   UNL     1      -0.523   2.889  -1.063  0.00  0.00    -0.231 NA
ATOM      5  C   UNL     1      -0.821   3.441  -2.265  0.00  0.00    +0.078 A 
ATOM      6  C   UNL     1      -0.797   4.824  -2.462  0.00  0.00    +0.028 A 
ATOM      7  C   UNL     1      -1.106   5.341  -3.700  0.00  0.00    +0.002 A 
ATOM      8  C   UNL     1      -1.443   4.506  -4.757  0.00  0.00    +0.001 A 
ATOM      9  C   UNL     1      -1.475   3.139  -4.587  0.00  0.00    +0.015 A 
ATOM     10  C   UNL     1      -1.165   2.595  -3.342  0.00  0.00    +0.065 A 
ATOM     11  C   UNL     1      -1.181   1.144  -3.103  0.00  0.00    +0.266 A 
ATOM     12  O   UNL     1      -1.468   0.360  -3.989  0.00  0.00    -0.267 OA
ATOM     13  N   UNL     1      -0.859   0.714  -1.860  0.00  0.00    -0.263 N 
BRANCH  13  14
ATOM     14  C   UNL     1      -0.853  -0.658  -1.581  0.00  0.00    +0.054 A 
ATOM     15  C   UNL     1      -1.967  -1.255  -1.005  0.00  0.00    +0.027 A 
ATOM     16  C   UNL     1      -1.959  -2.609  -0.730  0.00  0.00    +0.005 A 
ATOM     17  C   UNL     1      -0.843  -3.369  -1.028  0.00  0.00    -0.050 A 
ATOM     18  C   UNL     1       0.267  -2.778  -1.602  0.00  0.00    +0.008 A 
ATOM     19  C   UNL     1       0.263  -1.425  -1.883  0.00  0.00    -0.026 A 
ATOM     20  C   UNL     1       1.472  -0.783  -2.514  0.00  0.00    +0.046 C 
ATOM     21  C   UNL     1      -0.838  -4.846  -0.728  0.00  0.00    +0.044 C 
ENDBRANCH  13  14
ENDBRANCH   1   3
BRANCH   1  22
ATOM     22  N   UNL     1       1.203   1.363   0.786  0.00  0.00    -0.276 N 
ATOM     23  C   UNL     1       2.065   0.356   1.030  0.00  0.00    +0.307 C 
ATOM     24  O   UNL     1       1.677  -0.796   1.002  0.00  0.00    -0.252 OA
ATOM     25  N   UNL     1       3.356   0.627   1.306  0.00  0.00    -0.267 N 
ATOM     26  H   UNL     1       3.651   1.547   1.393  0.00  0.00    +0.156 HD
BRANCH  25  27
ATOM     27  C   UNL     1       4.272  -0.421   1.466  0.00  0.00    +0.070 A 
ATOM     28  C   UNL     1       3.857  -1.633   1.999  0.00  0.00    +0.026 A 
ATOM     29  C   UNL     1       4.761  -2.666   2.151  0.00  0.00    +0.002 A 
ATOM     30  C   UNL     1       6.082  -2.491   1.782  0.00  0.00    +0.003 A 
ATOM     31  C   UNL     1       6.502  -1.284   1.255  0.00  0.00    +0.040 A 
ATOM     32  C   UNL     1       5.601  -0.247   1.095  0.00  0.00    +0.145 A 
ATOM     33  F   UNL     1       6.011   0.933   0.581  0.00  0.00    -0.204 F 
ENDBRANCH  25  27
BRANCH  22  34
ATOM     34  C   UNL     1       1.669   2.752   0.821  0.00  0.00    +0.110 C 
BRANCH  34  35
ATOM     35  C   UNL     1       1.517   3.306   2.239  0.00  0.00    +0.019 C 
BRANCH  35  36
ATOM     36  C   UNL     1       2.004   4.756   2.275  0.00  0.00    +0.002 C 
BRANCH  36  37
ATOM     37  C   UNL     1       1.852   5.310   3.693  0.00  0.00    -0.000 C 
BRANCH  37  39
ATOM     38  C   UNL     1       2.187   7.314   5.147  0.00  0.00    +0.004 C 
ATOM     39  C   UNL     1       2.339   6.760   3.729  0.00  0.00    -0.003 C 
ENDBRANCH  37  39
ENDBRANCH  36  37
ENDBRANCH  35  36
ENDBRANCH  34  35
ENDBRANCH  22  34
ENDBRANCH   1  22
TORSDOF 9
