REMARK  Name = ZINC43757975
REMARK  12 active torsions:
REMARK  status: ('A' for Active; 'I' for Inactive)
REMARK    1  A    between atoms: C_1  and  C_2
REMARK    2  A    between atoms: C_2  and  C_4
REMARK    3  A    between atoms: C_2  and  C_10
REMARK    4  A    between atoms: C_4  and  C_5
REMARK    5  A    between atoms: C_5  and  C_6
REMARK    6  A    between atoms: C_6  and  C_7
REMARK    7  A    between atoms: C_7  and  C_8
REMARK    8  A    between atoms: C_7  and  C_9
REMARK    9  A    between atoms: C_16  and  C_39
REMARK   10  A    between atoms: C_24  and  N_36
REMARK   11  A    between atoms: C_27  and  C_34
REMARK   12  A    between atoms: C_30  and  O_33
REMARK                            x       y       z     vdW  Elec       q    Type
REMARK                         _______ _______ _______ _____ _____    ______ ____
ROOT
ATOM      1  C   UNL     1       3.246  -0.098   1.768  0.00  0.00    -0.002 C 
ATOM      2  C   UNL     1       4.795  -0.202   1.784  0.00  0.00    +0.004 C 
ATOM      3  C   UNL     1       5.147  -1.587   1.171  0.00  0.00    +0.004 C 
ATOM      4  C   UNL     1       3.855  -1.953   0.420  0.00  0.00    -0.001 C 
ATOM      5  C   UNL     1       2.784  -1.532   1.446  0.00  0.00    -0.026 C 
ATOM      6  C   UNL     1       1.403  -1.693   0.880  0.00  0.00    +0.007 C 
ATOM      7  C   UNL     1       1.228  -3.037   0.158  0.00  0.00    +0.005 C 
ATOM      8  C   UNL     1       2.384  -3.993   0.379  0.00  0.00    +0.000 C 
ATOM      9  C   UNL     1       3.718  -3.373  -0.029  0.00  0.00    -0.001 C 
ATOM     10  C   UNL     1       4.835  -4.281   0.484  0.00  0.00    +0.037 C 
ATOM     11  C   UNL     1       4.741  -5.626  -0.242  0.00  0.00    +0.191 C 
ATOM     12  C   UNL     1       3.362  -6.253  -0.110  0.00  0.00    +0.080 C 
ATOM     13  C   UNL     1       2.199  -5.307  -0.394  0.00  0.00    -0.008 C 
ATOM     14  C   UNL     1       2.030  -5.033  -1.880  0.00  0.00    +0.011 C 
ATOM     15  C   UNL     1       1.791  -6.336  -2.639  0.00  0.00    +0.032 C 
ATOM     16  C   UNL     1       2.946  -7.306  -2.420  0.00  0.00    +0.116 C 
ATOM     17  C   UNL     1       3.265  -7.521  -0.954  0.00  0.00    +0.057 C 
ATOM     18  C   UNL     1       0.914  -5.973   0.141  0.00  0.00    +0.013 C 
ATOM     19 CL   UNL     1       3.192  -6.777   1.629  0.00  0.00    -0.115 Cl
ATOM     20  C   UNL     1       2.913  -2.309   2.766  0.00  0.00    +0.012 C 
ENDROOT
BRANCH  11  21
ATOM     21  N   UNL     1       5.180  -5.471  -1.622  0.00  0.00    +0.027 N 
ATOM     22  O   UNL     1       6.021  -6.212  -2.076  0.00  0.00    -0.131 OA
ATOM     23  O   UNL     1       4.704  -4.601  -2.314  0.00  0.00    -0.131 OA
ENDBRANCH  11  21
BRANCH   1  25
ATOM     24  C   UNL     1       3.518   0.609  -0.606  0.00  0.00    +0.008 C 
ATOM     25  C   UNL     1       2.799   0.903   0.712  0.00  0.00    -0.010 C 
BRANCH  25  26
ATOM     26  C   UNL     1       3.140   2.321   1.174  0.00  0.00    +0.003 C 
BRANCH  26  27
ATOM     27  C   UNL     1       2.625   3.331   0.147  0.00  0.00    +0.001 C 
BRANCH  27  28
ATOM     28  C   UNL     1       2.967   4.749   0.610  0.00  0.00    +0.003 C 
BRANCH  28  29
ATOM     29  C   UNL     1       2.452   5.759  -0.418  0.00  0.00    -0.017 C 
ATOM     30  C   UNL     1       0.924   5.705  -0.464  0.00  0.00    +0.007 C 
ATOM     31  C   UNL     1       2.902   7.166  -0.019  0.00  0.00    +0.007 C 
ENDBRANCH  28  29
ENDBRANCH  27  28
ENDBRANCH  26  27
ENDBRANCH  25  26
ENDBRANCH   1  25
BRANCH  16  32
ATOM     32  O   UNL     1       2.580  -8.575  -2.999  0.00  0.00    -0.392 OA
ATOM     33  H   UNL     1       2.398  -8.536  -3.948  0.00  0.00    +0.210 HD
ENDBRANCH  16  32
TORSDOF 7
