REMARK  Name = ZINC67457884
REMARK  10 active torsions:
REMARK  status: ('A' for Active; 'I' for Inactive)
REMARK    1  A    between atoms: C_1  and  C_2
REMARK    2  A    between atoms: C_2  and  C_29
REMARK    3  A    between atoms: C_8  and  O_11
REMARK    4  A    between atoms: O_11  and  C_12
REMARK    5  A    between atoms: C_12  and  C_13
REMARK    6  A    between atoms: C_13  and  N_14
REMARK    7  A    between atoms: N_17  and  N_18
REMARK    8  A    between atoms: C_19  and  C_21
REMARK    9  A    between atoms: C_26  and  O_27
REMARK   10  A    between atoms: O_27  and  C_28
REMARK                            x       y       z     vdW  Elec       q    Type
REMARK                         _______ _______ _______ _____ _____    ______ ____
ROOT
ATOM      1  N   UNL     1       3.019  -1.952   5.611  0.00  0.00    -0.295 N 
ATOM      2  C   UNL     1       2.583  -2.098   6.878  0.00  0.00    +0.316 C 
ATOM      3  O   UNL     1       2.880  -1.274   7.721  0.00  0.00    -0.251 OA
ATOM      4  N   UNL     1       1.819  -3.157   7.210  0.00  0.00    -0.218 N 
ATOM      5  H   UNL     1       2.782  -2.609   4.938  0.00  0.00    +0.150 HD
ATOM      6  H   UNL     1       1.506  -3.262   8.122  0.00  0.00    +0.174 HD
ENDROOT
BRANCH   4   7
ATOM      7  N   UNL     1       1.477  -4.106   6.238  0.00  0.00    -0.229 N 
ATOM      8  C   UNL     1       0.713  -5.166   6.570  0.00  0.00    +0.264 C 
ATOM      9  O   UNL     1       0.320  -5.297   7.713  0.00  0.00    -0.269 OA
ATOM     10  H   UNL     1       1.790  -4.001   5.326  0.00  0.00    +0.173 HD
BRANCH   8  11
ATOM     11  C   UNL     1       0.352  -6.165   5.546  0.00  0.00    +0.080 A 
ATOM     12  C   UNL     1       0.807  -6.021   4.233  0.00  0.00    +0.017 A 
ATOM     13  C   UNL     1       0.467  -6.958   3.282  0.00  0.00    +0.001 A 
ATOM     14  C   UNL     1      -0.323  -8.044   3.622  0.00  0.00    +0.004 A 
ATOM     15  C   UNL     1      -0.779  -8.199   4.916  0.00  0.00    +0.046 A 
ATOM     16  C   UNL     1      -0.442  -7.268   5.887  0.00  0.00    +0.132 A 
BRANCH  16  17
ATOM     17  O   UNL     1      -0.884  -7.422   7.160  0.00  0.00    -0.494 OA
ATOM     18  C   UNL     1      -1.690  -8.570   7.433  0.00  0.00    +0.277 C 
ENDBRANCH  16  17
ENDBRANCH   8  11
ENDBRANCH   4   7
BRANCH   1  19
ATOM     19  C   UNL     1       3.850  -0.801   5.250  0.00  0.00    +0.146 C 
BRANCH  19  20
ATOM     20  C   UNL     1       4.205  -0.874   3.764  0.00  0.00    +0.248 C 
BRANCH  20  21
ATOM     21  O   UNL     1       3.016  -0.742   2.983  0.00  0.00    -0.487 OA
BRANCH  21  29
ATOM     22  C   UNL     1      -0.019   1.526   0.010  0.00  0.00    +0.056 C 
ATOM     23  C   UNL     1       0.002  -0.004   0.002  0.00  0.00    +0.109 C 
ATOM     24  C   UNL     1       0.832  -0.534  -1.191  0.00  0.00    +0.086 C 
ATOM     25  C   UNL     1       2.204  -0.704  -0.568  0.00  0.00    +0.002 A 
ATOM     26  C   UNL     1       3.456  -0.875  -1.120  0.00  0.00    +0.007 A 
ATOM     27  C   UNL     1       4.564  -1.000  -0.301  0.00  0.00    +0.004 A 
ATOM     28  C   UNL     1       4.412  -0.953   1.073  0.00  0.00    +0.049 A 
ATOM     29  C   UNL     1       3.157  -0.786   1.631  0.00  0.00    +0.162 A 
ATOM     30  C   UNL     1       2.034  -0.662   0.808  0.00  0.00    +0.166 A 
ATOM     31  O   UNL     1       0.721  -0.510   1.139  0.00  0.00    -0.482 OA
ATOM     32  C   UNL     1      -1.422  -0.563  -0.032  0.00  0.00    +0.056 C 
ENDBRANCH  21  29
ENDBRANCH  20  21
ENDBRANCH  19  20
ENDBRANCH   1  19
TORSDOF 7
