REMARK  Name = ZINC33173139
REMARK  6 active torsions:
REMARK  status: ('A' for Active; 'I' for Inactive)
REMARK    1  A    between atoms: C_1  and  C_2
REMARK    2  A    between atoms: C_5  and  N_8
REMARK    3  A    between atoms: N_12  and  C_19
REMARK    4  A    between atoms: C_16  and  C_18
REMARK    5  A    between atoms: C_19  and  C_20
REMARK    6  A    between atoms: N_22  and  C_23
REMARK                            x       y       z     vdW  Elec       q    Type
REMARK                         _______ _______ _______ _____ _____    ______ ____
ROOT
ATOM      1  N   UNL     1       2.447   3.833  -0.001  0.00  0.00    -0.232 N 
ATOM      2  C   UNL     1       1.163   3.377   0.009  0.00  0.00    +0.081 A 
ATOM      3  C   UNL     1      -0.104   3.995   0.023  0.00  0.00    +0.046 A 
ATOM      4  C   UNL     1      -1.223   3.248   0.029  0.00  0.00    +0.092 A 
ATOM      5  N   UNL     1      -1.186   1.885   0.018  0.00  0.00    -0.306 N 
ATOM      6  C   UNL     1      -0.015   1.215   0.009  0.00  0.00    +0.263 A 
ATOM      7  O   UNL     1       0.002  -0.004   0.002  0.00  0.00    -0.267 OA
ATOM      8  C   UNL     1       1.233   1.974   0.001  0.00  0.00    +0.088 A 
ATOM      9  C   UNL     1       2.598   1.627  -0.013  0.00  0.00    +0.073 A 
ATOM     10  N   UNL     1       3.304   2.725  -0.014  0.00  0.00    -0.170 NA
ATOM     11  C   UNL     1       3.151   0.225  -0.025  0.00  0.00    +0.068 C 
ENDROOT
BRANCH   1  16
ATOM     12  C   UNL     1       4.045   9.277   0.011  0.00  0.00    +0.044 C 
ATOM     13  C   UNL     1       3.620   7.832   0.007  0.00  0.00    -0.050 A 
ATOM     14  C   UNL     1       4.374   6.890   0.683  0.00  0.00    +0.005 A 
ATOM     15  C   UNL     1       3.988   5.564   0.683  0.00  0.00    +0.028 A 
ATOM     16  C   UNL     1       2.841   5.177   0.002  0.00  0.00    +0.066 A 
ATOM     17  C   UNL     1       2.090   6.124  -0.681  0.00  0.00    +0.028 A 
ATOM     18  C   UNL     1       2.478   7.449  -0.672  0.00  0.00    +0.005 A 
ENDBRANCH   1  16
BRANCH   5  19
ATOM     19  C   UNL     1      -2.443   1.133   0.020  0.00  0.00    +0.220 C 
BRANCH  19  20
ATOM     20  C   UNL     1      -2.867   0.867   1.442  0.00  0.00    +0.233 C 
ATOM     21  O   UNL     1      -2.186   1.267   2.362  0.00  0.00    -0.274 OA
ATOM     22  N   UNL     1      -4.003   0.186   1.690  0.00  0.00    -0.311 N 
ATOM     23  H   UNL     1      -4.621  -0.177   0.855  0.00  0.00    +0.149 HD
BRANCH  22  24
ATOM     24  C   UNL     1      -4.415  -0.072   3.072  0.00  0.00    +0.073 C 
ATOM     25  C   UNL     1      -3.652  -1.304   3.600  0.00  0.00    +0.022 C 
ATOM     26  C   UNL     1      -3.668  -1.268   5.104  0.00  0.00    +0.002 C 
ATOM     27  C   UNL     1      -4.828  -2.088   5.700  0.00  0.00    +0.000 C 
ATOM     28  C   UNL     1      -6.149  -1.902   4.931  0.00  0.00    +0.000 C 
ATOM     29  C   UNL     1      -6.390  -0.469   4.539  0.00  0.00    +0.002 C 
ATOM     30  C   UNL     1      -5.859  -0.257   3.107  0.00  0.00    +0.022 C 
ENDBRANCH  22  24
ENDBRANCH  19  20
ENDBRANCH   5  19
TORSDOF 4
