REMARK  Name = ZINC39772017
REMARK  10 active torsions:
REMARK  status: ('A' for Active; 'I' for Inactive)
REMARK    1  A    between atoms: C_1  and  C_2
REMARK    2  A    between atoms: C_2  and  N_3
REMARK    3  A    between atoms: C_4  and  C_23
REMARK    4  A    between atoms: C_7  and  S_8
REMARK    5  A    between atoms: S_8  and  C_9
REMARK    6  A    between atoms: C_9  and  C_11
REMARK    7  A    between atoms: C_9  and  C_12
REMARK    8  A    between atoms: C_23  and  C_25
REMARK    9  A    between atoms: C_23  and  N_26
REMARK   10  A    between atoms: C_27  and  C_29
REMARK                            x       y       z     vdW  Elec       q    Type
REMARK                         _______ _______ _______ _____ _____    ______ ____
ROOT
ATOM      1  N   UNL     1       0.681  -0.515  -1.190  0.00  0.00    -0.305 N 
ATOM      2  C   UNL     1       0.119  -0.782  -2.409  0.00  0.00    +0.154 A 
ATOM      3  N   UNL     1       1.080  -1.160  -3.204  0.00  0.00    -0.132 NA
ATOM      4  N   UNL     1       2.201  -1.150  -2.577  0.00  0.00    -0.122 NA
ATOM      5  C   UNL     1       2.016  -0.757  -1.338  0.00  0.00    +0.192 A 
ENDROOT
BRANCH   1   7
ATOM      6  C   UNL     1      -0.042   1.472   0.039  0.00  0.00    +0.027 C 
ATOM      7  C   UNL     1      -0.007  -0.058   0.019  0.00  0.00    +0.122 C 
ENDBRANCH   1   7
BRANCH   2   8
ATOM      8  C   UNL     1      -1.340  -0.662  -2.765  0.00  0.00    +0.138 C 
ATOM      9  C   UNL     1      -1.961  -2.058  -2.850  0.00  0.00    +0.036 C 
BRANCH   8  10
ATOM     10  N   UNL     1      -1.473   0.011  -4.059  0.00  0.00    -0.302 N 
ATOM     11  C   UNL     1      -2.606   0.675  -4.361  0.00  0.00    +0.245 C 
ATOM     12  O   UNL     1      -3.519   0.715  -3.559  0.00  0.00    -0.270 OA
ATOM     13  H   UNL     1      -0.745  -0.021  -4.700  0.00  0.00    +0.150 HD
BRANCH  11  14
ATOM     14  C   UNL     1      -2.740   1.354  -5.667  0.00  0.00    +0.037 A 
ATOM     15  C   UNL     1      -1.696   1.305  -6.592  0.00  0.00    +0.014 A 
ATOM     16  C   UNL     1      -1.827   1.940  -7.809  0.00  0.00    +0.021 A 
ATOM     17  C   UNL     1      -2.991   2.626  -8.114  0.00  0.00    +0.041 A 
ATOM     18  C   UNL     1      -4.030   2.678  -7.200  0.00  0.00    +0.021 A 
ATOM     19  C   UNL     1      -3.913   2.042  -5.982  0.00  0.00    +0.014 A 
ATOM     20 CL   UNL     1      -3.148   3.424  -9.648  0.00  0.00    -0.084 Cl
ENDBRANCH  11  14
ENDBRANCH   8  10
ENDBRANCH   2   8
BRANCH   5  21
ATOM     21  S   UNL     1       3.256  -0.579  -0.099  0.00  0.00    -0.074 S 
BRANCH  21  22
ATOM     22  C   UNL     1       4.790  -1.055  -0.941  0.00  0.00    +0.137 C 
ATOM     23  C   UNL     1       5.093  -0.050  -2.054  0.00  0.00    +0.029 C 
BRANCH  22  24
ATOM     24  C   UNL     1       5.926  -1.064   0.050  0.00  0.00    +0.233 C 
ATOM     25  O   UNL     1       5.871  -0.369   1.041  0.00  0.00    -0.274 OA
ATOM     26  N   UNL     1       7.002  -1.846  -0.167  0.00  0.00    -0.270 N 
ATOM     27  C   UNL     1       7.235  -2.639  -1.376  0.00  0.00    +0.118 C 
ATOM     28  C   UNL     1       8.580  -3.346  -1.143  0.00  0.00    +0.056 C 
ATOM     29  C   UNL     1       9.021  -2.883   0.228  0.00  0.00    -0.024 A 
ATOM     30  C   UNL     1       8.063  -2.014   0.729  0.00  0.00    +0.040 A 
ATOM     31  C   UNL     1       8.255  -1.448   1.990  0.00  0.00    +0.024 A 
ATOM     32  C   UNL     1       9.385  -1.747   2.722  0.00  0.00    +0.002 A 
ATOM     33  C   UNL     1      10.336  -2.611   2.212  0.00  0.00    +0.000 A 
ATOM     34  C   UNL     1      10.148  -3.183   0.967  0.00  0.00    +0.005 A 
ENDBRANCH  22  24
ENDBRANCH  21  22
ENDBRANCH   5  21
TORSDOF 7
