REMARK  Name = ZINC38705958
REMARK  16 active torsions:
REMARK  status: ('A' for Active; 'I' for Inactive)
REMARK    1  A    between atoms: C_1  and  C_2
REMARK    2  A    between atoms: C_2  and  O_3
REMARK    3  A    between atoms: O_3  and  C_4
REMARK    4  A    between atoms: C_6  and  C_16
REMARK    5  A    between atoms: C_9  and  O_10
REMARK    6  A    between atoms: O_10  and  C_11
REMARK    7  A    between atoms: C_11  and  C_12
REMARK    8  A    between atoms: C_12  and  C_13
REMARK    9  A    between atoms: C_13  and  C_14
REMARK   10  A    between atoms: C_13  and  C_15
REMARK   11  A    between atoms: C_19  and  C_34
REMARK   12  A    between atoms: N_26  and  C_27
REMARK   13  A    between atoms: C_27  and  C_28
REMARK   14  A    between atoms: C_35  and  C_42
REMARK   15  A    between atoms: C_37  and  C_41
REMARK   16  A    between atoms: C_39  and  O_40
REMARK                            x       y       z     vdW  Elec       q    Type
REMARK                         _______ _______ _______ _____ _____    ______ ____
ROOT
ATOM      1  C   UNL     1      -0.114  -4.889   0.097  0.00  0.00    +0.141 C 
ATOM      2  C   UNL     1      -1.510  -5.395  -0.142  0.00  0.00    +0.035 A 
ATOM      3  C   UNL     1      -2.861  -5.085  -0.329  0.00  0.00    +0.102 A 
ATOM      4  N   UNL     1      -3.508  -6.223  -0.490  0.00  0.00    -0.173 NA
ATOM      5  N   UNL     1      -2.700  -7.220  -0.424  0.00  0.00    -0.272 N 
ATOM      6  H   UNL     1      -2.955  -8.151  -0.515  0.00  0.00    +0.189 HD
ATOM      7  C   UNL     1      -1.427  -6.773  -0.207  0.00  0.00    +0.126 A 
ATOM      8  C   UNL     1      -0.026  -7.166  -0.018  0.00  0.00    +0.266 C 
ATOM      9  O   UNL     1       0.380  -8.312  -0.021  0.00  0.00    -0.268 OA
ATOM     10  N   UNL     1       0.746  -6.077   0.161  0.00  0.00    -0.283 N 
ENDROOT
BRANCH   3  11
ATOM     11  C   UNL     1      -3.457  -3.726  -0.342  0.00  0.00    +0.047 A 
ATOM     12  C   UNL     1      -4.333  -3.356  -1.360  0.00  0.00    -0.037 A 
ATOM     13  C   UNL     1      -4.884  -2.091  -1.368  0.00  0.00    +0.007 A 
ATOM     14  C   UNL     1      -4.570  -1.188  -0.368  0.00  0.00    -0.047 A 
ATOM     15  C   UNL     1      -3.702  -1.544   0.646  0.00  0.00    +0.049 A 
ATOM     16  C   UNL     1      -3.146  -2.813   0.670  0.00  0.00    +0.127 A 
ATOM     17  C   UNL     1      -5.178   0.192  -0.386  0.00  0.00    +0.044 C 
ATOM     18  C   UNL     1      -4.677  -4.336  -2.452  0.00  0.00    +0.044 C 
BRANCH  16  19
ATOM     19  O   UNL     1      -2.298  -3.168   1.670  0.00  0.00    -0.506 OA
ATOM     20  H   UNL     1      -1.376  -2.923   1.509  0.00  0.00    +0.292 HD
ENDBRANCH  16  19
ENDBRANCH   3  11
BRANCH   1  23
ATOM     21  C   UNL     1       0.834  -1.815  -1.885  0.00  0.00    +0.162 A 
ATOM     22  C   UNL     1       0.439  -2.635  -0.841  0.00  0.00    +0.055 A 
ATOM     23  C   UNL     1       0.316  -3.998  -1.040  0.00  0.00    -0.019 A 
ATOM     24  C   UNL     1       0.588  -4.545  -2.280  0.00  0.00    +0.009 A 
ATOM     25  C   UNL     1       0.984  -3.732  -3.326  0.00  0.00    +0.050 A 
ATOM     26  C   UNL     1       1.102  -2.365  -3.135  0.00  0.00    +0.162 A 
BRANCH  21  27
ATOM     27  O   UNL     1       0.954  -0.474  -1.690  0.00  0.00    -0.489 OA
BRANCH  27  29
ATOM     28  C   UNL     1       0.852   1.538  -0.356  0.00  0.00    +0.048 C 
ATOM     29  C   UNL     1       0.663   0.020  -0.381  0.00  0.00    +0.226 C 
ENDBRANCH  27  29
ENDBRANCH  21  27
BRANCH  26  30
ATOM     30  O   UNL     1       1.485  -1.563  -4.164  0.00  0.00    -0.488 OA
BRANCH  30  31
ATOM     31  C   UNL     1       1.744  -2.197  -5.418  0.00  0.00    +0.229 C 
BRANCH  31  32
ATOM     32  C   UNL     1       2.159  -1.142  -6.446  0.00  0.00    +0.044 C 
BRANCH  32  33
ATOM     33  C   UNL     1       2.436  -1.821  -7.789  0.00  0.00    -0.014 C 
ATOM     34  C   UNL     1       2.730  -0.756  -8.848  0.00  0.00    +0.007 C 
ATOM     35  C   UNL     1       3.644  -2.750  -7.652  0.00  0.00    +0.007 C 
ENDBRANCH  32  33
ENDBRANCH  31  32
ENDBRANCH  30  31
ENDBRANCH  26  30
ENDBRANCH   1  23
BRANCH  10  36
ATOM     36  C   UNL     1       2.195  -6.078   0.380  0.00  0.00    +0.140 C 
BRANCH  36  37
ATOM     37  C   UNL     1       2.484  -6.157   1.880  0.00  0.00    +0.136 C 
ATOM     38  C   UNL     1       4.003  -6.036   2.128  0.00  0.00    +0.035 C 
ATOM     39  C   UNL     1       4.232  -7.060   3.273  0.00  0.00    +0.031 C 
ATOM     40  C   UNL     1       3.191  -8.148   2.908  0.00  0.00    +0.160 C 
ATOM     41  O   UNL     1       2.059  -7.426   2.390  0.00  0.00    -0.375 OA
ENDBRANCH  36  37
ENDBRANCH  10  36
TORSDOF 11
