REMARK  Name = ZINC39918706
REMARK  8 active torsions:
REMARK  status: ('A' for Active; 'I' for Inactive)
REMARK    1  A    between atoms: C_1  and  C_2
REMARK    2  A    between atoms: C_7  and  C_8
REMARK    3  A    between atoms: C_8  and  N_9
REMARK    4  A    between atoms: C_22  and  C_33
REMARK    5  A    between atoms: N_23  and  C_26
REMARK    6  A    between atoms: C_26  and  C_27
REMARK    7  A    between atoms: C_35  and  N_39
REMARK    8  A    between atoms: C_36  and  C_37
REMARK                            x       y       z     vdW  Elec       q    Type
REMARK                         _______ _______ _______ _____ _____    ______ ____
ROOT
ATOM      1  N   UNL     1      -1.409   0.548   3.028  0.00  0.00    -0.265 N 
ATOM      2  C   UNL     1      -2.145   1.701   2.823  0.00  0.00    +0.041 A 
ATOM      3  C   UNL     1      -1.782   2.881   2.172  0.00  0.00    +0.024 A 
ATOM      4  C   UNL     1      -2.730   3.890   2.114  0.00  0.00    +0.002 A 
ATOM      5  C   UNL     1      -3.984   3.748   2.672  0.00  0.00    +0.000 A 
ATOM      6  C   UNL     1      -4.359   2.578   3.323  0.00  0.00    +0.007 A 
ATOM      7  C   UNL     1      -3.421   1.569   3.384  0.00  0.00    -0.001 A 
ATOM      8  C   UNL     1      -3.477   0.200   3.987  0.00  0.00    +0.147 C 
ATOM      9  C   UNL     1      -2.111  -0.389   3.698  0.00  0.00    +0.241 C 
ATOM     10  O   UNL     1      -1.722  -1.494   4.012  0.00  0.00    -0.274 OA
ATOM     11  C   UNL     1      -3.706   0.273   5.469  0.00  0.00    +0.084 A 
ATOM     12  C   UNL     1      -4.925  -0.084   6.008  0.00  0.00    +0.142 A 
ATOM     13  C   UNL     1      -5.104  -0.005   7.404  0.00  0.00    +0.068 A 
ATOM     14  C   UNL     1      -4.088   0.418   8.187  0.00  0.00    +0.023 A 
ATOM     15  N   UNL     1      -2.891   0.769   7.649  0.00  0.00    -0.308 N 
ATOM     16  C   UNL     1      -2.682   0.706   6.321  0.00  0.00    +0.260 A 
ATOM     17  O   UNL     1      -1.598   1.025   5.858  0.00  0.00    -0.267 OA
ATOM     18  C   UNL     1      -4.285   0.501   9.679  0.00  0.00    +0.064 C 
ATOM     19  O   UNL     1      -5.939  -0.500   5.221  0.00  0.00    -0.441 OA
ATOM     20  C   UNL     1      -5.691  -0.932   3.972  0.00  0.00    +0.199 C 
ATOM     21  C   UNL     1      -4.537  -0.633   3.327  0.00  0.00    +0.110 C 
ENDROOT
BRANCH  20  22
ATOM     22  N   UNL     1      -6.634  -1.698   3.332  0.00  0.00    -0.328 N 
ATOM     23  H   UNL     1      -7.464  -1.920   3.780  0.00  0.00    +0.145 HD
ATOM     24  H   UNL     1      -6.469  -2.016   2.430  0.00  0.00    +0.145 HD
ENDBRANCH  20  22
BRANCH  21  25
ATOM     25  C   UNL     1      -4.327  -1.118   1.996  0.00  0.00    +0.102 C 
ATOM     26  N   UNL     1      -4.160  -1.503   0.941  0.00  0.00    -0.191 NA
ENDBRANCH  21  25
BRANCH   1  27
ATOM     27  C   UNL     1      -0.031   0.363   2.566  0.00  0.00    +0.149 C 
BRANCH  27  34
ATOM     28  C   UNL     1       2.443  -0.389   1.278  0.00  0.00    +0.044 C 
ATOM     29  C   UNL     1       1.143  -0.475   0.521  0.00  0.00    -0.046 A 
ATOM     30  C   UNL     1       1.134  -0.920  -0.788  0.00  0.00    +0.003 A 
ATOM     31  C   UNL     1      -0.058  -0.999  -1.483  0.00  0.00    +0.000 A 
ATOM     32  C   UNL     1      -1.242  -0.634  -0.869  0.00  0.00    +0.000 A 
ATOM     33  C   UNL     1      -1.232  -0.190   0.441  0.00  0.00    +0.005 A 
ATOM     34  C   UNL     1      -0.040  -0.115   1.137  0.00  0.00    -0.027 A 
ENDBRANCH  27  34
ENDBRANCH   1  27
BRANCH  15  35
ATOM     35  C   UNL     1      -1.811   1.225   8.528  0.00  0.00    +0.160 C 
BRANCH  35  36
ATOM     36  C   UNL     1      -1.817   2.731   8.592  0.00  0.00    -0.028 A 
ATOM     37  C   UNL     1      -1.154   3.466   7.628  0.00  0.00    +0.005 A 
ATOM     38  C   UNL     1      -1.159   4.847   7.686  0.00  0.00    +0.000 A 
ATOM     39  C   UNL     1      -1.828   5.493   8.709  0.00  0.00    +0.000 A 
ATOM     40  C   UNL     1      -2.492   4.757   9.673  0.00  0.00    +0.000 A 
ATOM     41  C   UNL     1      -2.490   3.376   9.612  0.00  0.00    +0.005 A 
ENDBRANCH  35  36
ENDBRANCH  15  35
TORSDOF 6
