REMARK  Name = ZINC04369786
REMARK  13 active torsions:
REMARK  status: ('A' for Active; 'I' for Inactive)
REMARK    1  A    between atoms: C_1  and  C_2
REMARK    2  A    between atoms: C_2  and  C_4
REMARK    3  A    between atoms: C_2  and  C_10
REMARK    4  A    between atoms: C_4  and  C_5
REMARK    5  A    between atoms: C_5  and  C_6
REMARK    6  A    between atoms: C_6  and  C_7
REMARK    7  A    between atoms: C_7  and  C_8
REMARK    8  A    between atoms: C_7  and  C_9
REMARK    9  A    between atoms: C_16  and  C_37
REMARK   10  A    between atoms: C_24  and  O_36
REMARK   11  A    between atoms: C_26  and  O_35
REMARK   12  A    between atoms: C_27  and  C_34
REMARK   13  A    between atoms: C_30  and  O_33
REMARK                            x       y       z     vdW  Elec       q    Type
REMARK                         _______ _______ _______ _____ _____    ______ ____
ROOT
ATOM      1  C   UNL     1       0.709  -0.635  -1.102  0.00  0.00    -0.002 C 
ATOM      2  C   UNL     1      -0.052   0.005  -2.295  0.00  0.00    +0.004 C 
ATOM      3  C   UNL     1      -0.964  -1.110  -2.885  0.00  0.00    +0.004 C 
ATOM      4  C   UNL     1      -1.029  -2.115  -1.723  0.00  0.00    -0.001 C 
ATOM      5  C   UNL     1       0.444  -2.145  -1.270  0.00  0.00    -0.026 C 
ATOM      6  C   UNL     1       0.622  -3.011  -0.057  0.00  0.00    +0.007 C 
ATOM      7  C   UNL     1      -0.081  -4.369  -0.208  0.00  0.00    +0.005 C 
ATOM      8  C   UNL     1      -0.656  -4.590  -1.595  0.00  0.00    +0.001 C 
ATOM      9  C   UNL     1      -1.603  -3.471  -2.005  0.00  0.00    -0.001 C 
ATOM     10  C   UNL     1      -2.019  -3.662  -3.459  0.00  0.00    +0.038 C 
ATOM     11  C   UNL     1      -2.694  -5.023  -3.644  0.00  0.00    +0.147 C 
ATOM     12  C   UNL     1      -2.726  -5.821  -2.349  0.00  0.00    +0.100 C 
ATOM     13  C   UNL     1      -1.341  -5.951  -1.725  0.00  0.00    +0.002 C 
ATOM     14  C   UNL     1      -1.478  -6.634  -0.365  0.00  0.00    +0.012 C 
ATOM     15  C   UNL     1      -2.093  -8.023  -0.534  0.00  0.00    +0.032 C 
ATOM     16  C   UNL     1      -3.425  -7.960  -1.273  0.00  0.00    +0.117 C 
ATOM     17  C   UNL     1      -3.290  -7.227  -2.607  0.00  0.00    +0.069 C 
ATOM     18  C   UNL     1      -0.439  -6.815  -2.622  0.00  0.00    +0.014 C 
ATOM     19  C   UNL     1       1.393  -2.591  -2.392  0.00  0.00    +0.012 C 
ENDROOT
BRANCH   1  21
ATOM     20  C   UNL     1      -1.358  -0.134   0.197  0.00  0.00    +0.008 C 
ATOM     21  C   UNL     1       0.171  -0.099   0.218  0.00  0.00    -0.010 C 
BRANCH  21  22
ATOM     22  C   UNL     1       0.647   1.341   0.415  0.00  0.00    +0.003 C 
BRANCH  22  23
ATOM     23  C   UNL     1       0.089   1.887   1.732  0.00  0.00    +0.001 C 
BRANCH  23  24
ATOM     24  C   UNL     1       0.565   3.327   1.929  0.00  0.00    +0.003 C 
BRANCH  24  25
ATOM     25  C   UNL     1       0.007   3.872   3.246  0.00  0.00    -0.017 C 
ATOM     26  C   UNL     1       0.602   3.086   4.416  0.00  0.00    +0.007 C 
ATOM     27  C   UNL     1       0.378   5.350   3.384  0.00  0.00    +0.007 C 
ENDBRANCH  24  25
ENDBRANCH  23  24
ENDBRANCH  22  23
ENDBRANCH  21  22
ENDBRANCH   1  21
BRANCH  16  28
ATOM     28  O   UNL     1      -3.891  -9.293  -1.517  0.00  0.00    -0.392 OA
ATOM     29  H   UNL     1      -4.031  -9.814  -0.715  0.00  0.00    +0.210 HD
ENDBRANCH  16  28
BRANCH  12  30
ATOM     30  O   UNL     1      -3.629  -5.199  -1.421  0.00  0.00    -0.385 OA
ATOM     31  H   UNL     1      -4.540  -5.139  -1.740  0.00  0.00    +0.210 HD
ENDBRANCH  12  30
BRANCH  11  32
ATOM     32  O   UNL     1      -4.038  -4.813  -4.102  0.00  0.00    -0.389 OA
ATOM     33  H   UNL     1      -4.098  -4.341  -4.944  0.00  0.00    +0.210 HD
ENDBRANCH  11  32
TORSDOF 8
