REMARK  Name = ZINC45898573
REMARK  10 active torsions:
REMARK  status: ('A' for Active; 'I' for Inactive)
REMARK    1  A    between atoms: N_9  and  C_23
REMARK    2  A    between atoms: N_12  and  C_13
REMARK    3  A    between atoms: C_13  and  C_14
REMARK    4  A    between atoms: N_16  and  C_17
REMARK    5  A    between atoms: C_17  and  C_18
REMARK    6  A    between atoms: C_23  and  C_24
REMARK    7  A    between atoms: C_24  and  C_25
REMARK    8  A    between atoms: C_25  and  C_26
REMARK    9  A    between atoms: C_26  and  C_27
REMARK   10  A    between atoms: N_29  and  C_30
REMARK                            x       y       z     vdW  Elec       q    Type
REMARK                         _______ _______ _______ _____ _____    ______ ____
ROOT
ATOM      1  C   UNL     1      -0.056   1.360   0.020  0.00  0.00    +0.001 A 
ATOM      2  C   UNL     1       1.126   2.085   0.006  0.00  0.00    +0.002 A 
ATOM      3  C   UNL     1       2.347   1.440  -0.014  0.00  0.00    +0.027 A 
ATOM      4  C   UNL     1       2.393   0.054  -0.022  0.00  0.00    +0.059 A 
ATOM      5  C   UNL     1       1.196  -0.682  -0.008  0.00  0.00    +0.063 A 
ATOM      6  C   UNL     1      -0.029  -0.019   0.012  0.00  0.00    +0.015 A 
ATOM      7  C   UNL     1       1.282  -2.153  -0.016  0.00  0.00    +0.264 A 
ATOM      8  O   UNL     1       0.276  -2.837  -0.006  0.00  0.00    -0.267 OA
ATOM      9  N   UNL     1       2.506  -2.723  -0.036  0.00  0.00    -0.260 N 
ATOM     10  C   UNL     1       3.622  -1.976  -0.049  0.00  0.00    +0.333 A 
ATOM     11  O   UNL     1       4.699  -2.540  -0.066  0.00  0.00    -0.246 OA
ATOM     12  N   UNL     1       3.599  -0.632  -0.042  0.00  0.00    -0.284 N 
ENDROOT
BRANCH  12  13
ATOM     13  C   UNL     1       4.859   0.115  -0.057  0.00  0.00    +0.222 C 
BRANCH  13  14
ATOM     14  C   UNL     1       5.311   0.364   1.359  0.00  0.00    +0.233 C 
ATOM     15  O   UNL     1       4.646  -0.042   2.289  0.00  0.00    -0.274 OA
ATOM     16  N   UNL     1       6.455   1.039   1.593  0.00  0.00    -0.307 N 
ATOM     17  H   UNL     1       6.986   1.364   0.849  0.00  0.00    +0.149 HD
BRANCH  16  18
ATOM     18  C   UNL     1       6.894   1.282   2.969  0.00  0.00    +0.178 C 
BRANCH  18  19
ATOM     19  C   UNL     1       8.190   2.050   2.954  0.00  0.00    +0.122 A 
ATOM     20  C   UNL     1       8.311   3.390   2.964  0.00  0.00    +0.046 A 
ATOM     21  C   UNL     1       9.695   3.677   2.943  0.00  0.00    +0.041 A 
ATOM     22  C   UNL     1      10.338   2.495   2.922  0.00  0.00    +0.195 A 
ATOM     23  O   UNL     1       9.421   1.514   2.935  0.00  0.00    -0.466 OA
ENDBRANCH  18  19
ENDBRANCH  16  18
ENDBRANCH  13  14
ENDBRANCH  12  13
BRANCH   9  24
ATOM     24  C   UNL     1       2.619  -4.183  -0.044  0.00  0.00    +0.130 C 
BRANCH  24  25
ATOM     25  C   UNL     1       2.638  -4.686  -1.489  0.00  0.00    +0.022 C 
BRANCH  25  26
ATOM     26  C   UNL     1       2.756  -6.211  -1.497  0.00  0.00    +0.011 C 
BRANCH  26  27
ATOM     27  C   UNL     1       2.775  -6.713  -2.942  0.00  0.00    +0.096 C 
BRANCH  27  28
ATOM     28  C   UNL     1       2.891  -8.216  -2.950  0.00  0.00    +0.217 C 
ATOM     29  O   UNL     1       2.953  -8.825  -1.903  0.00  0.00    -0.275 OA
ATOM     30  N   UNL     1       2.926  -8.883  -4.121  0.00  0.00    -0.285 N 
ATOM     31  H   UNL     1       2.809  -8.403  -4.956  0.00  0.00    +0.155 HD
BRANCH  30  32
ATOM     32  C   UNL     1       3.131 -10.268  -4.132  0.00  0.00    +0.034 A 
ATOM     33  C   UNL     1       3.867 -10.854  -5.153  0.00  0.00    +0.026 A 
ATOM     34  C   UNL     1       4.068 -12.220  -5.162  0.00  0.00    +0.040 A 
ATOM     35  C   UNL     1       3.536 -13.006  -4.153  0.00  0.00    +0.124 A 
ATOM     36  C   UNL     1       2.802 -12.424  -3.134  0.00  0.00    +0.040 A 
ATOM     37  C   UNL     1       2.604 -11.057  -3.118  0.00  0.00    +0.026 A 
ATOM     38  F   UNL     1       3.733 -14.342  -4.164  0.00  0.00    -0.205 F 
ENDBRANCH  30  32
ENDBRANCH  27  28
ENDBRANCH  26  27
ENDBRANCH  25  26
ENDBRANCH  24  25
ENDBRANCH   9  24
TORSDOF 10
