REMARK  Name = ZINC12787949
REMARK  8 active torsions:
REMARK  status: ('A' for Active; 'I' for Inactive)
REMARK    1  A    between atoms: C_1  and  C_2
REMARK    2  A    between atoms: C_5  and  C_27
REMARK    3  A    between atoms: C_7  and  N_8
REMARK    4  A    between atoms: C_9  and  C_11
REMARK    5  A    between atoms: C_11  and  C_12
REMARK    6  A    between atoms: C_12  and  N_13
REMARK    7  A    between atoms: C_27  and  O_29
REMARK    8  A    between atoms: O_29  and  C_30
REMARK                            x       y       z     vdW  Elec       q    Type
REMARK                         _______ _______ _______ _____ _____    ______ ____
ROOT
ATOM      1  C   UNL     1       0.003  -0.004   0.017  0.00  0.00    +0.118 C 
ENDROOT
BRANCH   1   3
ATOM      2  N   UNL     1      -1.640  -1.854   0.008  0.00  0.00    -0.285 N 
ATOM      3  C   UNL     1      -1.411  -0.526   0.016  0.00  0.00    +0.219 C 
ATOM      4  O   UNL     1      -2.344   0.250   0.022  0.00  0.00    -0.275 OA
ATOM      5  H   UNL     1      -0.898  -2.473  -0.078  0.00  0.00    +0.155 HD
BRANCH   2  12
ATOM      6  C   UNL     1      -2.213  -4.422  -1.065  0.00  0.00    +0.045 C 
ATOM      7  C   UNL     1      -3.271  -3.591  -0.387  0.00  0.00    -0.029 A 
ATOM      8  C   UNL     1      -4.560  -4.078  -0.271  0.00  0.00    +0.006 A 
ATOM      9  C   UNL     1      -5.536  -3.320   0.343  0.00  0.00    +0.015 A 
ATOM     10  C   UNL     1      -5.222  -2.059   0.855  0.00  0.00    +0.061 A 
ATOM     11  C   UNL     1      -3.921  -1.570   0.742  0.00  0.00    +0.038 A 
ATOM     12  C   UNL     1      -2.947  -2.340   0.123  0.00  0.00    +0.037 A 
BRANCH  10  13
ATOM     13  C   UNL     1      -6.265  -1.246   1.513  0.00  0.00    +0.339 C 
ATOM     14  O   UNL     1      -5.990  -0.149   1.957  0.00  0.00    -0.245 OA
BRANCH  13  15
ATOM     15  O   UNL     1      -7.521  -1.720   1.620  0.00  0.00    -0.464 OA
ATOM     16  C   UNL     1      -8.494  -0.867   2.279  0.00  0.00    +0.280 C 
ENDBRANCH  13  15
ENDBRANCH  10  13
ENDBRANCH   2  12
ENDBRANCH   1   3
BRANCH   1  17
ATOM     17  C   UNL     1      -0.018   1.525   0.026  0.00  0.00    +0.135 C 
BRANCH  17  18
ATOM     18  N   UNL     1       1.357   2.032   0.027  0.00  0.00    -0.298 N 
ATOM     19  C   UNL     1       1.980   2.260   1.212  0.00  0.00    +0.203 A 
ATOM     20  N   UNL     1       3.207   2.708   1.255  0.00  0.00    -0.230 NA
ATOM     21  C   UNL     1       3.881   2.963   0.137  0.00  0.00    +0.116 A 
ATOM     22  C   UNL     1       3.318   2.764  -1.134  0.00  0.00    +0.076 A 
ATOM     23  C   UNL     1       1.974   2.267  -1.146  0.00  0.00    +0.262 A 
ATOM     24  O   UNL     1       1.399   2.061  -2.201  0.00  0.00    -0.267 OA
ATOM     25  C   UNL     1       4.177   3.088  -2.272  0.00  0.00    -0.023 A 
ATOM     26  C   UNL     1       5.416   3.544  -1.994  0.00  0.00    -0.004 A 
ATOM     27  S   UNL     1       5.510   3.567  -0.224  0.00  0.00    -0.073 S 
ATOM     28  C   UNL     1       6.478   3.942  -2.973  0.00  0.00    +0.043 C 
ATOM     29  C   UNL     1       6.085   3.406  -4.357  0.00  0.00    +0.005 C 
ATOM     30  C   UNL     1       4.619   3.759  -4.623  0.00  0.00    +0.005 C 
ATOM     31  C   UNL     1       3.712   2.926  -3.717  0.00  0.00    +0.037 C 
ENDBRANCH  17  18
ENDBRANCH   1  17
TORSDOF 6
