REMARK  Name = ZINC12777731
REMARK  14 active torsions:
REMARK  status: ('A' for Active; 'I' for Inactive)
REMARK    1  A    between atoms: C_1  and  C_2
REMARK    2  A    between atoms: C_2  and  C_3
REMARK    3  A    between atoms: C_6  and  C_9
REMARK    4  A    between atoms: C_9  and  C_11
REMARK    5  A    between atoms: C_9  and  N_71
REMARK    6  A    between atoms: C_11  and  N_12
REMARK    7  A    between atoms: C_13  and  C_15
REMARK    8  A    between atoms: C_15  and  C_16
REMARK    9  A    between atoms: C_16  and  C_17
REMARK   10  A    between atoms: N_20  and  C_28
REMARK   11  A    between atoms: C_31  and  O_34
REMARK   12  A    between atoms: O_34  and  C_35
REMARK   13  A    between atoms: C_36  and  N_71
REMARK   14  A    between atoms: C_37  and  N_71
REMARK                            x       y       z     vdW  Elec       q    Type
REMARK                         _______ _______ _______ _____ _____    ______ ____
ROOT
ATOM      1  C   UNL     1      -5.617   3.883  -0.811  0.00  0.00    +0.070 C 
ENDROOT
BRANCH   1   2
ATOM      2  C   UNL     1      -4.552   2.817  -0.798  0.00  0.00    +0.107 A 
ATOM      3  C   UNL     1      -4.925   1.414  -0.601  0.00  0.00    +0.278 A 
ATOM      4  O   UNL     1      -6.093   1.102  -0.448  0.00  0.00    -0.265 OA
ATOM      5  N   UNL     1      -3.959   0.469  -0.591  0.00  0.00    -0.274 N 
ATOM      6  C   UNL     1      -2.645   0.856  -0.767  0.00  0.00    +0.075 A 
ATOM      7  C   UNL     1      -1.626  -0.092  -0.762  0.00  0.00    +0.028 A 
ATOM      8  C   UNL     1      -0.320   0.305  -0.945  0.00  0.00    +0.002 A 
ATOM      9  C   UNL     1      -0.009   1.646  -1.128  0.00  0.00    +0.002 A 
ATOM     10  C   UNL     1      -0.991   2.593  -1.131  0.00  0.00    +0.030 A 
ATOM     11  C   UNL     1      -2.330   2.216  -0.948  0.00  0.00    +0.088 A 
ATOM     12  N   UNL     1      -3.301   3.149  -0.950  0.00  0.00    -0.245 NA
BRANCH   5  13
ATOM     13  C   UNL     1      -4.285  -0.879  -0.405  0.00  0.00    +0.050 A 
ATOM     14  C   UNL     1      -4.381  -1.728  -1.500  0.00  0.00    +0.030 A 
ATOM     15  C   UNL     1      -4.698  -3.059  -1.315  0.00  0.00    +0.047 A 
ATOM     16  C   UNL     1      -4.930  -3.547  -0.036  0.00  0.00    +0.120 A 
ATOM     17  C   UNL     1      -4.839  -2.698   1.058  0.00  0.00    +0.047 A 
ATOM     18  C   UNL     1      -4.517  -1.368   0.875  0.00  0.00    +0.030 A 
BRANCH  16  19
ATOM     19  O   UNL     1      -5.247  -4.856   0.144  0.00  0.00    -0.495 OA
ATOM     20  C   UNL     1      -5.324  -5.673  -1.026  0.00  0.00    +0.277 C 
ENDBRANCH  16  19
ENDBRANCH   5  13
ENDBRANCH   1   2
BRANCH   1  21
ATOM     21  C   UNL     1      -4.968   5.251  -1.032  0.00  0.00    +0.102 C 
BRANCH  21  23
ATOM     22  N   UNL     1      -5.694   7.607  -1.226  0.00  0.00    -0.317 N 
ATOM     23  C   UNL     1      -6.034   6.316  -1.046  0.00  0.00    +0.213 C 
ATOM     24  O   UNL     1      -7.198   6.011  -0.894  0.00  0.00    -0.276 OA
ATOM     25  H   UNL     1      -4.763   7.851  -1.348  0.00  0.00    +0.149 HD
BRANCH  22  26
ATOM     26  C   UNL     1      -6.729   8.643  -1.240  0.00  0.00    +0.093 C 
BRANCH  26  27
ATOM     27  C   UNL     1      -6.070  10.024  -1.272  0.00  0.00    -0.021 C 
BRANCH  27  31
ATOM     28  C   UNL     1      -9.087  13.035  -1.546  0.00  0.00    -0.048 A 
ATOM     29  C   UNL     1      -8.505  12.533  -2.695  0.00  0.00    +0.004 A 
ATOM     30  C   UNL     1      -7.529  11.559  -2.606  0.00  0.00    +0.002 A 
ATOM     31  C   UNL     1      -7.134  11.086  -1.369  0.00  0.00    -0.059 A 
ATOM     32  C   UNL     1      -7.720  11.585  -0.220  0.00  0.00    +0.002 A 
ATOM     33  C   UNL     1      -8.693  12.563  -0.309  0.00  0.00    +0.004 A 
BRANCH  28  35
ATOM     34  C   UNL     1     -11.527  13.434  -1.743  0.00  0.00    +0.009 C 
ATOM     35  C   UNL     1     -10.152  14.098  -1.643  0.00  0.00    +0.032 C 
ENDBRANCH  28  35
ENDBRANCH  27  31
BRANCH  27  38
ATOM     36  C   UNL     1      -5.827   9.411   1.058  0.00  0.00    -0.096 C 
ATOM     37  C   UNL     1      -3.869   9.929  -0.268  0.00  0.00    -0.096 C 
ATOM     38  N   UNL     1      -5.293  10.250  -0.035  0.00  0.00    +0.382 N 
ATOM     39  H   UNL     1      -5.372  11.238   0.233  0.00  0.00    -0.082 HD
ENDBRANCH  27  38
ENDBRANCH  26  27
ENDBRANCH  22  26
ENDBRANCH  21  23
ENDBRANCH   1  21
TORSDOF 10
