REMARK  Name = ZINC09313449
REMARK  10 active torsions:
REMARK  status: ('A' for Active; 'I' for Inactive)
REMARK    1  A    between atoms: C_1  and  C_2
REMARK    2  A    between atoms: C_2  and  C_3
REMARK    3  A    between atoms: C_3  and  C_4
REMARK    4  A    between atoms: C_3  and  N_6
REMARK    5  A    between atoms: C_4  and  C_5
REMARK    6  A    between atoms: C_7  and  C_9
REMARK    7  A    between atoms: C_9  and  N_10
REMARK    8  A    between atoms: C_15  and  C_22
REMARK    9  A    between atoms: C_18  and  C_20
REMARK   10  A    between atoms: C_18  and  C_21
REMARK                            x       y       z     vdW  Elec       q    Type
REMARK                         _______ _______ _______ _____ _____    ______ ____
ROOT
ATOM      1  N   UNL     1      -2.115  -3.350  -1.748  0.00  0.00    -0.215 N 
ATOM      2  C   UNL     1      -1.093  -2.545  -1.384  0.00  0.00    +0.247 C 
ATOM      3  O   UNL     1      -0.123  -2.273  -2.059  0.00  0.00    -0.273 OA
ATOM      4  C   UNL     1      -1.433  -2.050   0.001  0.00  0.00    +0.113 C 
ATOM      5  C   UNL     1      -1.434  -0.529   0.045  0.00  0.00    +0.038 C 
ATOM      6  C   UNL     1       0.002  -0.004   0.002  0.00  0.00    -0.011 C 
ATOM      7  C   UNL     1       0.741  -0.507   1.240  0.00  0.00    +0.009 C 
ATOM      8  C   UNL     1       0.809  -2.030   1.253  0.00  0.00    -0.032 C 
ATOM      9  C   UNL     1      -0.550  -2.678   1.061  0.00  0.00    +0.041 C 
ATOM     10  C   UNL     1       1.799  -2.521   0.193  0.00  0.00    +0.011 C 
ATOM     11  C   UNL     1       1.355  -2.464   2.631  0.00  0.00    +0.011 C 
ATOM     12  C   UNL     1      -0.019   1.528   0.010  0.00  0.00    +0.007 C 
ATOM     13  N   UNL     1      -2.819  -2.530   0.200  0.00  0.00    -0.285 N 
ATOM     14  C   UNL     1      -3.100  -3.330  -0.844  0.00  0.00    +0.310 C 
ATOM     15  O   UNL     1      -4.132  -3.963  -0.954  0.00  0.00    -0.252 OA
ATOM     16  H   UNL     1      -3.398  -2.304   0.942  0.00  0.00    +0.151 HD
ENDROOT
BRANCH   1  17
ATOM     17  C   UNL     1      -2.138  -4.144  -2.978  0.00  0.00    +0.213 C 
BRANCH  17  19
ATOM     18  N   UNL     1      -1.453  -6.407  -3.705  0.00  0.00    -0.311 N 
ATOM     19  C   UNL     1      -1.537  -5.500  -2.712  0.00  0.00    +0.231 C 
ATOM     20  O   UNL     1      -1.130  -5.776  -1.603  0.00  0.00    -0.274 OA
ATOM     21  H   UNL     1      -1.778  -6.186  -4.592  0.00  0.00    +0.149 HD
BRANCH  18  22
ATOM     22  C   UNL     1      -0.869  -7.725  -3.447  0.00  0.00    +0.072 C 
BRANCH  22  24
ATOM     23  C   UNL     1      -2.403  -8.143  -1.520  0.00  0.00    +0.006 C 
ATOM     24  C   UNL     1      -1.944  -8.658  -2.885  0.00  0.00    +0.019 C 
ENDBRANCH  22  24
BRANCH  22  25
ATOM     25  C   UNL     1      -0.321  -8.306  -4.752  0.00  0.00    +0.019 C 
ATOM     26  C   UNL     1       0.839  -7.440  -5.248  0.00  0.00    +0.006 C 
ENDBRANCH  22  25
ENDBRANCH  18  22
ENDBRANCH  17  19
ENDBRANCH   1  17
TORSDOF 5
