REMARK  Name = ZINC38806199
REMARK  12 active torsions:
REMARK  status: ('A' for Active; 'I' for Inactive)
REMARK    1  A    between atoms: C_1  and  C_2
REMARK    2  A    between atoms: C_2  and  O_3
REMARK    3  A    between atoms: O_3  and  C_4
REMARK    4  A    between atoms: C_4  and  C_6
REMARK    5  A    between atoms: C_10  and  N_11
REMARK    6  A    between atoms: C_12  and  C_14
REMARK    7  A    between atoms: C_16  and  C_21
REMARK    8  A    between atoms: C_18  and  C_20
REMARK    9  A    between atoms: C_22  and  C_28
REMARK   10  A    between atoms: C_22  and  C_29
REMARK   11  A    between atoms: C_24  and  C_26
REMARK   12  A    between atoms: C_24  and  C_27
REMARK                            x       y       z     vdW  Elec       q    Type
REMARK                         _______ _______ _______ _____ _____    ______ ____
ROOT
ATOM      1  C   UNL     1       1.449  -2.344  -2.516  0.00  0.00    +0.091 A 
ATOM      2  C   UNL     1       2.868  -2.618  -2.533  0.00  0.00    -0.024 A 
ATOM      3  C   UNL     1       3.334  -3.112  -3.704  0.00  0.00    -0.016 A 
ATOM      4  S   UNL     1       1.904  -3.213  -4.738  0.00  0.00    -0.079 S 
ATOM      5  C   UNL     1       0.741  -2.622  -3.680  0.00  0.00    +0.086 A 
ATOM      6  C   UNL     1       4.750  -3.468  -4.013  0.00  0.00    -0.041 C 
ATOM      7  N   UNL     1       5.604  -3.433  -2.826  0.00  0.00    +0.389 N 
ATOM      8  C   UNL     1       4.932  -3.499  -1.536  0.00  0.00    -0.069 C 
ATOM      9  C   UNL     1       3.854  -2.417  -1.392  0.00  0.00    +0.024 C 
ATOM     10  C   UNL     1       4.305  -4.876  -1.309  0.00  0.00    -0.010 C 
ATOM     11  C   UNL     1       5.980  -3.269  -0.430  0.00  0.00    -0.010 C 
ATOM     12  C   UNL     1       4.797  -4.860  -4.658  0.00  0.00    -0.005 C 
ATOM     13  C   UNL     1       5.290  -2.453  -5.039  0.00  0.00    -0.005 C 
ATOM     14  H   UNL     1       6.273  -4.203  -2.884  0.00  0.00    -0.084 HD
ATOM     15  H   UNL     1       6.164  -2.579  -2.856  0.00  0.00    -0.084 HD
ENDROOT
BRANCH   5  16
ATOM     16  N   UNL     1      -0.613  -2.450  -3.912  0.00  0.00    -0.275 N 
ATOM     17  C   UNL     1      -1.138  -2.774  -5.111  0.00  0.00    +0.249 C 
ATOM     18  O   UNL     1      -0.423  -3.217  -5.988  0.00  0.00    -0.270 OA
ATOM     19  H   UNL     1      -1.184  -2.096  -3.212  0.00  0.00    +0.156 HD
BRANCH  17  20
ATOM     20  C   UNL     1      -2.583  -2.590  -5.358  0.00  0.00    +0.038 A 
ATOM     21  C   UNL     1      -3.407  -2.076  -4.355  0.00  0.00    +0.016 A 
ATOM     22  C   UNL     1      -4.755  -1.906  -4.593  0.00  0.00    -0.049 A 
ATOM     23  C   UNL     1      -5.292  -2.245  -5.823  0.00  0.00    +0.006 A 
ATOM     24  C   UNL     1      -4.481  -2.756  -6.821  0.00  0.00    -0.049 A 
ATOM     25  C   UNL     1      -3.130  -2.925  -6.598  0.00  0.00    +0.016 A 
ATOM     26  C   UNL     1      -5.075  -3.123  -8.157  0.00  0.00    +0.044 C 
ATOM     27  C   UNL     1      -5.646  -1.351  -3.511  0.00  0.00    +0.044 C 
ENDBRANCH  17  20
ENDBRANCH   5  16
BRANCH   1  28
ATOM     28  C   UNL     1       0.776  -1.800  -1.335  0.00  0.00    +0.342 C 
ATOM     29  O   UNL     1       0.312  -2.552  -0.499  0.00  0.00    -0.245 OA
BRANCH  28  30
ATOM     30  O   UNL     1       0.671  -0.465  -1.174  0.00  0.00    -0.461 OA
BRANCH  30  32
ATOM     31  C   UNL     1      -0.019   1.526   0.010  0.00  0.00    +0.048 C 
ATOM     32  C   UNL     1       0.002  -0.004   0.002  0.00  0.00    +0.229 C 
ENDBRANCH  30  32
ENDBRANCH  28  30
ENDBRANCH   1  28
TORSDOF 5
