REMARK  Name = ZINC36083329
REMARK  13 active torsions:
REMARK  status: ('A' for Active; 'I' for Inactive)
REMARK    1  A    between atoms: C_1  and  C_2
REMARK    2  A    between atoms: C_2  and  N_3
REMARK    3  A    between atoms: N_3  and  C_4
REMARK    4  A    between atoms: N_3  and  C_6
REMARK    5  A    between atoms: C_4  and  C_5
REMARK    6  A    between atoms: C_6  and  C_7
REMARK    7  A    between atoms: C_7  and  N_8
REMARK    8  A    between atoms: N_8  and  C_9
REMARK    9  A    between atoms: C_9  and  C_10
REMARK   10  A    between atoms: C_22  and  C_25
REMARK   11  A    between atoms: N_34  and  C_35
REMARK   12  A    between atoms: C_35  and  C_36
REMARK   13  A    between atoms: C_35  and  C_37
REMARK                            x       y       z     vdW  Elec       q    Type
REMARK                         _______ _______ _______ _____ _____    ______ ____
ROOT
ATOM      1  C   UNL     1       2.096  -5.328  -2.828  0.00  0.00    +0.233 C 
ATOM      2  O   UNL     1       2.993  -4.646  -3.276  0.00  0.00    -0.274 OA
ATOM      3  N   UNL     1       1.392  -6.137  -3.644  0.00  0.00    -0.299 N 
ATOM      4  C   UNL     1       1.757  -6.159  -5.061  0.00  0.00    +0.109 C 
ATOM      5  C   UNL     1       2.661  -7.353  -5.294  0.00  0.00    +0.038 C 
ATOM      6  C   UNL     1       1.827  -8.606  -5.575  0.00  0.00    +0.108 C 
ATOM      7  N   UNL     1       0.643  -8.703  -4.707  0.00  0.00    -0.312 N 
ATOM      8  C   UNL     1       0.674  -8.414  -3.283  0.00  0.00    +0.125 C 
ATOM      9  C   UNL     1       0.351  -6.915  -3.069  0.00  0.00    +0.126 C 
ATOM     10  C   UNL     1      -0.564  -9.089  -5.276  0.00  0.00    +0.144 A 
ATOM     11  C   UNL     1      -0.593  -9.600  -6.575  0.00  0.00    +0.047 A 
ATOM     12  C   UNL     1      -1.817  -9.971  -7.101  0.00  0.00    +0.033 A 
ATOM     13  C   UNL     1      -2.951  -9.812  -6.297  0.00  0.00    +0.093 A 
ATOM     14  N   UNL     1      -2.827  -9.318  -5.073  0.00  0.00    -0.147 NA
ATOM     15  N   UNL     1      -1.689  -8.979  -4.585  0.00  0.00    -0.134 NA
ENDROOT
BRANCH  13  16
ATOM     16  C   UNL     1      -4.288 -10.195  -6.813  0.00  0.00    +0.002 A 
ATOM     17  C   UNL     1      -4.417 -10.720  -8.098  0.00  0.00    +0.013 A 
ATOM     18  C   UNL     1      -5.663 -11.074  -8.573  0.00  0.00    +0.039 A 
ATOM     19  C   UNL     1      -6.784 -10.910  -7.776  0.00  0.00    +0.123 A 
ATOM     20  C   UNL     1      -6.660 -10.389  -6.498  0.00  0.00    +0.039 A 
ATOM     21  C   UNL     1      -5.418 -10.037  -6.012  0.00  0.00    +0.013 A 
ATOM     22  F   UNL     1      -8.002 -11.258  -8.246  0.00  0.00    -0.205 F 
ENDBRANCH  13  16
BRANCH   1  23
ATOM     23  C   UNL     1       1.767  -5.270  -1.358  0.00  0.00    +0.205 C 
BRANCH  23  24
ATOM     24  N   UNL     1       2.666  -4.324  -0.693  0.00  0.00    -0.279 N 
ATOM     25  C   UNL     1       3.838  -4.753  -0.184  0.00  0.00    +0.303 C 
ATOM     26  O   UNL     1       4.148  -5.925  -0.276  0.00  0.00    -0.253 OA
ATOM     27  N   UNL     1       4.666  -3.883   0.428  0.00  0.00    -0.297 N 
ATOM     28  H   UNL     1       4.418  -2.948   0.501  0.00  0.00    +0.150 HD
BRANCH  27  29
ATOM     29  C   UNL     1       5.939  -4.350   0.982  0.00  0.00    +0.068 C 
ATOM     30  C   UNL     1       6.927  -3.183   1.042  0.00  0.00    +0.027 C 
ATOM     31  C   UNL     1       5.712  -4.898   2.392  0.00  0.00    +0.027 C 
ENDBRANCH  27  29
BRANCH  24  32
ATOM     32  C   UNL     1       2.293  -2.912  -0.582  0.00  0.00    +0.091 C 
BRANCH  32  33
ATOM     33  C   UNL     1       1.515  -2.691   0.717  0.00  0.00    -0.060 C 
BRANCH  33  34
ATOM     34  N   UNL     1       1.141  -1.275   0.828  0.00  0.00    +0.380 N 
ATOM     35  H   UNL     1       1.967  -0.701   0.751  0.00  0.00    -0.082 HD
BRANCH  34  37
ATOM     36  C   UNL     1      -0.076   0.574  -0.221  0.00  0.00    -0.017 C 
ATOM     37  C   UNL     1       0.203  -0.930  -0.249  0.00  0.00    -0.082 C 
ENDBRANCH  34  37
BRANCH  34  38
ATOM     38  C   UNL     1       0.500  -1.038   2.129  0.00  0.00    -0.082 C 
ATOM     39  C   UNL     1       1.520  -1.258   3.247  0.00  0.00    -0.017 C 
ENDBRANCH  34  38
ENDBRANCH  33  34
ENDBRANCH  32  33
ENDBRANCH  24  32
ENDBRANCH  23  24
ENDBRANCH   1  23
TORSDOF 9
