REMARK  Name = ZINC39669146
REMARK  4 active torsions:
REMARK  status: ('A' for Active; 'I' for Inactive)
REMARK    1  A    between atoms: C_10  and  C_12
REMARK    2  A    between atoms: C_12  and  N_13
REMARK    3  A    between atoms: C_14  and  C_16
REMARK    4  A    between atoms: C_27  and  C_29
REMARK                            x       y       z     vdW  Elec       q    Type
REMARK                         _______ _______ _______ _____ _____    ______ ____
ROOT
ATOM      1  C   UNL     1       8.383  -0.793   1.494  0.00  0.00    +0.100 C 
ATOM      2  C   UNL     1       8.915  -0.669   0.049  0.00  0.00    +0.121 C 
ATOM      3  N   UNL     1       9.748   0.557   0.060  0.00  0.00    -0.297 N 
ATOM      4  C   UNL     1      10.451   0.512   1.365  0.00  0.00    +0.115 C 
ATOM      5  C   UNL     1       9.396  -0.020   2.355  0.00  0.00    -0.004 C 
ATOM      6  C   UNL     1       8.707   1.142   3.065  0.00  0.00    -0.010 C 
ATOM      7  C   UNL     1       9.721   1.861   3.959  0.00  0.00    -0.082 C 
ATOM      8  N   UNL     1      10.268   0.916   4.940  0.00  0.00    +0.379 N 
ATOM      9  C   UNL     1      11.008  -0.148   4.253  0.00  0.00    -0.082 C 
ATOM     10  C   UNL     1      10.048  -0.953   3.371  0.00  0.00    -0.010 C 
ATOM     11  C   UNL     1       9.845   1.499  -0.899  0.00  0.00    +0.260 C 
ATOM     12  O   UNL     1      10.577   2.453  -0.740  0.00  0.00    -0.271 OA
ATOM     13  H   UNL     1      10.890   1.406   5.566  0.00  0.00    -0.086 HD
ATOM     14  H   UNL     1       9.512   0.510   5.471  0.00  0.00    -0.086 HD
ENDROOT
BRANCH  11  15
ATOM     15  C   UNL     1       9.043   1.368  -2.168  0.00  0.00    +0.296 C 
ATOM     16  C   UNL     1       9.523   0.143  -2.959  0.00  0.00    +0.283 C 
ATOM     17  O   UNL     1       8.751   0.057  -4.162  0.00  0.00    -0.484 OA
ATOM     18  C   UNL     1       8.587   1.209  -4.867  0.00  0.00    +0.162 A 
ATOM     19  C   UNL     1       8.179   1.144  -6.191  0.00  0.00    +0.049 A 
ATOM     20  C   UNL     1       8.005   2.306  -6.920  0.00  0.00    +0.004 A 
ATOM     21  C   UNL     1       8.237   3.535  -6.331  0.00  0.00    +0.004 A 
ATOM     22  C   UNL     1       8.645   3.606  -5.013  0.00  0.00    +0.049 A 
ATOM     23  C   UNL     1       8.823   2.444  -4.276  0.00  0.00    +0.163 A 
ATOM     24  O   UNL     1       9.232   2.531  -2.981  0.00  0.00    -0.473 OA
ENDBRANCH  11  15
BRANCH   1  26
ATOM     25  N   UNL     1       6.142  -0.623   2.527  0.00  0.00    -0.312 N 
ATOM     26  C   UNL     1       7.016  -0.171   1.606  0.00  0.00    +0.218 C 
ATOM     27  O   UNL     1       6.701   0.738   0.866  0.00  0.00    -0.275 OA
ATOM     28  H   UNL     1       6.394  -1.350   3.118  0.00  0.00    +0.149 HD
BRANCH  25  29
ATOM     29  C   UNL     1       4.813  -0.018   2.635  0.00  0.00    +0.140 C 
BRANCH  29  39
ATOM     30  C   UNL     1       0.028   0.804   3.756  0.00  0.00    +0.000 A 
ATOM     31  C   UNL     1       0.658   0.490   2.565  0.00  0.00    +0.000 A 
ATOM     32  C   UNL     1       1.950   0.004   2.578  0.00  0.00    +0.006 A 
ATOM     33  C   UNL     1       2.620  -0.171   3.778  0.00  0.00    -0.014 A 
ATOM     34  C   UNL     1       1.993   0.146   4.965  0.00  0.00    -0.040 A 
ATOM     35  C   UNL     1       0.695   0.632   4.952  0.00  0.00    +0.004 A 
ATOM     36  C   UNL     1       2.694  -0.018   6.290  0.00  0.00    +0.063 C 
ATOM     37  C   UNL     1       3.909  -0.932   6.123  0.00  0.00    +0.165 C 
ATOM     38  O   UNL     1       4.671  -0.474   5.001  0.00  0.00    -0.370 OA
ATOM     39  C   UNL     1       4.026  -0.711   3.750  0.00  0.00    +0.165 C 
ENDBRANCH  29  39
ENDBRANCH  25  29
ENDBRANCH   1  26
TORSDOF 4
