REMARK  Name = ZINC27902294
REMARK  10 active torsions:
REMARK  status: ('A' for Active; 'I' for Inactive)
REMARK    1  A    between atoms: C_1  and  C_2
REMARK    2  A    between atoms: C_2  and  C_4
REMARK    3  A    between atoms: C_2  and  N_21
REMARK    4  A    between atoms: N_6  and  C_7
REMARK    5  A    between atoms: C_12  and  S_13
REMARK    6  A    between atoms: S_13  and  C_14
REMARK    7  A    between atoms: N_24  and  C_27
REMARK    8  A    between atoms: C_27  and  C_28
REMARK    9  A    between atoms: N_30  and  C_31
REMARK   10  A    between atoms: C_31  and  C_32
REMARK                            x       y       z     vdW  Elec       q    Type
REMARK                         _______ _______ _______ _____ _____    ______ ____
ROOT
ATOM      1  C   UNL     1      -0.509   5.181  -1.164  0.00  0.00    +0.234 C 
ATOM      2  O   UNL     1      -0.300   5.689  -0.083  0.00  0.00    -0.274 OA
ATOM      3  N   UNL     1      -0.726   5.959  -2.243  0.00  0.00    -0.283 N 
ATOM      4  H   UNL     1      -0.829   5.502  -3.239  0.00  0.00    +0.155 HD
ENDROOT
BRANCH   3   5
ATOM      5  C   UNL     1      -0.821   7.349  -2.097  0.00  0.00    +0.047 A 
ATOM      6  C   UNL     1      -1.103   7.900  -0.856  0.00  0.00    +0.024 A 
ATOM      7  C   UNL     1      -1.191   9.272  -0.713  0.00  0.00    +0.002 A 
ATOM      8  C   UNL     1      -1.009  10.099  -1.807  0.00  0.00    +0.001 A 
ATOM      9  C   UNL     1      -0.733   9.559  -3.048  0.00  0.00    +0.017 A 
ATOM     10  C   UNL     1      -0.638   8.183  -3.200  0.00  0.00    +0.034 A 
BRANCH  10  11
ATOM     11  S   UNL     1      -0.287   7.490  -4.782  0.00  0.00    -0.088 S 
BRANCH  11  12
ATOM     12  C   UNL     1       0.015   8.894  -5.804  0.00  0.00    +0.013 A 
ATOM     13  C   UNL     1      -1.013   9.432  -6.568  0.00  0.00    +0.016 A 
ATOM     14  C   UNL     1      -0.776  10.536  -7.364  0.00  0.00    +0.021 A 
ATOM     15  C   UNL     1       0.488  11.098  -7.409  0.00  0.00    +0.041 A 
ATOM     16  C   UNL     1       1.516  10.560  -6.654  0.00  0.00    +0.021 A 
ATOM     17  C   UNL     1       1.283   9.461  -5.852  0.00  0.00    +0.016 A 
ATOM     18 CL   UNL     1       0.785  12.481  -8.416  0.00  0.00    -0.084 Cl
ENDBRANCH  11  12
ENDBRANCH  10  11
ENDBRANCH   3   5
BRANCH   1  20
ATOM     19  C   UNL     1      -1.898   3.231  -1.811  0.00  0.00    +0.034 C 
ATOM     20  C   UNL     1      -0.527   3.680  -1.301  0.00  0.00    +0.140 C 
BRANCH  20  21
ATOM     21  N   UNL     1      -0.267   3.066   0.008  0.00  0.00    -0.295 NA
ATOM     22  C   UNL     1      -0.042   1.620  -0.125  0.00  0.00    +0.066 C 
ATOM     23  C   UNL     1       0.304   1.032   1.246  0.00  0.00    -0.063 C 
ATOM     24  N   UNL     1      -0.791   1.308   2.185  0.00  0.00    +0.387 N 
ATOM     25  C   UNL     1      -1.017   2.754   2.317  0.00  0.00    -0.063 C 
ATOM     26  C   UNL     1      -1.363   3.341   0.947  0.00  0.00    +0.066 C 
ATOM     27  H   UNL     1      -1.709   0.857   1.779  0.00  0.00    -0.081 HD
BRANCH  24  28
ATOM     28  C   UNL     1      -0.530   0.694   3.494  0.00  0.00    +0.019 C 
BRANCH  28  29
ATOM     29  C   UNL     1      -0.526  -0.807   3.353  0.00  0.00    +0.197 C 
ATOM     30  O   UNL     1      -0.821  -1.317   2.292  0.00  0.00    -0.278 OA
ATOM     31  N   UNL     1      -0.195  -1.581   4.404  0.00  0.00    -0.313 N 
ATOM     32  H   UNL     1       0.073  -1.119   5.366  0.00  0.00    +0.149 HD
BRANCH  31  33
ATOM     33  C   UNL     1      -0.190  -3.040   4.267  0.00  0.00    +0.131 C 
BRANCH  33  34
ATOM     34  C   UNL     1       0.212  -3.667   5.577  0.00  0.00    -0.016 C 
ATOM     35  C   UNL     1      -0.564  -4.558   6.143  0.00  0.00    +0.005 C 
ENDBRANCH  33  34
ENDBRANCH  31  33
ENDBRANCH  28  29
ENDBRANCH  24  28
ENDBRANCH  20  21
ENDBRANCH   1  20
TORSDOF 9
