REMARK  Name = ZINC14160936
REMARK  8 active torsions:
REMARK  status: ('A' for Active; 'I' for Inactive)
REMARK    1  A    between atoms: C_1  and  C_2
REMARK    2  A    between atoms: C_2  and  C_3
REMARK    3  A    between atoms: C_8  and  N_9
REMARK    4  A    between atoms: N_9  and  C_10
REMARK    5  A    between atoms: C_10  and  N_12
REMARK    6  A    between atoms: C_17  and  C_22
REMARK    7  A    between atoms: C_19  and  C_21
REMARK    8  A    between atoms: C_29  and  C_31
REMARK                            x       y       z     vdW  Elec       q    Type
REMARK                         _______ _______ _______ _____ _____    ______ ____
ROOT
ATOM      1  N   UNL     1       0.012  -0.648  -1.576  0.00  0.00    -0.163 NA
ATOM      2  C   UNL     1      -0.604   0.521  -1.519  0.00  0.00    +0.180 C 
ATOM      3  N   UNL     1      -1.195   1.038  -2.639  0.00  0.00    -0.258 N 
ATOM      4  C   UNL     1      -1.157   2.406  -2.876  0.00  0.00    +0.222 A 
ATOM      5  N   UNL     1      -0.436   3.179  -2.079  0.00  0.00    -0.219 NA
ATOM      6  C   UNL     1      -0.374   4.486  -2.280  0.00  0.00    +0.044 A 
ATOM      7  C   UNL     1      -1.085   5.042  -3.331  0.00  0.00    +0.046 A 
ATOM      8  C   UNL     1      -1.834   4.204  -4.142  0.00  0.00    +0.044 A 
ATOM      9  N   UNL     1      -1.848   2.906  -3.889  0.00  0.00    -0.219 NA
ATOM     10  C   UNL     1      -2.622   4.764  -5.298  0.00  0.00    +0.066 C 
ATOM     11  C   UNL     1       0.454   5.358  -1.372  0.00  0.00    +0.066 C 
ATOM     12  N   UNL     1      -0.650   1.211  -0.342  0.00  0.00    -0.302 N 
ATOM     13  C   UNL     1       0.299   0.911   0.739  0.00  0.00    +0.126 C 
ATOM     14  C   UNL     1      -0.491   0.592   2.015  0.00  0.00    +0.127 C 
ATOM     15  N   UNL     1      -1.494   1.647   2.221  0.00  0.00    -0.292 N 
ATOM     16  C   UNL     1      -2.443   1.948   1.140  0.00  0.00    +0.127 C 
ATOM     17  C   UNL     1      -1.650   2.268  -0.134  0.00  0.00    +0.126 C 
ATOM     18  C   UNL     1      -1.540   2.329   3.383  0.00  0.00    +0.282 C 
ATOM     19  O   UNL     1      -2.442   3.118   3.590  0.00  0.00    -0.267 OA
ATOM     20  H   UNL     1      -1.700   0.370  -3.353  0.00  0.00    +0.157 HD
ENDROOT
BRANCH  18  21
ATOM     21  C   UNL     1      -0.502   2.119   4.398  0.00  0.00    +0.189 A 
ATOM     22  C   UNL     1      -0.522   2.598   5.676  0.00  0.00    +0.054 A 
ATOM     23  C   UNL     1       0.662   2.158   6.290  0.00  0.00    +0.042 A 
ATOM     24  C   UNL     1       1.343   1.440   5.370  0.00  0.00    +0.196 A 
ATOM     25  O   UNL     1       0.636   1.414   4.233  0.00  0.00    -0.458 OA
ENDBRANCH  18  21
BRANCH   1  26
ATOM     26  C   UNL     1       0.160  -1.271  -2.753  0.00  0.00    +0.161 C 
ATOM     27  S   UNL     1       0.922  -0.466  -4.058  0.00  0.00    -0.016 S 
BRANCH  26  28
ATOM     28  N   UNL     1      -0.292  -2.531  -2.911  0.00  0.00    -0.295 N 
ATOM     29  H   UNL     1      -0.899  -3.000  -2.123  0.00  0.00    +0.154 HD
BRANCH  28  35
ATOM     30  C   UNL     1       0.433  -4.563  -3.994  0.00  0.00    -0.026 A 
ATOM     31  C   UNL     1       0.733  -5.263  -5.147  0.00  0.00    +0.005 A 
ATOM     32  C   UNL     1       0.614  -4.650  -6.380  0.00  0.00    +0.000 A 
ATOM     33  C   UNL     1       0.194  -3.335  -6.465  0.00  0.00    +0.002 A 
ATOM     34  C   UNL     1      -0.112  -2.631  -5.317  0.00  0.00    +0.023 A 
ATOM     35  C   UNL     1       0.012  -3.243  -4.075  0.00  0.00    +0.036 A 
BRANCH  30  37
ATOM     36  C   UNL     1      -0.796  -5.794  -2.227  0.00  0.00    +0.009 C 
ATOM     37  C   UNL     1       0.563  -5.232  -2.650  0.00  0.00    +0.033 C 
ENDBRANCH  30  37
ENDBRANCH  28  35
ENDBRANCH  26  28
ENDBRANCH   1  26
TORSDOF 5
