REMARK  Name = ZINC08897274
REMARK  5 active torsions:
REMARK  status: ('A' for Active; 'I' for Inactive)
REMARK    1  A    between atoms: C_4  and  C_7
REMARK    2  A    between atoms: C_16  and  S_18
REMARK    3  A    between atoms: S_18  and  C_19
REMARK    4  A    between atoms: C_19  and  C_20
REMARK    5  A    between atoms: N_22  and  C_23
REMARK                            x       y       z     vdW  Elec       q    Type
REMARK                         _______ _______ _______ _____ _____    ______ ____
ROOT
ATOM      1  C   UNL     1       2.580   1.461   0.054  0.00  0.00    +0.004 A 
ATOM      2  C   UNL     1       3.593   2.359   0.049  0.00  0.00    +0.056 A 
ATOM      3  S   UNL     1       2.753   3.931   0.053  0.00  0.00    -0.076 S 
ATOM      4  C   UNL     1       1.076   3.353   0.060  0.00  0.00    +0.117 A 
ATOM      5  C   UNL     1       1.206   1.953   0.060  0.00  0.00    +0.080 A 
ATOM      6  C   UNL     1      -0.017   1.214   0.065  0.00  0.00    +0.261 A 
ATOM      7  O   UNL     1      -0.001  -0.005   0.065  0.00  0.00    -0.267 OA
ATOM      8  N   UNL     1      -1.186   1.879   0.063  0.00  0.00    -0.301 N 
ATOM      9  H   UNL     1      -2.018   1.380   0.062  0.00  0.00    +0.171 HD
ATOM     10  C   UNL     1      -1.223   3.244   0.070  0.00  0.00    +0.170 A 
ATOM     11  N   UNL     1      -0.111   3.950   0.065  0.00  0.00    -0.216 NA
ENDROOT
BRANCH   1  15
ATOM     12  C   UNL     1       3.386  -2.712   0.052  0.00  0.00    +0.000 A 
ATOM     13  C   UNL     1       4.009  -1.890  -0.870  0.00  0.00    +0.001 A 
ATOM     14  C   UNL     1       3.751  -0.534  -0.874  0.00  0.00    +0.008 A 
ATOM     15  C   UNL     1       2.861   0.006   0.053  0.00  0.00    -0.017 A 
ATOM     16  C   UNL     1       2.241  -0.827   0.984  0.00  0.00    +0.008 A 
ATOM     17  C   UNL     1       2.502  -2.182   0.975  0.00  0.00    +0.001 A 
ENDBRANCH   1  15
BRANCH  10  18
ATOM     18  S   UNL     1      -2.779   4.071   0.076  0.00  0.00    -0.078 S 
BRANCH  18  19
ATOM     19  C   UNL     1      -2.219   5.793   0.073  0.00  0.00    +0.173 C 
BRANCH  19  20
ATOM     20  C   UNL     1      -3.414   6.710   0.077  0.00  0.00    +0.228 C 
ATOM     21  O   UNL     1      -4.535   6.246   0.082  0.00  0.00    -0.275 OA
ATOM     22  N   UNL     1      -3.238   8.046   0.076  0.00  0.00    -0.284 N 
ATOM     23  H   UNL     1      -2.345   8.418   0.138  0.00  0.00    +0.155 HD
BRANCH  22  24
ATOM     24  C   UNL     1      -4.346   8.898  -0.015  0.00  0.00    +0.053 A 
ATOM     25  C   UNL     1      -5.546   8.544   0.586  0.00  0.00    +0.044 A 
ATOM     26  C   UNL     1      -6.636   9.389   0.500  0.00  0.00    +0.043 A 
ATOM     27  C   UNL     1      -6.535  10.582  -0.195  0.00  0.00    +0.021 A 
ATOM     28  C   UNL     1      -5.342  10.935  -0.799  0.00  0.00    +0.023 A 
ATOM     29  C   UNL     1      -4.247  10.096  -0.711  0.00  0.00    +0.062 A 
ATOM     30 CL   UNL     1      -2.750  10.540  -1.470  0.00  0.00    -0.082 Cl
ATOM     31 CL   UNL     1      -8.136   8.951   1.256  0.00  0.00    -0.083 Cl
ENDBRANCH  22  24
ENDBRANCH  19  20
ENDBRANCH  18  19
ENDBRANCH  10  18
TORSDOF 5
