REMARK  Name = ZINC08996383
REMARK  15 active torsions:
REMARK  status: ('A' for Active; 'I' for Inactive)
REMARK    1  A    between atoms: C_1  and  C_2
REMARK    2  A    between atoms: C_4  and  O_33
REMARK    3  A    between atoms: C_7  and  C_8
REMARK    4  A    between atoms: C_8  and  C_10
REMARK    5  A    between atoms: N_14  and  C_27
REMARK    6  A    between atoms: C_15  and  C_17
REMARK    7  A    between atoms: C_20  and  C_23
REMARK    8  A    between atoms: C_23  and  C_24
REMARK    9  A    between atoms: C_23  and  C_25
REMARK   10  A    between atoms: C_23  and  C_26
REMARK   11  A    between atoms: C_27  and  C_28
REMARK   12  A    between atoms: C_28  and  N_29
REMARK   13  A    between atoms: N_29  and  C_30
REMARK   14  A    between atoms: N_29  and  C_31
REMARK   15  A    between atoms: O_33  and  C_34
REMARK                            x       y       z     vdW  Elec       q    Type
REMARK                         _______ _______ _______ _____ _____    ______ ____
ROOT
ATOM      1  C   UNL     1       3.211   1.049   1.343  0.00  0.00    +0.076 C 
ATOM      2  C   UNL     1       4.410   1.652   1.167  0.00  0.00    +0.249 C 
ATOM      3  C   UNL     1       4.625   1.895  -0.274  0.00  0.00    +0.288 C 
ATOM      4  O   UNL     1       5.609   2.422  -0.753  0.00  0.00    -0.266 OA
ATOM      5  N   UNL     1       3.570   1.446  -0.978  0.00  0.00    -0.285 N 
ATOM      6  C   UNL     1       2.602   0.882  -0.030  0.00  0.00    +0.145 C 
ATOM      7  O   UNL     1       5.275   1.979   2.155  0.00  0.00    -0.282 OA
ENDROOT
BRANCH   6   8
ATOM      8  C   UNL     1       1.298   1.633  -0.112  0.00  0.00    -0.022 A 
ATOM      9  C   UNL     1       0.104   0.940  -0.184  0.00  0.00    +0.006 A 
ATOM     10  C   UNL     1      -1.092   1.628  -0.265  0.00  0.00    +0.004 A 
ATOM     11  C   UNL     1      -1.095   3.011  -0.265  0.00  0.00    -0.042 A 
ATOM     12  C   UNL     1       0.099   3.704  -0.193  0.00  0.00    +0.004 A 
ATOM     13  C   UNL     1       1.295   3.016  -0.116  0.00  0.00    +0.006 A 
BRANCH  11  14
ATOM     14  C   UNL     1      -2.398   3.761  -0.348  0.00  0.00    -0.013 C 
ATOM     15  C   UNL     1      -2.403   4.637  -1.603  0.00  0.00    +0.015 C 
ATOM     16  C   UNL     1      -3.557   2.765  -0.418  0.00  0.00    +0.015 C 
ATOM     17  C   UNL     1      -2.559   4.645   0.890  0.00  0.00    +0.015 C 
ENDBRANCH  11  14
ENDBRANCH   6   8
BRANCH   1  18
ATOM     18  C   UNL     1       2.618   0.636   2.619  0.00  0.00    +0.195 C 
ATOM     19  O   UNL     1       3.167   0.924   3.666  0.00  0.00    -0.287 OA
BRANCH  18  26
ATOM     20  C   UNL     1       2.637  -2.164   1.893  0.00  0.00    +0.044 C 
ATOM     21  C   UNL     1       1.351  -1.482   2.284  0.00  0.00    -0.036 A 
ATOM     22  C   UNL     1       0.172  -2.192   2.304  0.00  0.00    +0.049 A 
ATOM     23  C   UNL     1      -1.015  -1.563   2.659  0.00  0.00    +0.120 A 
ATOM     24  C   UNL     1      -1.017  -0.215   3.002  0.00  0.00    +0.046 A 
ATOM     25  C   UNL     1       0.159   0.502   2.990  0.00  0.00    +0.015 A 
ATOM     26  C   UNL     1       1.355  -0.128   2.633  0.00  0.00    +0.025 A 
BRANCH  23  27
ATOM     27  O   UNL     1      -2.176  -2.265   2.672  0.00  0.00    -0.495 OA
ATOM     28  C   UNL     1      -3.359  -1.557   3.047  0.00  0.00    +0.277 C 
ENDBRANCH  23  27
ENDBRANCH  18  26
ENDBRANCH   1  18
BRANCH   5  29
ATOM     29  C   UNL     1       3.414   1.509  -2.433  0.00  0.00    +0.090 C 
BRANCH  29  30
ATOM     30  C   UNL     1       2.729   2.822  -2.817  0.00  0.00    -0.060 C 
BRANCH  30  31
ATOM     31  N   UNL     1       2.573   2.885  -4.276  0.00  0.00    +0.377 N 
ATOM     32  C   UNL     1       1.642   1.853  -4.752  0.00  0.00    -0.097 C 
ATOM     33  C   UNL     1       2.139   4.222  -4.702  0.00  0.00    -0.097 C 
ATOM     34  H   UNL     1       3.556   2.688  -4.730  0.00  0.00    -0.083 HD
ENDBRANCH  30  31
ENDBRANCH  29  30
ENDBRANCH   5  29
TORSDOF 8
