REMARK  Name = ZINC40896083
REMARK  7 active torsions:
REMARK  status: ('A' for Active; 'I' for Inactive)
REMARK    1  A    between atoms: C_7  and  C_11
REMARK    2  A    between atoms: C_11  and  C_12
REMARK    3  A    between atoms: C_12  and  N_13
REMARK    4  A    between atoms: C_14  and  C_16
REMARK    5  A    between atoms: N_21  and  C_23
REMARK    6  A    between atoms: C_26  and  C_30
REMARK    7  A    between atoms: C_32  and  C_35
REMARK                            x       y       z     vdW  Elec       q    Type
REMARK                         _______ _______ _______ _____ _____    ______ ____
ROOT
ATOM      1  C   UNL     1      -2.123  -6.375  -2.609  0.00  0.00    +0.092 C 
ATOM      2  C   UNL     1      -1.410  -7.592  -2.014  0.00  0.00    +0.016 C 
ATOM      3  C   UNL     1      -2.371  -8.782  -1.980  0.00  0.00    +0.020 C 
ATOM      4  C   UNL     1      -2.803  -9.125  -3.409  0.00  0.00    +0.105 C 
ATOM      5  N   UNL     1      -3.359  -7.919  -4.038  0.00  0.00    -0.327 N 
ATOM      6  C   UNL     1      -2.553  -6.691  -4.045  0.00  0.00    +0.118 C 
ENDROOT
BRANCH   5   7
ATOM      7  C   UNL     1      -4.628  -7.940  -4.618  0.00  0.00    +0.065 A 
ATOM      8  C   UNL     1      -5.745  -7.620  -3.855  0.00  0.00    +0.027 A 
ATOM      9  C   UNL     1      -7.000  -7.639  -4.426  0.00  0.00    +0.013 A 
ATOM     10  C   UNL     1      -7.149  -7.980  -5.770  0.00  0.00    +0.025 A 
ATOM     11  C   UNL     1      -6.028  -8.301  -6.535  0.00  0.00    +0.052 A 
ATOM     12  C   UNL     1      -4.773  -8.275  -5.961  0.00  0.00    +0.145 A 
ATOM     13  F   UNL     1      -3.686  -8.581  -6.702  0.00  0.00    -0.204 F 
BRANCH  10  14
ATOM     14  C   UNL     1      -8.499  -8.001  -6.385  0.00  0.00    +0.202 A 
ATOM     15  N   UNL     1      -8.771  -8.317  -7.661  0.00  0.00    -0.187 NA
ATOM     16  C   UNL     1     -10.063  -8.237  -7.876  0.00  0.00    +0.260 A 
ATOM     17  O   UNL     1     -10.658  -7.864  -6.729  0.00  0.00    -0.332 OA
ATOM     18  N   UNL     1      -9.622  -7.720  -5.769  0.00  0.00    -0.056 NA
BRANCH  16  19
ATOM     19  C   UNL     1     -10.746  -8.510  -9.158  0.00  0.00    +0.057 A 
ATOM     20  C   UNL     1     -12.137  -8.384  -9.264  0.00  0.00    +0.016 A 
ATOM     21  C   UNL     1     -12.728  -8.651 -10.487  0.00  0.00    +0.020 A 
ATOM     22  C   UNL     1     -11.934  -9.029 -11.555  0.00  0.00    +0.111 A 
ATOM     23  N   UNL     1     -10.626  -9.140 -11.425  0.00  0.00    -0.263 NA
ATOM     24  C   UNL     1     -10.016  -8.892 -10.284  0.00  0.00    +0.124 A 
ENDBRANCH  16  19
ENDBRANCH  10  14
ENDBRANCH   5   7
BRANCH   1  26
ATOM     25  N   UNL     1      -0.675  -4.736  -1.452  0.00  0.00    -0.315 N 
ATOM     26  C   UNL     1      -1.186  -5.195  -2.612  0.00  0.00    +0.218 C 
ATOM     27  O   UNL     1      -0.891  -4.657  -3.659  0.00  0.00    -0.275 OA
ATOM     28  H   UNL     1      -0.911  -5.166  -0.615  0.00  0.00    +0.149 HD
BRANCH  25  29
ATOM     29  C   UNL     1       0.236  -3.589  -1.455  0.00  0.00    +0.109 C 
BRANCH  29  30
ATOM     30  C   UNL     1       0.666  -3.275  -0.021  0.00  0.00    +0.056 C 
BRANCH  30  37
ATOM     31  C   UNL     1      -0.017   1.362   0.009  0.00  0.00    +0.001 A 
ATOM     32  C   UNL     1       1.170   2.083   0.002  0.00  0.00    +0.002 A 
ATOM     33  C   UNL     1       2.386   1.436  -0.013  0.00  0.00    +0.026 A 
ATOM     34  C   UNL     1       2.428   0.046  -0.021  0.00  0.00    +0.047 A 
ATOM     35  C   UNL     1       1.223  -0.681  -0.013  0.00  0.00    +0.003 A 
ATOM     36  C   UNL     1       0.002  -0.004   0.002  0.00  0.00    +0.010 A 
ATOM     37  C   UNL     1       1.604  -2.095  -0.025  0.00  0.00    -0.021 A 
ATOM     38  C   UNL     1       2.945  -2.141  -0.038  0.00  0.00    +0.087 A 
ATOM     39  N   UNL     1       3.455  -0.871  -0.036  0.00  0.00    -0.360 N 
ATOM     40  H   UNL     1       4.399  -0.650  -0.044  0.00  0.00    +0.165 HD
ENDBRANCH  30  37
ENDBRANCH  29  30
ENDBRANCH  25  29
ENDBRANCH   1  26
TORSDOF 7
