REMARK  Name = ZINC62831686
REMARK  5 active torsions:
REMARK  status: ('A' for Active; 'I' for Inactive)
REMARK    1  A    between atoms: C_1  and  C_2
REMARK    2  A    between atoms: C_6  and  C_7
REMARK    3  A    between atoms: N_9  and  C_10
REMARK    4  A    between atoms: C_12  and  N_19
REMARK    5  A    between atoms: C_15  and  C_16
REMARK                            x       y       z     vdW  Elec       q    Type
REMARK                         _______ _______ _______ _____ _____    ______ ____
ROOT
ATOM      1  C   UNL     1       0.152  -0.857   4.791  0.00  0.00    +0.050 A 
ATOM      2  C   UNL     1       0.123   0.502   5.059  0.00  0.00    +0.046 A 
ATOM      3  C   UNL     1       0.220   0.951   6.370  0.00  0.00    +0.026 A 
ATOM      4  C   UNL     1       0.347   0.039   7.418  0.00  0.00    +0.023 A 
ATOM      5  C   UNL     1       0.377  -1.301   7.168  0.00  0.00    +0.019 A 
ATOM      6  C   UNL     1       0.275  -1.772   5.853  0.00  0.00    +0.084 A 
ENDROOT
BRANCH   1   9
ATOM      7  C   UNL     1      -0.556  -0.557   2.547  0.00  0.00    +0.284 C 
ATOM      8  O   UNL     1      -1.111   0.476   2.870  0.00  0.00    -0.266 OA
ATOM      9  N   UNL     1       0.055  -1.313   3.481  0.00  0.00    -0.278 N 
ATOM     10  H   UNL     1       0.427  -2.176   3.239  0.00  0.00    +0.155 HD
BRANCH   7  16
ATOM     11  C   UNL     1      -1.887   0.988   0.178  0.00  0.00    +0.048 C 
ATOM     12  C   UNL     1      -1.131  -0.313   0.102  0.00  0.00    -0.000 A 
ATOM     13  C   UNL     1      -0.878  -1.070  -1.052  0.00  0.00    +0.045 A 
ATOM     14  C   UNL     1      -0.171  -2.156  -0.669  0.00  0.00    +0.196 A 
ATOM     15  O   UNL     1       0.020  -2.100   0.655  0.00  0.00    -0.458 OA
ATOM     16  C   UNL     1      -0.552  -0.981   1.144  0.00  0.00    +0.192 A 
ENDBRANCH   7  16
ENDBRANCH   1   9
BRANCH   6  17
ATOM     17  C   UNL     1       0.301  -3.215   5.582  0.00  0.00    +0.388 C 
ATOM     18  O   UNL     1       0.316  -4.011   6.512  0.00  0.00    -0.241 OA
ATOM     19  O   UNL     1       0.307  -3.621   4.428  0.00  0.00    -0.241 OA
ENDBRANCH   6  17
BRANCH   3  20
ATOM     20  N   UNL     1       0.191   2.314   6.639  0.00  0.00    -0.358 N 
ATOM     21  H   UNL     1       0.102   2.950   5.912  0.00  0.00    +0.142 HD
ATOM     22  H   UNL     1       0.258   2.630   7.554  0.00  0.00    +0.142 HD
ENDBRANCH   3  20
TORSDOF 4
