REMARK  Name = ZINC12080125
REMARK  7 active torsions:
REMARK  status: ('A' for Active; 'I' for Inactive)
REMARK    1  A    between atoms: C_1  and  C_2
REMARK    2  A    between atoms: C_10  and  C_11
REMARK    3  A    between atoms: N_13  and  C_14
REMARK    4  A    between atoms: C_14  and  C_15
REMARK    5  A    between atoms: C_15  and  O_21
REMARK    6  A    between atoms: N_22  and  C_23
REMARK    7  A    between atoms: C_23  and  C_24
REMARK                            x       y       z     vdW  Elec       q    Type
REMARK                         _______ _______ _______ _____ _____    ______ ____
ROOT
ATOM      1  C   UNL     1      -0.355   5.989   0.045  0.00  0.00    +0.046 C 
ATOM      2  C   UNL     1      -1.047   6.519  -1.185  0.00  0.00    -0.019 A 
ATOM      3  C   UNL     1      -1.608   5.632  -2.112  0.00  0.00    +0.051 A 
ATOM      4  C   UNL     1      -1.629   4.205  -2.099  0.00  0.00    +0.131 A 
ATOM      5  N   UNL     1      -2.215   3.559  -3.093  0.00  0.00    -0.220 NA
ATOM      6  C   UNL     1      -2.781   4.188  -4.107  0.00  0.00    +0.224 A 
ATOM      7  N   UNL     1      -2.791   5.505  -4.181  0.00  0.00    -0.228 NA
ATOM      8  C   UNL     1      -2.230   6.231  -3.235  0.00  0.00    +0.114 A 
ATOM      9  S   UNL     1      -2.018   7.968  -2.940  0.00  0.00    -0.064 S 
ATOM     10  C   UNL     1      -1.134   7.862  -1.393  0.00  0.00    +0.079 A 
ATOM     11  N   UNL     1      -1.049   3.508  -1.058  0.00  0.00    -0.326 N 
ATOM     12  H   UNL     1      -0.710   3.984  -0.284  0.00  0.00    +0.148 HD
ENDROOT
BRANCH  10  13
ATOM     13  C   UNL     1      -0.625   8.953  -0.554  0.00  0.00    +0.251 C 
ATOM     14  O   UNL     1      -0.037   8.701   0.481  0.00  0.00    -0.270 OA
ATOM     15  N   UNL     1      -0.809  10.234  -0.929  0.00  0.00    -0.308 N 
ATOM     16  H   UNL     1      -1.278  10.435  -1.754  0.00  0.00    +0.149 HD
BRANCH  15  17
ATOM     17  C   UNL     1      -0.301  11.323  -0.091  0.00  0.00    +0.139 C 
BRANCH  17  18
ATOM     18  C   UNL     1      -0.640  12.667  -0.740  0.00  0.00    +0.081 C 
ATOM     19  C   UNL     1      -0.098  12.694  -2.171  0.00  0.00    +0.036 C 
ATOM     20  C   UNL     1      -0.437  14.037  -2.819  0.00  0.00    +0.003 C 
ATOM     21  C   UNL     1       0.200  15.169  -2.011  0.00  0.00    +0.000 C 
ATOM     22  C   UNL     1      -0.343  15.142  -0.581  0.00  0.00    +0.003 C 
ATOM     23  C   UNL     1      -0.004  13.799   0.068  0.00  0.00    +0.036 C 
BRANCH  18  24
ATOM     24  O   UNL     1      -2.059  12.839  -0.765  0.00  0.00    -0.387 OA
ATOM     25  H   UNL     1      -2.529  12.155  -1.262  0.00  0.00    +0.210 HD
ENDBRANCH  18  24
ENDBRANCH  17  18
ENDBRANCH  15  17
ENDBRANCH  10  13
BRANCH  11  26
ATOM     26  C   UNL     1      -0.944   2.048  -1.123  0.00  0.00    +0.134 C 
BRANCH  26  27
ATOM     27  C   UNL     1      -0.268   1.528   0.148  0.00  0.00    +0.135 C 
ATOM     28  C   UNL     1      -0.153  -0.007   0.090  0.00  0.00    +0.035 C 
ATOM     29  C   UNL     1       1.366  -0.279   0.212  0.00  0.00    +0.031 C 
ATOM     30  C   UNL     1       1.880   1.032   0.858  0.00  0.00    +0.160 C 
ATOM     31  O   UNL     1       1.067   2.053   0.240  0.00  0.00    -0.375 OA
ENDBRANCH  26  27
ENDBRANCH  11  26
TORSDOF 6
