REMARK  Name = ZINC64173535
REMARK  8 active torsions:
REMARK  status: ('A' for Active; 'I' for Inactive)
REMARK    1  A    between atoms: C_1  and  C_2
REMARK    2  A    between atoms: C_4  and  N_8
REMARK    3  A    between atoms: C_9  and  C_11
REMARK    4  A    between atoms: C_11  and  C_13
REMARK    5  A    between atoms: C_11  and  N_23
REMARK    6  A    between atoms: C_13  and  C_14
REMARK    7  A    between atoms: N_23  and  S_24
REMARK    8  A    between atoms: S_24  and  C_27
REMARK                            x       y       z     vdW  Elec       q    Type
REMARK                         _______ _______ _______ _____ _____    ______ ____
ROOT
ATOM      1  C   UNL     1      -1.965  -4.506  -3.315  0.00  0.00    +0.166 C 
ENDROOT
BRANCH   1   3
ATOM      2  N   UNL     1      -0.982  -2.657  -2.000  0.00  0.00    -0.284 N 
ATOM      3  C   UNL     1      -0.926  -3.950  -2.377  0.00  0.00    +0.234 C 
ATOM      4  O   UNL     1      -0.040  -4.665  -1.960  0.00  0.00    -0.274 OA
ATOM      5  H   UNL     1      -1.691  -2.085  -2.333  0.00  0.00    +0.152 HD
BRANCH   2   9
ATOM      6  C   UNL     1      -0.018   1.503   0.010  0.00  0.00    +0.061 C 
ATOM      7  C   UNL     1       0.002  -0.004   0.002  0.00  0.00    +0.023 C 
ATOM      8  N   UNL     1       0.006  -0.638  -1.082  0.00  0.00    -0.259 NA
ATOM      9  C   UNL     1       0.028  -2.115  -1.087  0.00  0.00    +0.251 C 
ATOM     10  S   UNL     1      -0.403  -2.470   0.673  0.00  0.00    -0.110 S 
ATOM     11  C   UNL     1       0.025  -0.787   1.307  0.00  0.00    +0.123 C 
ENDBRANCH   2   9
ENDBRANCH   1   3
BRANCH   1  12
ATOM     12  N   UNL     1      -1.686  -5.922  -3.569  0.00  0.00    -0.178 NA
ATOM     13  H   UNL     1      -2.012  -6.598  -2.955  0.00  0.00    +0.149 HD
BRANCH  12  14
ATOM     14  S   UNL     1      -0.813  -6.368  -4.904  0.00  0.00    +0.059 S 
ATOM     15  O   UNL     1      -0.690  -7.782  -4.855  0.00  0.00    -0.153 OA
ATOM     16  O   UNL     1      -1.390  -5.691  -6.011  0.00  0.00    -0.153 OA
BRANCH  14  17
ATOM     17  C   UNL     1       0.812  -5.715  -4.705  0.00  0.00    +0.105 A 
ATOM     18  C   UNL     1       1.111  -4.450  -5.178  0.00  0.00    +0.030 A 
ATOM     19  C   UNL     1       2.385  -3.938  -5.023  0.00  0.00    +0.022 A 
ATOM     20  C   UNL     1       3.361  -4.690  -4.394  0.00  0.00    +0.041 A 
ATOM     21  C   UNL     1       3.061  -5.955  -3.921  0.00  0.00    +0.022 A 
ATOM     22  C   UNL     1       1.785  -6.464  -4.072  0.00  0.00    +0.030 A 
ATOM     23 CL   UNL     1       4.961  -4.046  -4.199  0.00  0.00    -0.084 Cl
ENDBRANCH  14  17
ENDBRANCH  12  14
ENDBRANCH   1  12
BRANCH   1  24
ATOM     24  C   UNL     1      -3.352  -4.366  -2.683  0.00  0.00    +0.063 C 
BRANCH  24  25
ATOM     25  C   UNL     1      -4.401  -4.809  -3.670  0.00  0.00    -0.040 C 
ATOM     26  C   UNL     1      -4.969  -6.033  -3.758  0.00  0.00    -0.001 A 
ATOM     27  C   UNL     1      -4.785  -7.272  -2.992  0.00  0.00    +0.010 A 
ATOM     28  C   UNL     1      -5.514  -8.362  -3.324  0.00  0.00    +0.001 A 
ATOM     29  C   UNL     1      -6.437  -8.339  -4.378  0.00  0.00    +0.002 A 
ATOM     30  C   UNL     1      -6.661  -7.239  -5.128  0.00  0.00    +0.026 A 
ATOM     31  C   UNL     1      -5.950  -6.035  -4.867  0.00  0.00    +0.043 A 
ATOM     32  N   UNL     1      -5.987  -4.857  -5.441  0.00  0.00    -0.380 N 
ATOM     33  C   UNL     1      -5.037  -3.972  -4.757  0.00  0.00    +0.144 C 
ATOM     34  H   UNL     1      -6.552  -4.610  -6.190  0.00  0.00    +0.160 HD
ENDBRANCH  24  25
ENDBRANCH   1  24
TORSDOF 7
