REMARK  Name = ZINC08954304
REMARK  9 active torsions:
REMARK  status: ('A' for Active; 'I' for Inactive)
REMARK    1  A    between atoms: C_1  and  C_2
REMARK    2  A    between atoms: C_5  and  C_8
REMARK    3  A    between atoms: C_8  and  N_9
REMARK    4  A    between atoms: C_19  and  S_20
REMARK    5  A    between atoms: S_20  and  C_21
REMARK    6  A    between atoms: C_21  and  C_23
REMARK    7  A    between atoms: C_21  and  C_26
REMARK    8  A    between atoms: C_23  and  C_24
REMARK    9  A    between atoms: C_23  and  C_25
REMARK                            x       y       z     vdW  Elec       q    Type
REMARK                         _______ _______ _______ _____ _____    ______ ____
ROOT
ATOM      1  N   UNL     1       2.241   5.297   0.055  0.00  0.00    -0.283 N 
ATOM      2  C   UNL     1       2.365   3.964   0.255  0.00  0.00    +0.263 A 
ATOM      3  O   UNL     1       3.450   3.415   0.196  0.00  0.00    -0.267 OA
ATOM      4  C   UNL     1       1.141   3.205   0.546  0.00  0.00    +0.065 A 
ATOM      5  C   UNL     1       1.163   1.829   0.768  0.00  0.00    +0.015 A 
ATOM      6  C   UNL     1      -0.005   1.171   1.036  0.00  0.00    +0.001 A 
ATOM      7  C   UNL     1      -1.212   1.857   1.084  0.00  0.00    +0.002 A 
ATOM      8  C   UNL     1      -1.261   3.207   0.877  0.00  0.00    +0.028 A 
ATOM      9  C   UNL     1      -0.084   3.908   0.600  0.00  0.00    +0.079 A 
ATOM     10  N   UNL     1      -0.088   5.239   0.383  0.00  0.00    -0.223 NA
ATOM     11  C   UNL     1       1.015   5.896   0.125  0.00  0.00    +0.173 A 
ENDROOT
BRANCH   1  12
ATOM     12  C   UNL     1       3.429   6.102  -0.240  0.00  0.00    +0.162 C 
BRANCH  12  17
ATOM     13  C   UNL     1       4.258   6.293  -5.955  0.00  0.00    +0.044 C 
ATOM     14  C   UNL     1       4.043   6.243  -4.465  0.00  0.00    -0.050 A 
ATOM     15  C   UNL     1       3.261   7.202  -3.848  0.00  0.00    +0.004 A 
ATOM     16  C   UNL     1       3.062   7.156  -2.480  0.00  0.00    +0.005 A 
ATOM     17  C   UNL     1       3.645   6.152  -1.730  0.00  0.00    -0.028 A 
ATOM     18  C   UNL     1       4.431   5.196  -2.347  0.00  0.00    +0.005 A 
ATOM     19  C   UNL     1       4.626   5.239  -3.715  0.00  0.00    +0.004 A 
ENDBRANCH  12  17
ENDBRANCH   1  12
BRANCH  11  20
ATOM     20  S   UNL     1       0.914   7.635  -0.145  0.00  0.00    -0.075 S 
BRANCH  20  21
ATOM     21  C   UNL     1      -0.882   7.856  -0.098  0.00  0.00    +0.143 C 
BRANCH  21  22
ATOM     22  C   UNL     1      -1.501   7.192  -1.302  0.00  0.00    +0.234 C 
ATOM     23  O   UNL     1      -0.822   6.950  -2.276  0.00  0.00    -0.274 OA
ATOM     24  N   UNL     1      -2.809   6.869  -1.294  0.00  0.00    -0.239 N 
ATOM     25  C   UNL     1      -3.363   6.276  -2.371  0.00  0.00    +0.303 C 
ATOM     26  O   UNL     1      -2.682   6.033  -3.348  0.00  0.00    -0.253 OA
ATOM     27  N   UNL     1      -4.671   5.952  -2.363  0.00  0.00    -0.313 N 
ATOM     28  H   UNL     1      -3.352   7.062  -0.514  0.00  0.00    +0.159 HD
ATOM     29  H   UNL     1      -5.214   6.146  -1.583  0.00  0.00    +0.146 HD
ATOM     30  H   UNL     1      -5.069   5.525  -3.138  0.00  0.00    +0.146 HD
ENDBRANCH  21  22
BRANCH  21  31
ATOM     31  C   UNL     1      -1.212   9.349  -0.113  0.00  0.00    +0.005 C 
ATOM     32  C   UNL     1      -2.731   9.536  -0.108  0.00  0.00    +0.009 C 
ATOM     33  C   UNL     1      -0.613  10.017   1.127  0.00  0.00    +0.009 C 
ENDBRANCH  21  31
ENDBRANCH  20  21
ENDBRANCH  11  20
TORSDOF 6
