REMARK  Name = ZINC63533748
REMARK  7 active torsions:
REMARK  status: ('A' for Active; 'I' for Inactive)
REMARK    1  A    between atoms: C_1  and  C_2
REMARK    2  A    between atoms: C_4  and  C_28
REMARK    3  A    between atoms: C_6  and  C_8
REMARK    4  A    between atoms: C_11  and  S_13
REMARK    5  A    between atoms: S_13  and  C_14
REMARK    6  A    between atoms: C_14  and  C_15
REMARK    7  A    between atoms: C_15  and  C_16
REMARK                            x       y       z     vdW  Elec       q    Type
REMARK                         _______ _______ _______ _____ _____    ______ ____
ROOT
ATOM      1  S   UNL     1       0.068  -3.255   6.315  0.00  0.00    -0.065 S 
ENDROOT
BRANCH   1   5
ATOM      2  C   UNL     1       0.052  -2.845   2.457  0.00  0.00    +0.249 A 
ATOM      3  N   UNL     1       0.076  -4.149   2.588  0.00  0.00    -0.106 NA
ATOM      4  N   UNL     1       0.084  -4.453   3.838  0.00  0.00    -0.101 NA
ATOM      5  C   UNL     1       0.066  -3.353   4.555  0.00  0.00    +0.278 A 
ATOM      6  O   UNL     1       0.051  -2.314   3.699  0.00  0.00    -0.411 OA
BRANCH   2  12
ATOM      7  C   UNL     1      -0.018   1.503   0.010  0.00  0.00    +0.044 C 
ATOM      8  C   UNL     1       0.002  -0.004   0.002  0.00  0.00    -0.049 A 
ATOM      9  C   UNL     1       0.006  -0.688  -1.201  0.00  0.00    +0.006 A 
ATOM     10  C   UNL     1       0.025  -2.071  -1.218  0.00  0.00    -0.049 A 
ATOM     11  C   UNL     1       0.040  -2.778  -0.033  0.00  0.00    +0.016 A 
ATOM     12  C   UNL     1       0.036  -2.095   1.184  0.00  0.00    +0.039 A 
ATOM     13  C   UNL     1       0.023  -0.699   1.194  0.00  0.00    +0.016 A 
ATOM     14  C   UNL     1       0.029  -2.807  -2.533  0.00  0.00    +0.044 C 
ENDBRANCH   2  12
ENDBRANCH   1   5
BRANCH   1  15
ATOM     15  C   UNL     1       0.101  -4.988   6.851  0.00  0.00    +0.087 C 
BRANCH  15  16
ATOM     16  C   UNL     1       0.105  -5.049   8.380  0.00  0.00    +0.085 C 
BRANCH  16  17
ATOM     17  C   UNL     1       0.132  -6.488   8.825  0.00  0.00    +0.111 A 
ATOM     18  N   UNL     1       0.134  -6.750  10.158  0.00  0.00    -0.310 N 
ATOM     19  H   UNL     1       0.118  -6.016  10.792  0.00  0.00    +0.170 HD
ATOM     20  C   UNL     1       0.157  -8.026  10.609  0.00  0.00    +0.259 A 
ATOM     21  O   UNL     1       0.159  -8.275  11.800  0.00  0.00    -0.267 OA
ATOM     22  C   UNL     1       0.181  -9.099   9.604  0.00  0.00    +0.065 A 
ATOM     23  C   UNL     1       0.206 -10.445   9.963  0.00  0.00    +0.015 A 
ATOM     24  C   UNL     1       0.228 -11.410   8.980  0.00  0.00    +0.001 A 
ATOM     25  C   UNL     1       0.224 -11.051   7.638  0.00  0.00    +0.002 A 
ATOM     26  C   UNL     1       0.200  -9.727   7.262  0.00  0.00    +0.028 A 
ATOM     27  C   UNL     1       0.177  -8.731   8.240  0.00  0.00    +0.078 A 
ATOM     28  N   UNL     1       0.147  -7.414   7.915  0.00  0.00    -0.234 NA
ENDBRANCH  16  17
ENDBRANCH  15  16
ENDBRANCH   1  15
TORSDOF 5
