REMARK  Name = ZINC06750026
REMARK  2 active torsions:
REMARK  status: ('A' for Active; 'I' for Inactive)
REMARK    1  A    between atoms: C_3  and  C_22
REMARK    2  A    between atoms: C_16  and  N_46
REMARK                            x       y       z     vdW  Elec       q    Type
REMARK                         _______ _______ _______ _____ _____    ______ ____
ROOT
ATOM      1  C   UNL     1       3.184  -3.438  -0.047  0.00  0.00    +0.020 A 
ATOM      2  C   UNL     1       4.348  -2.665  -0.054  0.00  0.00    +0.035 A 
ATOM      3  C   UNL     1       3.957  -1.341  -0.043  0.00  0.00    +0.137 A 
ATOM      4  N   UNL     1       2.578  -1.316  -0.030  0.00  0.00    -0.288 N 
ATOM      5  C   UNL     1       2.123  -2.595  -0.027  0.00  0.00    +0.094 A 
ATOM      6  C   UNL     1       1.785  -0.170  -0.016  0.00  0.00    +0.202 A 
ATOM      7  N   UNL     1       2.134   1.106  -0.012  0.00  0.00    -0.121 NA
ATOM      8  N   UNL     1       1.280   2.034   0.001  0.00  0.00    -0.124 NA
ATOM      9  C   UNL     1      -0.022   1.786   0.012  0.00  0.00    +0.186 A 
ATOM     10  S   UNL     1       0.002  -0.004   0.002  0.00  0.00    -0.013 S 
ATOM     11  N   UNL     1      -1.097   2.664   0.022  0.00  0.00    -0.312 N 
ATOM     12  C   UNL     1      -1.994   2.412  -1.115  0.00  0.00    +0.088 C 
ATOM     13  C   UNL     1      -3.204   3.345  -1.024  0.00  0.00    -0.059 C 
ATOM     14  C   UNL     1      -1.847   4.992   0.119  0.00  0.00    -0.059 C 
ATOM     15  C   UNL     1      -0.637   4.060   0.027  0.00  0.00    +0.088 C 
ATOM     16  N   UNL     1      -2.729   4.744  -1.042  0.00  0.00    +0.384 N 
ATOM     17  H   UNL     1      -2.197   4.905  -1.905  0.00  0.00    -0.081 HD
ENDROOT
BRANCH  16  18
ATOM     18  C   UNL     1      -3.882   5.670  -1.008  0.00  0.00    -0.068 C 
ATOM     19  C   UNL     1      -4.673   5.492   0.290  0.00  0.00    -0.015 C 
ATOM     20  C   UNL     1      -5.858   6.460   0.301  0.00  0.00    -0.002 C 
ATOM     21  C   UNL     1      -6.767   6.167  -0.895  0.00  0.00    -0.000 C 
ATOM     22  C   UNL     1      -5.975   6.345  -2.192  0.00  0.00    -0.002 C 
ATOM     23  C   UNL     1      -4.790   5.377  -2.203  0.00  0.00    -0.015 C 
ENDBRANCH  16  18
BRANCH   3  24
ATOM     24  C   UNL     1       4.844  -0.176  -0.046  0.00  0.00    +0.403 C 
ATOM     25  O   UNL     1       6.050  -0.330  -0.058  0.00  0.00    -0.239 OA
ATOM     26  O   UNL     1       4.323   1.068  -0.035  0.00  0.00    -0.239 OA
ENDBRANCH   3  24
TORSDOF 2
