REMARK  Name = ZINC28402800
REMARK  9 active torsions:
REMARK  status: ('A' for Active; 'I' for Inactive)
REMARK    1  A    between atoms: C_1  and  C_2
REMARK    2  A    between atoms: C_2  and  C_3
REMARK    3  A    between atoms: C_6  and  C_9
REMARK    4  A    between atoms: C_9  and  C_11
REMARK    5  A    between atoms: C_9  and  N_28
REMARK    6  A    between atoms: C_11  and  N_12
REMARK    7  A    between atoms: C_13  and  C_15
REMARK    8  A    between atoms: C_21  and  C_27
REMARK    9  A    between atoms: C_23  and  C_26
REMARK                            x       y       z     vdW  Elec       q    Type
REMARK                         _______ _______ _______ _____ _____    ______ ____
ROOT
ATOM      1  C   UNL     1       5.781  -0.875  -0.756  0.00  0.00    +0.094 C 
ENDROOT
BRANCH   1   2
ATOM      2  N   UNL     1       4.507  -0.152  -0.781  0.00  0.00    -0.310 N 
ATOM      3  C   UNL     1       4.436   1.070  -1.345  0.00  0.00    +0.279 C 
ATOM      4  O   UNL     1       5.429   1.572  -1.833  0.00  0.00    -0.267 OA
ATOM      5  H   UNL     1       3.608  -0.607  -0.339  0.00  0.00    +0.149 HD
BRANCH   3   6
ATOM      6  C   UNL     1       3.147   1.801  -1.371  0.00  0.00    +0.193 A 
ATOM      7  C   UNL     1       3.106   3.027  -1.944  0.00  0.00    +0.103 A 
ATOM      8  C   UNL     1       1.827   3.754  -1.971  0.00  0.00    +0.193 A 
ATOM      9  O   UNL     1       1.731   4.860  -2.473  0.00  0.00    -0.287 OA
ATOM     10  C   UNL     1       0.666   3.080  -1.359  0.00  0.00    +0.064 A 
ATOM     11  C   UNL     1      -0.591   3.682  -1.332  0.00  0.00    +0.018 A 
ATOM     12  C   UNL     1      -1.644   3.026  -0.757  0.00  0.00    -0.049 A 
ATOM     13  C   UNL     1      -1.469   1.765  -0.205  0.00  0.00    +0.010 A 
ATOM     14  C   UNL     1      -0.233   1.156  -0.218  0.00  0.00    -0.007 A 
ATOM     15  C   UNL     1       0.853   1.805  -0.798  0.00  0.00    +0.142 A 
ATOM     16  O   UNL     1       2.067   1.223  -0.825  0.00  0.00    -0.450 OA
ATOM     17  C   UNL     1      -0.058  -0.212   0.390  0.00  0.00    +0.047 C 
ATOM     18  C   UNL     1      -3.004   3.674  -0.727  0.00  0.00    +0.044 C 
ENDBRANCH   3   6
ENDBRANCH   1   2
BRANCH   1  19
ATOM     19  C   UNL     1       5.587  -2.225  -0.065  0.00  0.00    -0.020 C 
BRANCH  19  20
ATOM     20  N   UNL     1       5.008  -2.014   1.269  0.00  0.00    +0.385 N 
ATOM     21  C   UNL     1       5.907  -1.218   2.114  0.00  0.00    -0.078 C 
ATOM     22  C   UNL     1       5.211  -0.896   3.438  0.00  0.00    -0.019 C 
ATOM     23  C   UNL     1       4.840  -2.202   4.145  0.00  0.00    -0.004 C 
ATOM     24  C   UNL     1       3.943  -3.034   3.225  0.00  0.00    -0.019 C 
ATOM     25  C   UNL     1       4.675  -3.295   1.906  0.00  0.00    -0.078 C 
ATOM     26  H   UNL     1       4.073  -1.448   1.147  0.00  0.00    -0.081 HD
ENDBRANCH  19  20
BRANCH  19  30
ATOM     27  C   UNL     1       9.365  -4.183   0.320  0.00  0.00    -0.048 A 
ATOM     28  C   UNL     1       9.220  -2.871   0.734  0.00  0.00    +0.004 A 
ATOM     29  C   UNL     1       7.998  -2.238   0.609  0.00  0.00    +0.002 A 
ATOM     30  C   UNL     1       6.920  -2.916   0.071  0.00  0.00    -0.059 A 
ATOM     31  C   UNL     1       7.063  -4.229  -0.338  0.00  0.00    +0.002 A 
ATOM     32  C   UNL     1       8.287  -4.860  -0.218  0.00  0.00    +0.004 A 
BRANCH  27  34
ATOM     33  C   UNL     1      10.777  -5.563   1.820  0.00  0.00    +0.009 C 
ATOM     34  C   UNL     1      10.697  -4.873   0.457  0.00  0.00    +0.032 C 
ENDBRANCH  27  34
ENDBRANCH  19  30
ENDBRANCH   1  19
TORSDOF 6
