REMARK  Name = ZINC10264036
REMARK  8 active torsions:
REMARK  status: ('A' for Active; 'I' for Inactive)
REMARK    1  A    between atoms: C_1  and  C_2
REMARK    2  A    between atoms: C_5  and  C_8
REMARK    3  A    between atoms: C_11  and  S_14
REMARK    4  A    between atoms: N_12  and  C_13
REMARK    5  A    between atoms: S_14  and  C_15
REMARK    6  A    between atoms: C_15  and  C_16
REMARK    7  A    between atoms: N_18  and  N_19
REMARK    8  A    between atoms: C_20  and  C_22
REMARK                            x       y       z     vdW  Elec       q    Type
REMARK                         _______ _______ _______ _____ _____    ______ ____
ROOT
ATOM      1  C   UNL     1      -0.271  -4.750   0.632  0.00  0.00    +0.174 C 
ENDROOT
BRANCH   1   2
ATOM      2  C   UNL     1      -0.880  -6.116   0.817  0.00  0.00    +0.239 C 
ATOM      3  O   UNL     1      -2.079  -6.265   0.711  0.00  0.00    -0.273 OA
ATOM      4  N   UNL     1      -0.093  -7.173   1.100  0.00  0.00    -0.233 N 
ATOM      5  H   UNL     1       0.866  -7.054   1.185  0.00  0.00    +0.173 HD
BRANCH   4   6
ATOM      6  N   UNL     1      -0.659  -8.443   1.272  0.00  0.00    -0.230 N 
ATOM      7  C   UNL     1       0.129  -9.499   1.556  0.00  0.00    +0.262 C 
ATOM      8  O   UNL     1       1.330  -9.350   1.662  0.00  0.00    -0.269 OA
ATOM      9  H   UNL     1      -1.618  -8.562   1.187  0.00  0.00    +0.173 HD
BRANCH   7  10
ATOM     10  C   UNL     1      -0.469 -10.838   1.737  0.00  0.00    +0.056 A 
ATOM     11  C   UNL     1      -1.849 -11.012   1.621  0.00  0.00    +0.014 A 
ATOM     12  C   UNL     1      -2.400 -12.266   1.786  0.00  0.00    +0.001 A 
ATOM     13  C   UNL     1      -1.589 -13.349   2.077  0.00  0.00    +0.001 A 
ATOM     14  C   UNL     1      -0.221 -13.184   2.199  0.00  0.00    +0.021 A 
ATOM     15  C   UNL     1       0.345 -11.935   2.031  0.00  0.00    +0.053 A 
ATOM     16 CL   UNL     1       2.061 -11.730   2.185  0.00  0.00    -0.083 Cl
ENDBRANCH   7  10
ENDBRANCH   4   6
ENDBRANCH   1   2
BRANCH   1  17
ATOM     17  S   UNL     1      -1.577  -3.552   0.264  0.00  0.00    -0.077 S 
BRANCH  17  21
ATOM     18  C   UNL     1       0.031  -0.023  -0.211  0.00  0.00    +0.165 A 
ATOM     19  N   UNL     1       1.071  -0.781   0.046  0.00  0.00    -0.128 NA
ATOM     20  N   UNL     1       0.694  -1.996   0.230  0.00  0.00    -0.122 NA
ATOM     21  C   UNL     1      -0.611  -2.088   0.101  0.00  0.00    +0.192 A 
ATOM     22  N   UNL     1      -1.079  -0.836  -0.179  0.00  0.00    -0.305 N 
ATOM     23  C   UNL     1      -2.472  -0.441  -0.401  0.00  0.00    +0.153 C 
BRANCH  18  28
ATOM     24  C   UNL     1       0.096   5.637  -1.249  0.00  0.00    +0.044 C 
ATOM     25  C   UNL     1       0.079   4.155  -0.977  0.00  0.00    -0.050 A 
ATOM     26  C   UNL     1       1.159   3.556  -0.354  0.00  0.00    +0.004 A 
ATOM     27  C   UNL     1       1.150   2.200  -0.102  0.00  0.00    +0.012 A 
ATOM     28  C   UNL     1       0.048   1.431  -0.478  0.00  0.00    +0.019 A 
ATOM     29  C   UNL     1      -1.037   2.040  -1.112  0.00  0.00    +0.012 A 
ATOM     30  C   UNL     1      -1.017   3.398  -1.353  0.00  0.00    +0.004 A 
ENDBRANCH  18  28
ENDBRANCH  17  21
ENDBRANCH   1  17
TORSDOF 6
