REMARK  Name = ZINC39357954
REMARK  9 active torsions:
REMARK  status: ('A' for Active; 'I' for Inactive)
REMARK    1  A    between atoms: C_1  and  C_2
REMARK    2  A    between atoms: C_4  and  C_30
REMARK    3  A    between atoms: C_6  and  C_8
REMARK    4  A    between atoms: C_8  and  C_9
REMARK    5  A    between atoms: C_9  and  N_10
REMARK    6  A    between atoms: N_10  and  C_11
REMARK    7  A    between atoms: C_11  and  C_12
REMARK    8  A    between atoms: C_17  and  C_18
REMARK    9  A    between atoms: C_21  and  C_24
REMARK                            x       y       z     vdW  Elec       q    Type
REMARK                         _______ _______ _______ _____ _____    ______ ____
ROOT
ATOM      1  C   UNL     1       2.903  -3.893   4.603  0.00  0.00    -0.067 C 
ENDROOT
BRANCH   1   2
ATOM      2  C   UNL     1       2.918  -4.636   5.940  0.00  0.00    +0.066 C 
ATOM      3  C   UNL     1       2.394  -3.748   7.051  0.00  0.00    +0.115 C 
ATOM      4  N   UNL     1       3.367  -3.614   7.893  0.00  0.00    -0.161 NA
ATOM      5  N   UNL     1       4.510  -4.305   7.501  0.00  0.00    -0.153 NA
ATOM      6  C   UNL     1       4.341  -4.937   6.367  0.00  0.00    +0.077 C 
BRANCH   6   7
ATOM      7  C   UNL     1       5.325  -5.765   5.654  0.00  0.00    -0.001 A 
ATOM      8  C   UNL     1       4.983  -6.370   4.439  0.00  0.00    +0.010 A 
ATOM      9  C   UNL     1       5.902  -7.142   3.776  0.00  0.00    +0.009 A 
ATOM     10  C   UNL     1       7.178  -7.324   4.312  0.00  0.00    -0.018 A 
ATOM     11  C   UNL     1       7.521  -6.722   5.524  0.00  0.00    +0.009 A 
ATOM     12  C   UNL     1       6.607  -5.945   6.187  0.00  0.00    +0.010 A 
BRANCH  10  13
ATOM     13  C   UNL     1       8.169  -8.160   3.594  0.00  0.00    -0.018 A 
ATOM     14  C   UNL     1       7.832  -8.759   2.381  0.00  0.00    +0.008 A 
ATOM     15  C   UNL     1       8.760  -9.535   1.717  0.00  0.00    +0.001 A 
ATOM     16  C   UNL     1      10.022  -9.720   2.252  0.00  0.00    +0.000 A 
ATOM     17  C   UNL     1      10.362  -9.128   3.455  0.00  0.00    +0.001 A 
ATOM     18  C   UNL     1       9.445  -8.345   4.126  0.00  0.00    +0.008 A 
ENDBRANCH  10  13
ENDBRANCH   6   7
ENDBRANCH   1   2
BRANCH   1  19
ATOM     19  N   UNL     1       1.513  -3.673   4.181  0.00  0.00    +0.380 N 
ATOM     20  H   UNL     1       1.033  -3.123   4.877  0.00  0.00    -0.086 HD
ATOM     21  H   UNL     1       1.048  -4.563   4.077  0.00  0.00    -0.086 HD
BRANCH  19  22
ATOM     22  C   UNL     1       1.498  -2.959   2.897  0.00  0.00    -0.075 C 
BRANCH  22  23
ATOM     23  C   UNL     1       0.050  -2.731   2.457  0.00  0.00    +0.057 C 
BRANCH  23  29
ATOM     24  C   UNL     1      -0.018   1.503   0.010  0.00  0.00    +0.066 C 
ATOM     25  C   UNL     1       0.002  -0.004   0.002  0.00  0.00    +0.042 A 
ATOM     26  C   UNL     1       0.006  -0.700  -1.197  0.00  0.00    +0.055 A 
ATOM     27  C   UNL     1       0.025  -2.085  -1.155  0.00  0.00    +0.147 A 
ATOM     28  N   UNL     1       0.039  -2.693   0.020  0.00  0.00    -0.228 NA
ATOM     29  C   UNL     1       0.034  -1.999   1.140  0.00  0.00    +0.128 A 
ATOM     30  N   UNL     1       0.022  -0.681   1.139  0.00  0.00    -0.237 NA
BRANCH  27  31
ATOM     31  C   UNL     1       0.029  -2.888  -2.430  0.00  0.00    +0.434 C 
ATOM     32  F   UNL     1       1.350  -3.118  -2.832  0.00  0.00    -0.164 F 
ATOM     33  F   UNL     1      -0.613  -4.112  -2.213  0.00  0.00    -0.164 F 
ATOM     34  F   UNL     1      -0.645  -2.178  -3.430  0.00  0.00    -0.164 F 
ENDBRANCH  27  31
ENDBRANCH  23  29
ENDBRANCH  22  23
ENDBRANCH  19  22
ENDBRANCH   1  19
TORSDOF 8
