REMARK  Name = ZINC40015687
REMARK  17 active torsions:
REMARK  status: ('A' for Active; 'I' for Inactive)
REMARK    1  A    between atoms: C_1  and  C_2
REMARK    2  A    between atoms: C_2  and  C_3
REMARK    3  A    between atoms: C_3  and  C_4
REMARK    4  A    between atoms: C_4  and  O_5
REMARK    5  A    between atoms: O_5  and  C_6
REMARK    6  A    between atoms: C_9  and  C_12
REMARK    7  A    between atoms: C_13  and  C_14
REMARK    8  A    between atoms: C_22  and  C_23
REMARK    9  A    between atoms: C_25  and  C_34
REMARK   10  A    between atoms: C_26  and  O_33
REMARK   11  A    between atoms: C_27  and  C_29
REMARK   12  A    between atoms: C_29  and  C_30
REMARK   13  A    between atoms: C_29  and  C_31
REMARK   14  A    between atoms: C_29  and  C_32
REMARK   15  A    between atoms: C_34  and  C_35
REMARK   16  A    between atoms: C_34  and  C_36
REMARK   17  A    between atoms: C_34  and  C_37
REMARK                            x       y       z     vdW  Elec       q    Type
REMARK                         _______ _______ _______ _____ _____    ______ ____
ROOT
ATOM      1  C   UNL     1      -4.890 -10.346   1.623  0.00  0.00    +0.176 A 
ATOM      2  N   UNL     1      -3.885 -11.213   1.413  0.00  0.00    -0.201 NA
ATOM      3  C   UNL     1      -4.378 -12.364   1.053  0.00  0.00    +0.200 A 
ATOM      4  N   UNL     1      -5.742 -12.291   1.014  0.00  0.00    -0.169 N 
ATOM      5  N   UNL     1      -6.033 -10.953   1.399  0.00  0.00    -0.142 NA
ATOM      6  C   UNL     1      -6.440 -13.380   0.663  0.00  0.00    +0.288 A 
ATOM      7  O   UNL     1      -7.656 -13.361   0.615  0.00  0.00    -0.265 OA
ATOM      8  C   UNL     1      -5.686 -14.600   0.339  0.00  0.00    +0.082 A 
ATOM      9  C   UNL     1      -6.141 -15.822  -0.040  0.00  0.00    +0.028 C 
ATOM     10  S   UNL     1      -4.007 -14.037   0.578  0.00  0.00    -0.044 S 
ENDROOT
BRANCH   9  11
ATOM     11  C   UNL     1      -5.209 -16.950  -0.156  0.00  0.00    -0.023 A 
ATOM     12  C   UNL     1      -3.945 -16.881   0.445  0.00  0.00    +0.015 A 
ATOM     13  C   UNL     1      -3.075 -17.942   0.333  0.00  0.00    +0.000 A 
ATOM     14  C   UNL     1      -3.447 -19.079  -0.375  0.00  0.00    +0.124 A 
ATOM     15  C   UNL     1      -4.700 -19.152  -0.974  0.00  0.00    +0.000 A 
ATOM     16  C   UNL     1      -5.581 -18.100  -0.864  0.00  0.00    +0.015 A 
BRANCH  15  17
ATOM     17  C   UNL     1      -5.096 -20.387  -1.740  0.00  0.00    -0.009 C 
ATOM     18  C   UNL     1      -6.511 -20.212  -2.295  0.00  0.00    +0.015 C 
ATOM     19  C   UNL     1      -4.119 -20.605  -2.897  0.00  0.00    +0.015 C 
ATOM     20  C   UNL     1      -5.061 -21.599  -0.807  0.00  0.00    +0.015 C 
ENDBRANCH  15  17
BRANCH  13  21
ATOM     21  C   UNL     1      -1.715 -17.870   0.979  0.00  0.00    -0.009 C 
ATOM     22  C   UNL     1      -1.559 -16.524   1.689  0.00  0.00    +0.015 C 
ATOM     23  C   UNL     1      -1.574 -19.003   1.998  0.00  0.00    +0.015 C 
ATOM     24  C   UNL     1      -0.633 -18.011  -0.093  0.00  0.00    +0.015 C 
ENDBRANCH  13  21
BRANCH  14  25
ATOM     25  O   UNL     1      -2.585 -20.122  -0.482  0.00  0.00    -0.506 OA
ATOM     26  H   UNL     1      -2.668 -20.775   0.226  0.00  0.00    +0.292 HD
ENDBRANCH  14  25
ENDBRANCH   9  11
BRANCH   1  28
ATOM     27  C   UNL     1      -3.508  -8.433   2.240  0.00  0.00    +0.011 C 
ATOM     28  C   UNL     1      -4.735  -8.943   2.042  0.00  0.00    +0.050 C 
BRANCH  27  32
ATOM     29  C   UNL     1      -3.061  -4.388   3.447  0.00  0.00    +0.121 A 
ATOM     30  C   UNL     1      -1.937  -5.182   3.258  0.00  0.00    +0.046 A 
ATOM     31  C   UNL     1      -2.077  -6.496   2.866  0.00  0.00    +0.011 A 
ATOM     32  C   UNL     1      -3.353  -7.029   2.660  0.00  0.00    -0.025 A 
ATOM     33  C   UNL     1      -4.481  -6.226   2.852  0.00  0.00    +0.011 A 
ATOM     34  C   UNL     1      -4.331  -4.915   3.249  0.00  0.00    +0.046 A 
BRANCH  29  35
ATOM     35  O   UNL     1      -2.918  -3.093   3.833  0.00  0.00    -0.492 OA
BRANCH  35  36
ATOM     36  C   UNL     1      -1.584  -2.616   4.020  0.00  0.00    +0.229 C 
BRANCH  36  37
ATOM     37  C   UNL     1      -1.623  -1.148   4.450  0.00  0.00    +0.041 C 
BRANCH  37  39
ATOM     38  C   UNL     1      -0.235   0.831   5.081  0.00  0.00    +0.004 C 
ATOM     39  C   UNL     1      -0.195  -0.637   4.650  0.00  0.00    -0.000 C 
ENDBRANCH  37  39
ENDBRANCH  36  37
ENDBRANCH  35  36
ENDBRANCH  29  35
ENDBRANCH  27  32
ENDBRANCH   1  28
TORSDOF 10
