REMARK  Name = ZINC62243110
REMARK  6 active torsions:
REMARK  status: ('A' for Active; 'I' for Inactive)
REMARK    1  A    between atoms: C_1  and  C_2
REMARK    2  A    between atoms: C_2  and  C_3
REMARK    3  A    between atoms: C_6  and  C_9
REMARK    4  A    between atoms: C_6  and  N_13
REMARK    5  A    between atoms: N_10  and  O_11
REMARK    6  A    between atoms: C_14  and  C_16
REMARK                            x       y       z     vdW  Elec       q    Type
REMARK                         _______ _______ _______ _____ _____    ______ ____
ROOT
ATOM      1  C   UNL     1      -1.571  -0.508  -0.158  0.00  0.00    -0.011 C 
ATOM      2  C   UNL     1      -2.142  -0.123   1.208  0.00  0.00    +0.006 C 
ATOM      3  C   UNL     1      -3.561  -0.677   1.343  0.00  0.00    +0.034 C 
ATOM      4  C   UNL     1      -3.528  -2.201   1.216  0.00  0.00    +0.093 C 
ATOM      5  C   UNL     1      -2.958  -2.587  -0.150  0.00  0.00    +0.034 C 
ATOM      6  C   UNL     1      -1.538  -2.033  -0.285  0.00  0.00    +0.006 C 
ENDROOT
BRANCH   4   7
ATOM      7  C   UNL     1      -4.927  -2.747   1.348  0.00  0.00    +0.155 C 
ATOM      8  N   UNL     1      -5.922  -1.940   1.513  0.00  0.00    -0.075 NA
ATOM      9  N   UNL     1      -5.144  -4.106   1.294  0.00  0.00    -0.342 N 
ATOM     10  H   UNL     1      -4.391  -4.715   1.245  0.00  0.00    +0.144 HD
ATOM     11  H   UNL     1      -6.049  -4.453   1.305  0.00  0.00    +0.144 HD
BRANCH   8  12
ATOM     12  O   UNL     1      -7.236  -2.453   1.637  0.00  0.00    -0.408 OA
ATOM     13  H   UNL     1      -7.914  -1.773   1.756  0.00  0.00    +0.328 HD
ENDBRANCH   8  12
ENDBRANCH   4   7
BRANCH   4  14
ATOM     14  N   UNL     1      -2.683  -2.761   2.273  0.00  0.00    -0.303 N 
ATOM     15  C   UNL     1      -3.054  -2.645   3.564  0.00  0.00    +0.219 C 
ATOM     16  O   UNL     1      -4.039  -2.002   3.857  0.00  0.00    -0.275 OA
ATOM     17  H   UNL     1      -1.857  -3.215   2.045  0.00  0.00    +0.150 HD
BRANCH  15  18
ATOM     18  C   UNL     1      -2.243  -3.315   4.644  0.00  0.00    +0.101 C 
ATOM     19  C   UNL     1      -2.873  -3.026   6.010  0.00  0.00    +0.017 C 
ATOM     20  C   UNL     1      -1.998  -3.646   7.104  0.00  0.00    +0.029 C 
ATOM     21  C   UNL     1      -0.578  -3.087   6.989  0.00  0.00    +0.160 C 
ATOM     22  O   UNL     1      -0.063  -3.363   5.684  0.00  0.00    -0.379 OA
ATOM     23  C   UNL     1      -0.813  -2.770   4.622  0.00  0.00    +0.172 C 
ENDBRANCH  15  18
ENDBRANCH   4  14
BRANCH   1  25
ATOM     24  C   UNL     1      -0.198   1.575  -0.290  0.00  0.00    +0.004 C 
ATOM     25  C   UNL     1      -0.151   0.046  -0.292  0.00  0.00    -0.000 C 
ENDBRANCH   1  25
TORSDOF 5
