REMARK  Name = ZINC35838462
REMARK  6 active torsions:
REMARK  status: ('A' for Active; 'I' for Inactive)
REMARK    1  A    between atoms: C_1  and  C_2
REMARK    2  A    between atoms: C_2  and  C_4
REMARK    3  A    between atoms: C_2  and  N_10
REMARK    4  A    between atoms: C_16  and  C_23
REMARK    5  A    between atoms: N_21  and  C_22
REMARK    6  A    between atoms: C_28  and  C_29
REMARK                            x       y       z     vdW  Elec       q    Type
REMARK                         _______ _______ _______ _____ _____    ______ ____
ROOT
ATOM      1  N   UNL     1       0.872  -0.119  -1.105  0.00  0.00    -0.285 N 
ATOM      2  C   UNL     1       0.193  -0.852  -2.184  0.00  0.00    +0.160 C 
ATOM      3  C   UNL     1       1.296  -1.242  -3.142  0.00  0.00    +0.042 C 
ATOM      4  C   UNL     1       2.442  -0.762  -2.618  0.00  0.00    +0.058 C 
ATOM      5  C   UNL     1       2.183  -0.089  -1.407  0.00  0.00    +0.247 C 
ATOM      6  O   UNL     1       3.034   0.447  -0.721  0.00  0.00    -0.270 OA
ATOM      7  C   UNL     1       3.726  -1.012  -3.383  0.00  0.00    +0.142 C 
ATOM      8  N   UNL     1       3.615  -1.764  -4.644  0.00  0.00    -0.288 N 
ATOM      9  C   UNL     1       2.395  -2.180  -5.038  0.00  0.00    +0.307 C 
ATOM     10  O   UNL     1       2.294  -2.803  -6.078  0.00  0.00    -0.252 OA
ATOM     11  N   UNL     1       1.292  -1.931  -4.322  0.00  0.00    -0.260 N 
ATOM     12  C   UNL     1       0.009  -2.424  -4.831  0.00  0.00    +0.139 C 
ATOM     13  H   UNL     1       4.401  -1.956  -5.178  0.00  0.00    +0.151 HD
ENDROOT
BRANCH   7  14
ATOM     14  C   UNL     1       4.668  -1.762  -2.477  0.00  0.00    -0.011 A 
ATOM     15  C   UNL     1       4.423  -3.087  -2.168  0.00  0.00    +0.006 A 
ATOM     16  C   UNL     1       5.287  -3.775  -1.337  0.00  0.00    +0.000 A 
ATOM     17  C   UNL     1       6.397  -3.137  -0.814  0.00  0.00    +0.001 A 
ATOM     18  C   UNL     1       6.643  -1.813  -1.123  0.00  0.00    +0.013 A 
ATOM     19  C   UNL     1       5.780  -1.126  -1.958  0.00  0.00    +0.060 A 
BRANCH  19  20
ATOM     20  C   UNL     1       6.051   0.317  -2.299  0.00  0.00    +0.418 C 
ATOM     21  F   UNL     1       7.177   0.758  -1.596  0.00  0.00    -0.166 F 
ATOM     22  F   UNL     1       6.284   0.435  -3.674  0.00  0.00    -0.166 F 
ATOM     23  F   UNL     1       4.945   1.095  -1.944  0.00  0.00    -0.166 F 
ENDBRANCH  19  20
ENDBRANCH   7  14
BRANCH   1  25
ATOM     24  C   UNL     1      -1.251   0.121   0.085  0.00  0.00    +0.033 C 
ATOM     25  C   UNL     1       0.238   0.473   0.076  0.00  0.00    +0.104 C 
BRANCH  25  26
ATOM     26  C   UNL     1       0.400   1.970   0.035  0.00  0.00    -0.027 A 
ATOM     27  C   UNL     1       0.327   2.641  -1.171  0.00  0.00    +0.005 A 
ATOM     28  C   UNL     1       0.476   4.015  -1.209  0.00  0.00    +0.000 A 
ATOM     29  C   UNL     1       0.698   4.718  -0.039  0.00  0.00    +0.000 A 
ATOM     30  C   UNL     1       0.771   4.047   1.167  0.00  0.00    +0.000 A 
ATOM     31  C   UNL     1       0.617   2.674   1.205  0.00  0.00    +0.005 A 
ENDBRANCH  25  26
ENDBRANCH   1  25
TORSDOF 4
