REMARK  Name = ZINC67500056
REMARK  12 active torsions:
REMARK  status: ('A' for Active; 'I' for Inactive)
REMARK    1  A    between atoms: C_1  and  C_2
REMARK    2  A    between atoms: C_2  and  C_3
REMARK    3  A    between atoms: C_3  and  C_4
REMARK    4  A    between atoms: N_6  and  C_7
REMARK    5  A    between atoms: C_11  and  N_14
REMARK    6  A    between atoms: C_12  and  C_13
REMARK    7  A    between atoms: C_15  and  C_17
REMARK    8  A    between atoms: C_17  and  N_18
REMARK    9  A    between atoms: C_21  and  C_25
REMARK   10  A    between atoms: C_21  and  C_27
REMARK   11  A    between atoms: C_25  and  C_26
REMARK   12  A    between atoms: C_27  and  C_28
REMARK                            x       y       z     vdW  Elec       q    Type
REMARK                         _______ _______ _______ _____ _____    ______ ____
ROOT
ATOM      1  N   UNL     1      -4.873  -6.831  -0.401  0.00  0.00    -0.284 N 
ATOM      2  C   UNL     1      -4.862  -8.179  -0.402  0.00  0.00    +0.235 C 
ATOM      3  O   UNL     1      -3.807  -8.777  -0.401  0.00  0.00    -0.274 OA
ATOM      4  H   UNL     1      -5.714  -6.353  -0.472  0.00  0.00    +0.155 HD
ENDROOT
BRANCH   1   9
ATOM      5  C   UNL     1      -2.438  -4.221   0.498  0.00  0.00    +0.038 A 
ATOM      6  C   UNL     1      -1.288  -4.723  -0.097  0.00  0.00    +0.024 A 
ATOM      7  C   UNL     1      -1.331  -5.919  -0.787  0.00  0.00    +0.004 A 
ATOM      8  C   UNL     1      -2.518  -6.619  -0.889  0.00  0.00    +0.024 A 
ATOM      9  C   UNL     1      -3.672  -6.122  -0.297  0.00  0.00    +0.038 A 
ATOM     10  C   UNL     1      -3.630  -4.924   0.402  0.00  0.00    -0.008 A 
ATOM     11  C   UNL     1      -4.879  -4.385   1.051  0.00  0.00    +0.047 C 
BRANCH   5  14
ATOM     12  C   UNL     1      -1.232  -2.582   1.730  0.00  0.00    +0.217 C 
ATOM     13  O   UNL     1      -0.249  -3.291   1.690  0.00  0.00    -0.275 OA
ATOM     14  N   UNL     1      -2.394  -3.010   1.198  0.00  0.00    -0.285 N 
ATOM     15  H   UNL     1      -3.199  -2.479   1.300  0.00  0.00    +0.155 HD
BRANCH  12  16
ATOM     16  C   UNL     1      -1.154  -1.222   2.374  0.00  0.00    +0.096 C 
BRANCH  16  18
ATOM     17  C   UNL     1       0.344   0.398   3.547  0.00  0.00    +0.004 C 
ATOM     18  C   UNL     1       0.265  -0.983   2.893  0.00  0.00    +0.006 C 
ENDBRANCH  16  18
ENDBRANCH  12  16
ENDBRANCH   5  14
ENDBRANCH   1   9
BRANCH   2  19
ATOM     19  C   UNL     1      -6.162  -8.943  -0.405  0.00  0.00    +0.214 C 
BRANCH  19  20
ATOM     20  N   UNL     1      -5.882 -10.381  -0.406  0.00  0.00    -0.215 N 
ATOM     21  C   UNL     1      -5.730 -11.122  -1.522  0.00  0.00    +0.247 C 
ATOM     22  O   UNL     1      -5.796 -10.739  -2.670  0.00  0.00    -0.273 OA
ATOM     23  C   UNL     1      -5.458 -12.534  -1.042  0.00  0.00    +0.112 C 
ATOM     24  N   UNL     1      -5.492 -12.413   0.426  0.00  0.00    -0.285 N 
ATOM     25  C   UNL     1      -5.741 -11.120   0.700  0.00  0.00    +0.310 C 
ATOM     26  O   UNL     1      -5.830 -10.673   1.827  0.00  0.00    -0.252 OA
ATOM     27  H   UNL     1      -5.358 -13.127   1.070  0.00  0.00    +0.151 HD
BRANCH  23  28
ATOM     28  C   UNL     1      -4.081 -13.007  -1.512  0.00  0.00    +0.032 C 
ATOM     29  C   UNL     1      -2.997 -12.142  -0.865  0.00  0.00    +0.006 C 
ENDBRANCH  23  28
BRANCH  23  30
ATOM     30  C   UNL     1      -6.551 -13.488  -1.528  0.00  0.00    +0.032 C 
ATOM     31  C   UNL     1      -7.909 -13.021  -0.998  0.00  0.00    +0.006 C 
ENDBRANCH  23  30
ENDBRANCH  19  20
ENDBRANCH   2  19
TORSDOF 8
