REMARK  Name = ZINC15959269
REMARK  7 active torsions:
REMARK  status: ('A' for Active; 'I' for Inactive)
REMARK    1  A    between atoms: C_1  and  C_2
REMARK    2  A    between atoms: C_2  and  C_3
REMARK    3  A    between atoms: C_3  and  C_5
REMARK    4  A    between atoms: C_3  and  N_6
REMARK    5  A    between atoms: C_7  and  C_9
REMARK    6  A    between atoms: C_14  and  N_15
REMARK    7  A    between atoms: C_31  and  C_36
REMARK                            x       y       z     vdW  Elec       q    Type
REMARK                         _______ _______ _______ _____ _____    ______ ____
ROOT
ATOM      1  N   UNL     1       1.349   2.421   4.848  0.00  0.00    -0.192 N 
ATOM      2  C   UNL     1       2.343   3.300   4.608  0.00  0.00    +0.248 C 
ATOM      3  O   UNL     1       2.229   4.474   4.327  0.00  0.00    -0.273 OA
ATOM      4  C   UNL     1       3.633   2.519   4.763  0.00  0.00    +0.170 C 
ATOM      5  C   UNL     1       4.449   3.093   5.928  0.00  0.00    +0.069 C 
ATOM      6  C   UNL     1       5.347   2.018   6.487  0.00  0.00    -0.015 A 
ATOM      7  C   UNL     1       6.534   2.196   7.303  0.00  0.00    +0.003 A 
ATOM      8  C   UNL     1       7.181   3.335   7.791  0.00  0.00    +0.010 A 
ATOM      9  C   UNL     1       8.306   3.130   8.552  0.00  0.00    +0.001 A 
ATOM     10  C   UNL     1       8.786   1.860   8.829  0.00  0.00    +0.002 A 
ATOM     11  C   UNL     1       8.165   0.717   8.357  0.00  0.00    +0.026 A 
ATOM     12  C   UNL     1       7.021   0.894   7.582  0.00  0.00    +0.047 A 
ATOM     13  N   UNL     1       6.182   0.008   6.971  0.00  0.00    -0.356 N 
ATOM     14  H   UNL     1       6.275  -0.957   6.995  0.00  0.00    +0.166 HD
ATOM     15  C   UNL     1       5.189   0.688   6.318  0.00  0.00    +0.046 A 
ATOM     16  C   UNL     1       4.066   0.073   5.506  0.00  0.00    +0.155 C 
ATOM     17  N   UNL     1       3.159   1.174   5.157  0.00  0.00    -0.260 N 
ATOM     18  C   UNL     1       1.825   1.203   5.144  0.00  0.00    +0.317 C 
ATOM     19  O   UNL     1       1.124   0.237   5.373  0.00  0.00    -0.252 OA
ENDROOT
BRANCH   1  25
ATOM     20  C   UNL     1      -0.714   2.606   3.585  0.00  0.00    +0.059 A 
ATOM     21  C   UNL     1      -2.073   2.921   3.542  0.00  0.00    +0.015 A 
ATOM     22  C   UNL     1      -2.713   3.365   4.679  0.00  0.00    +0.001 A 
ATOM     23  C   UNL     1      -2.013   3.501   5.867  0.00  0.00    +0.002 A 
ATOM     24  C   UNL     1      -0.668   3.193   5.924  0.00  0.00    +0.025 A 
ATOM     25  C   UNL     1      -0.010   2.739   4.790  0.00  0.00    +0.058 A 
BRANCH  20  27
ATOM     26  N   UNL     1      -0.704   1.998   1.216  0.00  0.00    -0.309 N 
ATOM     27  C   UNL     1      -0.023   2.130   2.371  0.00  0.00    +0.246 C 
ATOM     28  O   UNL     1       1.161   1.857   2.413  0.00  0.00    -0.270 OA
ATOM     29  H   UNL     1      -1.649   2.216   1.182  0.00  0.00    +0.149 HD
BRANCH  26  30
ATOM     30  C   UNL     1      -0.019   1.526   0.010  0.00  0.00    +0.070 C 
ATOM     31  C   UNL     1       0.002  -0.004   0.002  0.00  0.00    +0.028 C 
BRANCH  30  33
ATOM     32  C   UNL     1      -0.672   3.559  -1.286  0.00  0.00    +0.005 C 
ATOM     33  C   UNL     1      -0.759   2.033  -1.229  0.00  0.00    +0.018 C 
ENDBRANCH  30  33
ENDBRANCH  26  30
ENDBRANCH  20  27
ENDBRANCH   1  25
BRANCH  16  34
ATOM     34  C   UNL     1       3.336  -0.958   6.329  0.00  0.00    -0.021 A 
ATOM     35  C   UNL     1       2.443  -0.557   7.304  0.00  0.00    +0.006 A 
ATOM     36  C   UNL     1       1.771  -1.502   8.056  0.00  0.00    +0.000 A 
ATOM     37  C   UNL     1       1.998  -2.848   7.838  0.00  0.00    +0.000 A 
ATOM     38  C   UNL     1       2.895  -3.249   6.866  0.00  0.00    +0.000 A 
ATOM     39  C   UNL     1       3.565  -2.304   6.111  0.00  0.00    +0.006 A 
ENDBRANCH  16  34
TORSDOF 5
