REMARK  Name = ZINC10374871
REMARK  8 active torsions:
REMARK  status: ('A' for Active; 'I' for Inactive)
REMARK    1  A    between atoms: C_1  and  C_2
REMARK    2  A    between atoms: C_2  and  C_3
REMARK    3  A    between atoms: C_2  and  C_4
REMARK    4  A    between atoms: C_2  and  C_5
REMARK    5  A    between atoms: C_12  and  C_14
REMARK    6  A    between atoms: C_19  and  N_22
REMARK    7  A    between atoms: N_22  and  S_23
REMARK    8  A    between atoms: S_23  and  C_26
REMARK                            x       y       z     vdW  Elec       q    Type
REMARK                         _______ _______ _______ _____ _____    ______ ____
ROOT
ATOM      1  C   UNL     1       5.894  -0.434  -4.729  0.00  0.00    +0.253 C 
ATOM      2  O   UNL     1       6.481   0.609  -4.511  0.00  0.00    -0.269 OA
ATOM      3  N   UNL     1       6.355  -1.283  -5.669  0.00  0.00    -0.297 N 
ATOM      4  C   UNL     1       7.642  -1.037  -6.333  0.00  0.00    +0.109 C 
ATOM      5  C   UNL     1       7.426  -1.052  -7.849  0.00  0.00    +0.039 C 
ATOM      6  C   UNL     1       6.752  -2.365  -8.252  0.00  0.00    +0.079 C 
ATOM      7  C   UNL     1       5.387  -2.471  -7.568  0.00  0.00    +0.039 C 
ATOM      8  C   UNL     1       5.583  -2.476  -6.044  0.00  0.00    +0.109 C 
ENDROOT
BRANCH   1  15
ATOM      9  C   UNL     1       0.456  -0.565  -1.686  0.00  0.00    -0.001 C 
ATOM     10  C   UNL     1       0.823  -1.930  -1.096  0.00  0.00    +0.009 C 
ATOM     11  C   UNL     1       1.570  -2.744  -2.162  0.00  0.00    +0.043 C 
ATOM     12  C   UNL     1       2.639  -1.877  -2.758  0.00  0.00    -0.006 A 
ATOM     13  C   UNL     1       2.747  -0.521  -2.647  0.00  0.00    -0.036 A 
ATOM     14  C   UNL     1       3.826   0.072  -3.285  0.00  0.00    +0.024 A 
ATOM     15  C   UNL     1       4.685  -0.768  -3.970  0.00  0.00    +0.075 A 
ATOM     16  S   UNL     1       3.938  -2.362  -3.689  0.00  0.00    -0.088 S 
ATOM     17  C   UNL     1       1.718   0.281  -1.855  0.00  0.00    +0.040 C 
BRANCH   9  19
ATOM     18  C   UNL     1      -0.884   1.514  -1.334  0.00  0.00    +0.011 C 
ATOM     19  C   UNL     1      -0.514   0.151  -0.745  0.00  0.00    -0.035 C 
ATOM     20  C   UNL     1       0.151   0.350   0.619  0.00  0.00    +0.011 C 
ATOM     21  C   UNL     1      -1.779  -0.693  -0.577  0.00  0.00    +0.011 C 
ENDBRANCH   9  19
ENDBRANCH   1  15
BRANCH   6  22
ATOM     22  N   UNL     1       6.573  -2.397  -9.706  0.00  0.00    -0.187 NA
ATOM     23  H   UNL     1       6.373  -1.579 -10.188  0.00  0.00    +0.148 HD
BRANCH  22  24
ATOM     24  S   UNL     1       6.712  -3.828 -10.526  0.00  0.00    +0.059 S 
ATOM     25  O   UNL     1       6.462  -3.538 -11.895  0.00  0.00    -0.153 OA
ATOM     26  O   UNL     1       7.920  -4.434 -10.085  0.00  0.00    -0.153 OA
BRANCH  24  27
ATOM     27  C   UNL     1       5.399  -4.870  -9.984  0.00  0.00    +0.105 A 
ATOM     28  C   UNL     1       5.582  -5.705  -8.898  0.00  0.00    +0.028 A 
ATOM     29  C   UNL     1       4.551  -6.521  -8.472  0.00  0.00    +0.002 A 
ATOM     30  C   UNL     1       3.337  -6.503  -9.133  0.00  0.00    +0.000 A 
ATOM     31  C   UNL     1       3.153  -5.667 -10.219  0.00  0.00    +0.002 A 
ATOM     32  C   UNL     1       4.183  -4.847 -10.641  0.00  0.00    +0.028 A 
ENDBRANCH  24  27
ENDBRANCH  22  24
ENDBRANCH   6  22
TORSDOF 5
