REMARK  Name = ZINC36324469
REMARK  10 active torsions:
REMARK  status: ('A' for Active; 'I' for Inactive)
REMARK    1  A    between atoms: C_1  and  C_2
REMARK    2  A    between atoms: C_2  and  C_3
REMARK    3  A    between atoms: C_3  and  O_4
REMARK    4  A    between atoms: O_4  and  C_5
REMARK    5  A    between atoms: C_8  and  O_11
REMARK    6  A    between atoms: O_11  and  C_12
REMARK    7  A    between atoms: C_12  and  C_13
REMARK    8  A    between atoms: C_13  and  C_15
REMARK    9  A    between atoms: C_17  and  C_21
REMARK   10  A    between atoms: C_19  and  C_20
REMARK                            x       y       z     vdW  Elec       q    Type
REMARK                         _______ _______ _______ _____ _____    ______ ____
ROOT
ATOM      1  O   UNL     1       3.281  -4.420   5.431  0.00  0.00    -0.484 OA
ENDROOT
BRANCH   1   5
ATOM      2  C   UNL     1       1.386  -2.554   2.274  0.00  0.00    +0.121 A 
ATOM      3  C   UNL     1       1.962  -1.797   3.283  0.00  0.00    +0.049 A 
ATOM      4  C   UNL     1       2.595  -2.421   4.339  0.00  0.00    +0.049 A 
ATOM      5  C   UNL     1       2.656  -3.806   4.391  0.00  0.00    +0.121 A 
ATOM      6  C   UNL     1       2.079  -4.564   3.383  0.00  0.00    +0.049 A 
ATOM      7  C   UNL     1       1.441  -3.939   2.329  0.00  0.00    +0.049 A 
BRANCH   2   8
ATOM      8  O   UNL     1       0.761  -1.940   1.234  0.00  0.00    -0.492 OA
BRANCH   8   9
ATOM      9  C   UNL     1       0.742  -0.511   1.242  0.00  0.00    +0.229 C 
BRANCH   9  11
ATOM     10  C   UNL     1      -0.019   1.526   0.010  0.00  0.00    +0.007 C 
ATOM     11  C   UNL     1       0.002  -0.004   0.002  0.00  0.00    +0.038 C 
ENDBRANCH   9  11
ENDBRANCH   8   9
ENDBRANCH   2   8
ENDBRANCH   1   5
BRANCH   1  12
ATOM     12  C   UNL     1       3.305  -5.849   5.420  0.00  0.00    +0.308 C 
BRANCH  12  13
ATOM     13  C   UNL     1       4.034  -6.348   6.641  0.00  0.00    +0.201 C 
ATOM     14  O   UNL     1       4.488  -5.558   7.442  0.00  0.00    -0.288 OA
BRANCH  13  15
ATOM     15  C   UNL     1       4.194  -7.787   6.861  0.00  0.00    +0.031 A 
ATOM     16  C   UNL     1       3.672  -8.759   5.928  0.00  0.00    +0.022 A 
ATOM     17  C   UNL     1       3.887 -10.050   6.246  0.00  0.00    -0.012 A 
ATOM     18  S   UNL     1       4.779  -9.947   7.782  0.00  0.00    -0.098 S 
ATOM     19  C   UNL     1       4.856  -8.281   7.968  0.00  0.00    -0.002 A 
ATOM     20  C   UNL     1       5.497  -7.503   9.088  0.00  0.00    +0.052 C 
ATOM     21  C   UNL     1       3.471 -11.282   5.485  0.00  0.00    +0.051 C 
ENDBRANCH  13  15
ENDBRANCH  12  13
ENDBRANCH   1  12
TORSDOF 7
