REMARK  Name = ZINC33526101
REMARK  3 active torsions:
REMARK  status: ('A' for Active; 'I' for Inactive)
REMARK    1  A    between atoms: C_5  and  C_7
REMARK    2  A    between atoms: C_9  and  C_16
REMARK    3  A    between atoms: C_12  and  C_13
REMARK                            x       y       z     vdW  Elec       q    Type
REMARK                         _______ _______ _______ _____ _____    ______ ____
ROOT
ATOM      1  C   UNL     1       1.247  -2.163  -0.022  0.00  0.00    +0.008 A 
ATOM      2  C   UNL     1       0.749  -2.882  -1.108  0.00  0.00    +0.038 A 
ATOM      3  C   UNL     1       0.792  -4.272  -1.081  0.00  0.00    +0.074 A 
ATOM      4  N   UNL     1       1.297  -4.924  -0.039  0.00  0.00    -0.231 NA
ATOM      5  C   UNL     1       1.781  -4.290   1.015  0.00  0.00    +0.135 A 
ATOM      6  C   UNL     1       1.783  -2.885   1.067  0.00  0.00    +0.099 A 
ATOM      7  N   UNL     1       2.296  -5.016   2.075  0.00  0.00    -0.342 N 
ATOM      8  H   UNL     1       2.301  -5.985   2.042  0.00  0.00    +0.144 HD
ATOM      9  H   UNL     1       2.653  -4.555   2.851  0.00  0.00    +0.144 HD
ENDROOT
BRANCH   1  14
ATOM     10  C   UNL     1      -0.017   1.375   0.010  0.00  0.00    +0.001 A 
ATOM     11  C   UNL     1       1.170   2.087   0.002  0.00  0.00    +0.003 A 
ATOM     12  C   UNL     1       2.382   1.423  -0.013  0.00  0.00    +0.039 A 
ATOM     13  C   UNL     1       2.415   0.041  -0.021  0.00  0.00    +0.131 A 
ATOM     14  C   UNL     1       1.220  -0.683  -0.013  0.00  0.00    +0.019 A 
ATOM     15  C   UNL     1       0.002  -0.004   0.002  0.00  0.00    +0.011 A 
ATOM     16  F   UNL     1       3.600  -0.609  -0.036  0.00  0.00    -0.205 F 
ENDBRANCH   1  14
BRANCH   3  17
ATOM     17  C   UNL     1       0.263  -5.040  -2.233  0.00  0.00    +0.000 A 
ATOM     18  C   UNL     1      -0.266  -4.371  -3.336  0.00  0.00    +0.011 A 
ATOM     19  C   UNL     1      -0.755  -5.090  -4.407  0.00  0.00    +0.016 A 
ATOM     20  C   UNL     1      -0.723  -6.474  -4.387  0.00  0.00    +0.018 A 
ATOM     21  C   UNL     1      -0.199  -7.144  -3.294  0.00  0.00    +0.016 A 
ATOM     22  C   UNL     1       0.299  -6.434  -2.221  0.00  0.00    +0.011 A 
ATOM     23 BR   UNL     1      -1.398  -7.453  -5.857  0.00  0.00    -0.050 Br
ENDBRANCH   3  17
BRANCH   6  24
ATOM     24  C   UNL     1       2.313  -2.198   2.206  0.00  0.00    +0.103 C 
ATOM     25  N   UNL     1       2.733  -1.654   3.110  0.00  0.00    -0.191 NA
ENDBRANCH   6  24
TORSDOF 3
