REMARK  Name = ZINC09881545
REMARK  8 active torsions:
REMARK  status: ('A' for Active; 'I' for Inactive)
REMARK    1  A    between atoms: C_1  and  C_2
REMARK    2  A    between atoms: C_2  and  C_4
REMARK    3  A    between atoms: C_2  and  S_16
REMARK    4  A    between atoms: N_6  and  C_7
REMARK    5  A    between atoms: S_16  and  C_17
REMARK    6  A    between atoms: C_20  and  C_29
REMARK    7  A    between atoms: N_21  and  C_22
REMARK    8  A    between atoms: C_29  and  N_57
REMARK                            x       y       z     vdW  Elec       q    Type
REMARK                         _______ _______ _______ _____ _____    ______ ____
ROOT
ATOM      1  C   UNL     1       5.215  -3.213  -0.352  0.00  0.00    +0.197 A 
ATOM      2  N   UNL     1       6.250  -2.515   0.056  0.00  0.00    -0.122 NA
ATOM      3  N   UNL     1       7.316  -3.229  -0.015  0.00  0.00    -0.135 NA
ATOM      4  C   UNL     1       7.030  -4.417  -0.469  0.00  0.00    +0.122 A 
ATOM      5  N   UNL     1       5.680  -4.453  -0.695  0.00  0.00    -0.276 N 
ENDROOT
BRANCH   5   6
ATOM      6  C   UNL     1       4.930  -5.535  -1.181  0.00  0.00    +0.050 A 
ATOM      7  C   UNL     1       4.821  -6.697  -0.430  0.00  0.00    +0.029 A 
ATOM      8  C   UNL     1       4.079  -7.760  -0.908  0.00  0.00    +0.040 A 
ATOM      9  C   UNL     1       3.452  -7.669  -2.139  0.00  0.00    +0.124 A 
ATOM     10  C   UNL     1       3.564  -6.512  -2.892  0.00  0.00    +0.040 A 
ATOM     11  C   UNL     1       4.301  -5.446  -2.415  0.00  0.00    +0.029 A 
ATOM     12  F   UNL     1       2.731  -8.711  -2.607  0.00  0.00    -0.205 F 
ENDBRANCH   5   6
BRANCH   1  13
ATOM     13  S   UNL     1       3.544  -2.660  -0.434  0.00  0.00    -0.073 S 
BRANCH  13  15
ATOM     14  C   UNL     1       4.198  -1.005   1.638  0.00  0.00    +0.029 C 
ATOM     15  C   UNL     1       3.742  -0.969   0.178  0.00  0.00    +0.137 C 
BRANCH  15  16
ATOM     16  C   UNL     1       2.426  -0.242   0.080  0.00  0.00    +0.230 C 
ATOM     17  O   UNL     1       1.386  -0.866   0.087  0.00  0.00    -0.274 OA
ATOM     18  N   UNL     1       2.404   1.103  -0.015  0.00  0.00    -0.282 N 
ATOM     19  H   UNL     1       3.234   1.597  -0.101  0.00  0.00    +0.155 HD
BRANCH  18  20
ATOM     20  C   UNL     1       1.181   1.787   0.012  0.00  0.00    +0.072 A 
ATOM     21  C   UNL     1       0.076   1.213   0.627  0.00  0.00    +0.029 A 
ATOM     22  C   UNL     1      -1.130   1.886   0.648  0.00  0.00    +0.043 A 
ATOM     23  C   UNL     1      -1.238   3.137   0.066  0.00  0.00    +0.161 A 
ATOM     24  C   UNL     1      -0.137   3.714  -0.550  0.00  0.00    +0.195 A 
ATOM     25  C   UNL     1       1.072   3.041  -0.578  0.00  0.00    +0.182 A 
ATOM     26  F   UNL     1       2.145   3.602  -1.177  0.00  0.00    -0.200 F 
ATOM     27  F   UNL     1      -0.245   4.933  -1.123  0.00  0.00    -0.199 F 
ATOM     28  F   UNL     1      -2.417   3.795   0.092  0.00  0.00    -0.202 F 
ENDBRANCH  18  20
ENDBRANCH  15  16
ENDBRANCH  13  15
ENDBRANCH   1  13
BRANCH   4  29
ATOM     29  C   UNL     1       8.004  -5.544  -0.696  0.00  0.00    -0.001 C 
BRANCH  29  35
ATOM     30  C   UNL     1       8.712  -5.581   1.619  0.00  0.00    -0.078 C 
ATOM     31  C   UNL     1       8.673  -6.404   2.908  0.00  0.00    -0.019 C 
ATOM     32  C   UNL     1       9.443  -7.710   2.698  0.00  0.00    -0.004 C 
ATOM     33  C   UNL     1       8.827  -8.473   1.522  0.00  0.00    -0.019 C 
ATOM     34  C   UNL     1       8.861  -7.590   0.273  0.00  0.00    -0.078 C 
ATOM     35  N   UNL     1       8.082  -6.361   0.532  0.00  0.00    +0.384 N 
ATOM     36  H   UNL     1       7.131  -6.624   0.819  0.00  0.00    -0.081 HD
ENDBRANCH  29  35
ENDBRANCH   4  29
TORSDOF 7
