REMARK  Name = ZINC39431104
REMARK  9 active torsions:
REMARK  status: ('A' for Active; 'I' for Inactive)
REMARK    1  A    between atoms: C_1  and  C_2
REMARK    2  A    between atoms: C_2  and  C_4
REMARK    3  A    between atoms: C_2  and  S_16
REMARK    4  A    between atoms: S_16  and  C_17
REMARK    5  A    between atoms: C_21  and  C_28
REMARK    6  A    between atoms: N_23  and  C_24
REMARK    7  A    between atoms: C_24  and  C_25
REMARK    8  A    between atoms: C_25  and  C_26
REMARK    9  A    between atoms: C_25  and  C_27
REMARK                            x       y       z     vdW  Elec       q    Type
REMARK                         _______ _______ _______ _____ _____    ______ ____
ROOT
ATOM      1  C   UNL     1      -2.163   0.184  -1.732  0.00  0.00    +0.257 C 
ATOM      2  N   UNL     1      -1.571   1.492  -2.041  0.00  0.00    -0.184 NA
ATOM      3  N   UNL     1      -1.122   1.518  -3.192  0.00  0.00    -0.289 N 
ATOM      4  C   UNL     1      -1.329   0.233  -3.872  0.00  0.00    +0.204 C 
ATOM      5  N   UNL     1      -1.644  -0.728  -2.781  0.00  0.00    -0.246 NA
ATOM      6  H   UNL     1      -0.690   2.287  -3.594  0.00  0.00    +0.184 HD
ENDROOT
BRANCH   4   7
ATOM      7  C   UNL     1      -2.483   0.329  -4.836  0.00  0.00    +0.026 A 
ATOM      8  C   UNL     1      -3.334  -0.747  -5.006  0.00  0.00    +0.010 A 
ATOM      9  C   UNL     1      -4.392  -0.659  -5.890  0.00  0.00    +0.001 A 
ATOM     10  C   UNL     1      -4.601   0.505  -6.606  0.00  0.00    +0.003 A 
ATOM     11  C   UNL     1      -3.752   1.582  -6.438  0.00  0.00    +0.039 A 
ATOM     12  C   UNL     1      -2.695   1.497  -5.548  0.00  0.00    +0.130 A 
ATOM     13  F   UNL     1      -1.867   2.551  -5.380  0.00  0.00    -0.205 F 
ENDBRANCH   4   7
BRANCH   1  14
ATOM     14  S   UNL     1      -1.634  -0.376  -0.089  0.00  0.00    -0.106 S 
BRANCH  14  16
ATOM     15  C   UNL     1      -4.130   0.131   0.908  0.00  0.00    +0.027 C 
ATOM     16  C   UNL     1      -2.673   0.574   1.054  0.00  0.00    +0.112 C 
BRANCH  16  17
ATOM     17  C   UNL     1      -2.215   0.331   2.469  0.00  0.00    +0.123 A 
ATOM     18  N   UNL     1      -2.950   0.856   3.484  0.00  0.00    -0.309 N 
ATOM     19  H   UNL     1      -3.747   1.371   3.284  0.00  0.00    +0.170 HD
ATOM     20  C   UNL     1      -2.581   0.666   4.772  0.00  0.00    +0.259 A 
ATOM     21  O   UNL     1      -3.231   1.130   5.691  0.00  0.00    -0.267 OA
ATOM     22  C   UNL     1      -1.364  -0.122   5.019  0.00  0.00    +0.065 A 
ATOM     23  C   UNL     1      -0.898  -0.375   6.307  0.00  0.00    +0.015 A 
ATOM     24  C   UNL     1       0.248  -1.120   6.480  0.00  0.00    +0.001 A 
ATOM     25  C   UNL     1       0.939  -1.618   5.383  0.00  0.00    +0.002 A 
ATOM     26  C   UNL     1       0.495  -1.379   4.102  0.00  0.00    +0.028 A 
ATOM     27  C   UNL     1      -0.664  -0.627   3.901  0.00  0.00    +0.078 A 
ATOM     28  N   UNL     1      -1.140  -0.373   2.656  0.00  0.00    -0.233 NA
ENDBRANCH  16  17
ENDBRANCH  14  16
ENDBRANCH   1  14
BRANCH   5  29
ATOM     29  C   UNL     1      -0.432  -1.420  -2.324  0.00  0.00    +0.092 C 
BRANCH  29  30
ATOM     30  C   UNL     1       0.008  -2.432  -3.384  0.00  0.00    -0.003 C 
ATOM     31  C   UNL     1       1.348  -3.048  -2.977  0.00  0.00    +0.008 C 
ATOM     32  C   UNL     1      -1.045  -3.536  -3.504  0.00  0.00    +0.008 C 
ENDBRANCH  29  30
ENDBRANCH   5  29
TORSDOF 6
