REMARK  Name = ZINC31729079
REMARK  15 active torsions:
REMARK  status: ('A' for Active; 'I' for Inactive)
REMARK    1  A    between atoms: C_1  and  C_2
REMARK    2  A    between atoms: C_2  and  C_4
REMARK    3  A    between atoms: C_2  and  O_29
REMARK    4  A    between atoms: N_6  and  C_7
REMARK    5  A    between atoms: C_7  and  C_8
REMARK    6  A    between atoms: C_8  and  N_9
REMARK    7  A    between atoms: C_13  and  C_14
REMARK    8  A    between atoms: C_16  and  O_24
REMARK    9  A    between atoms: C_17  and  O_22
REMARK   10  A    between atoms: C_18  and  O_20
REMARK   11  A    between atoms: O_20  and  C_21
REMARK   12  A    between atoms: O_22  and  C_23
REMARK   13  A    between atoms: O_24  and  C_25
REMARK   14  A    between atoms: O_29  and  C_30
REMARK   15  A    between atoms: C_30  and  C_31
REMARK                            x       y       z     vdW  Elec       q    Type
REMARK                         _______ _______ _______ _____ _____    ______ ____
ROOT
ATOM      1  N   UNL     1      -0.097   0.141   0.792  0.00  0.00    -0.227 N 
ATOM      2  C   UNL     1      -0.075   1.420   0.456  0.00  0.00    +0.260 C 
ATOM      3  O   UNL     1      -1.099   2.046   0.256  0.00  0.00    -0.269 OA
ATOM      4  C   UNL     1       1.255   2.048   0.331  0.00  0.00    +0.080 C 
ATOM      5  C   UNL     1       1.581   3.324   0.004  0.00  0.00    +0.028 C 
ATOM      6  S   UNL     1       2.317   0.666   0.727  0.00  0.00    -0.026 S 
ATOM      7  C   UNL     1       1.040  -0.550   1.008  0.00  0.00    +0.286 C 
ATOM      8  O   UNL     1       1.166  -1.720   1.320  0.00  0.00    -0.262 OA
ENDROOT
BRANCH   5   9
ATOM      9  C   UNL     1       2.976   3.774   0.104  0.00  0.00    -0.017 A 
ATOM     10  C   UNL     1       3.937   2.953   0.707  0.00  0.00    +0.057 A 
ATOM     11  C   UNL     1       5.249   3.377   0.794  0.00  0.00    +0.166 A 
ATOM     12  C   UNL     1       5.614   4.624   0.294  0.00  0.00    +0.204 A 
ATOM     13  C   UNL     1       4.660   5.446  -0.302  0.00  0.00    +0.166 A 
ATOM     14  C   UNL     1       3.347   5.027  -0.398  0.00  0.00    +0.057 A 
BRANCH  13  15
ATOM     15  O   UNL     1       5.022   6.663  -0.789  0.00  0.00    -0.491 OA
ATOM     16  C   UNL     1       3.993   7.455  -1.386  0.00  0.00    +0.277 C 
ENDBRANCH  13  15
BRANCH  12  17
ATOM     17  O   UNL     1       6.905   5.040   0.386  0.00  0.00    -0.488 OA
ATOM     18  C   UNL     1       7.270   5.767   1.561  0.00  0.00    +0.277 C 
ENDBRANCH  12  17
BRANCH  11  19
ATOM     19  O   UNL     1       6.184   2.578   1.375  0.00  0.00    -0.491 OA
ATOM     20  C   UNL     1       5.740   1.312   1.867  0.00  0.00    +0.277 C 
ENDBRANCH  11  19
ENDBRANCH   5   9
BRANCH   1  21
ATOM     21  C   UNL     1      -1.387  -0.540   0.933  0.00  0.00    +0.136 C 
BRANCH  21  22
ATOM     22  C   UNL     1      -1.794  -1.144  -0.412  0.00  0.00    +0.123 C 
BRANCH  22  25
ATOM     23  C   UNL     1      -3.643  -2.435  -1.335  0.00  0.00    +0.242 C 
ATOM     24  O   UNL     1      -3.080  -2.421  -2.408  0.00  0.00    -0.273 OA
ATOM     25  N   UNL     1      -3.084  -1.825  -0.271  0.00  0.00    -0.312 N 
ATOM     26  H   UNL     1      -3.595  -1.838   0.703  0.00  0.00    +0.149 HD
BRANCH  23  28
ATOM     27  C   UNL     1      -4.817  -4.326  -0.241  0.00  0.00    +0.048 C 
ATOM     28  C   UNL     1      -4.970  -3.136  -1.190  0.00  0.00    +0.201 C 
BRANCH  28  29
ATOM     29  O   UNL     1      -5.406  -3.599  -2.469  0.00  0.00    -0.359 OA
BRANCH  29  30
ATOM     30  C   UNL     1      -6.827  -3.649  -2.615  0.00  0.00    +0.274 C 
BRANCH  30  31
ATOM     31  C   UNL     1      -7.178  -4.156  -4.016  0.00  0.00    +0.413 C 
ATOM     32  F   UNL     1      -6.645  -5.438  -4.195  0.00  0.00    -0.168 F 
ATOM     33  F   UNL     1      -8.568  -4.206  -4.159  0.00  0.00    -0.168 F 
ATOM     34  F   UNL     1      -6.641  -3.290  -4.974  0.00  0.00    -0.168 F 
ENDBRANCH  30  31
ENDBRANCH  29  30
ENDBRANCH  28  29
ENDBRANCH  23  28
ENDBRANCH  22  25
ENDBRANCH  21  22
ENDBRANCH   1  21
TORSDOF 11
