REMARK  Name = ZINC59170658
REMARK  9 active torsions:
REMARK  status: ('A' for Active; 'I' for Inactive)
REMARK    1  A    between atoms: C_1  and  C_2
REMARK    2  A    between atoms: C_2  and  C_3
REMARK    3  A    between atoms: C_8  and  N_9
REMARK    4  A    between atoms: C_10  and  C_12
REMARK    5  A    between atoms: C_16  and  N_34
REMARK    6  A    between atoms: N_22  and  N_23
REMARK    7  A    between atoms: N_23  and  S_24
REMARK    8  A    between atoms: S_24  and  C_27
REMARK    9  A    between atoms: C_30  and  C_33
REMARK                            x       y       z     vdW  Elec       q    Type
REMARK                         _______ _______ _______ _____ _____    ______ ____
ROOT
ATOM      1  C   UNL     1      -1.559  -0.057  -4.821  0.00  0.00    +0.099 A 
ATOM      2  C   UNL     1      -2.264   0.089  -6.034  0.00  0.00    +0.030 A 
ATOM      3  C   UNL     1      -1.636   0.777  -7.081  0.00  0.00    +0.020 A 
ATOM      4  C   UNL     1      -2.265   0.969  -8.326  0.00  0.00    +0.044 A 
ATOM      5  C   UNL     1      -1.610   1.646  -9.309  0.00  0.00    +0.127 A 
ATOM      6  C   UNL     1      -0.327   2.152  -9.110  0.00  0.00    +0.036 A 
ATOM      7  C   UNL     1       0.333   1.993  -7.914  0.00  0.00    +0.049 A 
ATOM      8  C   UNL     1      -0.287   1.310  -6.870  0.00  0.00    +0.138 A 
ATOM      9  O   UNL     1       0.322   1.133  -5.689  0.00  0.00    -0.437 OA
ATOM     10  C   UNL     1      -0.280   0.481  -4.688  0.00  0.00    +0.225 A 
ATOM     11  N   UNL     1       0.381   0.333  -3.503  0.00  0.00    -0.260 N 
ATOM     12  H   UNL     1      -0.011  -0.200  -2.793  0.00  0.00    +0.189 HD
ENDROOT
BRANCH   1  14
ATOM     13  N   UNL     1      -2.340  -2.113  -3.740  0.00  0.00    -0.281 N 
ATOM     14  C   UNL     1      -2.182  -0.776  -3.685  0.00  0.00    +0.253 C 
ATOM     15  O   UNL     1      -2.550  -0.160  -2.705  0.00  0.00    -0.270 OA
ATOM     16  H   UNL     1      -2.058  -2.603  -4.529  0.00  0.00    +0.155 HD
BRANCH  13  22
ATOM     17  C   UNL     1      -2.702  -4.160  -2.511  0.00  0.00    -0.026 A 
ATOM     18  C   UNL     1      -3.261  -4.829  -1.440  0.00  0.00    +0.005 A 
ATOM     19  C   UNL     1      -4.030  -4.142  -0.519  0.00  0.00    +0.000 A 
ATOM     20  C   UNL     1      -4.242  -2.783  -0.667  0.00  0.00    +0.002 A 
ATOM     21  C   UNL     1      -3.687  -2.108  -1.736  0.00  0.00    +0.023 A 
ATOM     22  C   UNL     1      -2.908  -2.795  -2.660  0.00  0.00    +0.037 A 
BRANCH  17  24
ATOM     23  C   UNL     1      -0.383  -4.755  -3.159  0.00  0.00    +0.009 C 
ATOM     24  C   UNL     1      -1.863  -4.910  -3.515  0.00  0.00    +0.033 C 
ENDBRANCH  17  24
ENDBRANCH  13  22
ENDBRANCH   1  14
BRANCH   5  25
ATOM     25  N   UNL     1      -2.274   1.846 -10.617  0.00  0.00    +0.056 N 
ATOM     26  O   UNL     1      -3.486   1.373 -10.819  0.00  0.00    -0.126 OA
ATOM     27  O   UNL     1      -1.653   2.499 -11.577  0.00  0.00    -0.126 OA
ENDBRANCH   5  25
BRANCH  11  28
ATOM     28  N   UNL     1       1.525   0.901  -3.327  0.00  0.00    -0.157 N 
ATOM     29  H   UNL     1       1.914   1.438  -4.035  0.00  0.00    +0.194 HD
BRANCH  28  30
ATOM     30  S   UNL     1       2.330   0.715  -1.891  0.00  0.00    +0.085 S 
ATOM     31  O   UNL     1       3.612   1.302  -2.066  0.00  0.00    -0.149 OA
ATOM     32  O   UNL     1       1.435   1.130  -0.868  0.00  0.00    -0.149 OA
BRANCH  30  33
ATOM     33  C   UNL     1       2.593  -1.012  -1.661  0.00  0.00    +0.110 A 
ATOM     34  C   UNL     1       1.631  -1.780  -1.032  0.00  0.00    +0.029 A 
ATOM     35  C   UNL     1       1.837  -3.135  -0.851  0.00  0.00    +0.005 A 
ATOM     36  C   UNL     1       3.005  -3.722  -1.301  0.00  0.00    -0.050 A 
ATOM     37  C   UNL     1       3.966  -2.954  -1.932  0.00  0.00    +0.005 A 
ATOM     38  C   UNL     1       3.758  -1.600  -2.116  0.00  0.00    +0.029 A 
ATOM     39  C   UNL     1       3.231  -5.199  -1.104  0.00  0.00    +0.044 C 
ENDBRANCH  30  33
ENDBRANCH  28  30
ENDBRANCH  11  28
TORSDOF 7
