REMARK  Name = ZINC36044175
REMARK  14 active torsions:
REMARK  status: ('A' for Active; 'I' for Inactive)
REMARK    1  A    between atoms: C_1  and  O_2
REMARK    2  A    between atoms: O_2  and  C_3
REMARK    3  A    between atoms: C_3  and  C_4
REMARK    4  A    between atoms: C_4  and  C_5
REMARK    5  A    between atoms: C_5  and  N_6
REMARK    6  A    between atoms: C_7  and  C_9
REMARK    7  A    between atoms: C_14  and  C_16
REMARK    8  A    between atoms: C_18  and  O_26
REMARK    9  A    between atoms: C_19  and  O_24
REMARK   10  A    between atoms: C_20  and  O_22
REMARK   11  A    between atoms: O_22  and  C_23
REMARK   12  A    between atoms: O_24  and  C_25
REMARK   13  A    between atoms: O_26  and  C_27
REMARK   14  A    between atoms: C_28  and  C_30
REMARK                            x       y       z     vdW  Elec       q    Type
REMARK                         _______ _______ _______ _____ _____    ______ ____
ROOT
ATOM      1  C   UNL     1       1.775  -6.466  -3.013  0.00  0.00    +0.101 C 
ATOM      2  C   UNL     1       0.315  -6.966  -3.060  0.00  0.00    +0.121 C 
ATOM      3  N   UNL     1       0.069  -7.269  -4.489  0.00  0.00    -0.296 N 
ATOM      4  C   UNL     1       1.331  -7.890  -4.954  0.00  0.00    +0.117 C 
ATOM      5  C   UNL     1       2.448  -7.075  -4.261  0.00  0.00    +0.050 C 
ATOM      6  C   UNL     1      -1.049  -7.033  -5.203  0.00  0.00    +0.247 C 
ATOM      7  O   UNL     1      -2.033  -6.571  -4.658  0.00  0.00    -0.270 OA
ENDROOT
BRANCH   6   8
ATOM      8  C   UNL     1      -1.079  -7.335  -6.648  0.00  0.00    +0.041 A 
ATOM      9  C   UNL     1      -0.371  -8.430  -7.149  0.00  0.00    +0.017 A 
ATOM     10  C   UNL     1      -0.401  -8.710  -8.498  0.00  0.00    +0.050 A 
ATOM     11  C   UNL     1      -1.133  -7.908  -9.363  0.00  0.00    +0.166 A 
ATOM     12  C   UNL     1      -1.841  -6.812  -8.868  0.00  0.00    +0.167 A 
ATOM     13  C   UNL     1      -1.820  -6.529  -7.516  0.00  0.00    +0.062 A 
ATOM     14  O   UNL     1      -2.471  -6.194  -9.911  0.00  0.00    -0.453 OA
ATOM     15  C   UNL     1      -1.812  -6.677 -11.097  0.00  0.00    +0.466 C 
ATOM     16  O   UNL     1      -1.320  -7.974 -10.712  0.00  0.00    -0.453 OA
ENDBRANCH   6   8
BRANCH   5  17
ATOM     17  C   UNL     1       3.583  -7.979  -3.855  0.00  0.00    -0.035 A 
ATOM     18  C   UNL     1       3.337  -9.081  -3.057  0.00  0.00    +0.053 A 
ATOM     19  C   UNL     1       4.379  -9.914  -2.682  0.00  0.00    +0.165 A 
ATOM     20  C   UNL     1       5.673  -9.641  -3.109  0.00  0.00    +0.204 A 
ATOM     21  C   UNL     1       5.917  -8.533  -3.911  0.00  0.00    +0.165 A 
ATOM     22  C   UNL     1       4.868  -7.707  -4.287  0.00  0.00    +0.053 A 
BRANCH  21  23
ATOM     23  O   UNL     1       7.182  -8.262  -4.332  0.00  0.00    -0.491 OA
ATOM     24  C   UNL     1       7.358  -7.106  -5.154  0.00  0.00    +0.277 C 
ENDBRANCH  21  23
BRANCH  20  25
ATOM     25  O   UNL     1       6.699 -10.457  -2.742  0.00  0.00    -0.488 OA
ATOM     26  C   UNL     1       6.995 -11.556  -3.606  0.00  0.00    +0.277 C 
ENDBRANCH  20  25
BRANCH  19  27
ATOM     27  O   UNL     1       4.136 -10.997  -1.896  0.00  0.00    -0.491 OA
ATOM     28  C   UNL     1       2.782 -11.216  -1.494  0.00  0.00    +0.277 C 
ENDBRANCH  19  27
ENDBRANCH   5  17
BRANCH   1  30
ATOM     29  N   UNL     1       1.254  -4.228  -2.097  0.00  0.00    -0.315 N 
ATOM     30  C   UNL     1       1.816  -4.961  -3.079  0.00  0.00    +0.218 C 
ATOM     31  O   UNL     1       2.355  -4.409  -4.015  0.00  0.00    -0.275 OA
ATOM     32  H   UNL     1       0.823  -4.669  -1.348  0.00  0.00    +0.149 HD
BRANCH  29  33
ATOM     33  C   UNL     1       1.294  -2.765  -2.161  0.00  0.00    +0.106 C 
BRANCH  33  34
ATOM     34  C   UNL     1       0.591  -2.182  -0.934  0.00  0.00    +0.047 C 
BRANCH  34  35
ATOM     35  C   UNL     1       0.632  -0.654  -1.000  0.00  0.00    +0.161 C 
BRANCH  35  37
ATOM     36  C   UNL     1      -0.042   1.319   0.182  0.00  0.00    +0.193 C 
ATOM     37  O   UNL     1      -0.025  -0.109   0.146  0.00  0.00    -0.383 OA
ENDBRANCH  35  37
ENDBRANCH  34  35
ENDBRANCH  33  34
ENDBRANCH  29  33
ENDBRANCH   1  30
TORSDOF 10
