REMARK  Name = ZINC37447589
REMARK  6 active torsions:
REMARK  status: ('A' for Active; 'I' for Inactive)
REMARK    1  A    between atoms: C_1  and  C_2
REMARK    2  A    between atoms: C_2  and  C_3
REMARK    3  A    between atoms: C_6  and  N_9
REMARK    4  A    between atoms: C_10  and  C_12
REMARK    5  A    between atoms: N_28  and  C_31
REMARK    6  A    between atoms: C_31  and  C_32
REMARK                            x       y       z     vdW  Elec       q    Type
REMARK                         _______ _______ _______ _____ _____    ______ ____
ROOT
ATOM      1  C   UNL     1       4.880  -2.527  -5.775  0.00  0.00    +0.111 C 
ATOM      2  C   UNL     1       4.396  -3.932  -6.232  0.00  0.00    +0.035 C 
ATOM      3  C   UNL     1       5.173  -4.849  -5.260  0.00  0.00    +0.069 C 
ATOM      4  C   UNL     1       5.207  -6.285  -5.809  0.00  0.00    +0.089 C 
ATOM      5  S   UNL     1       7.010  -6.530  -6.110  0.00  0.00    -0.144 S 
ATOM      6  C   UNL     1       7.495  -4.748  -6.083  0.00  0.00    +0.155 C 
ATOM      7  N   UNL     1       6.500  -4.223  -5.117  0.00  0.00    -0.272 NA
ATOM      8  C   UNL     1       6.341  -2.776  -5.374  0.00  0.00    +0.138 C 
ATOM      9  C   UNL     1       7.282  -2.305  -6.449  0.00  0.00    +0.004 A 
ATOM     10  C   UNL     1       7.458  -2.651  -7.770  0.00  0.00    +0.008 A 
ATOM     11  C   UNL     1       8.431  -2.024  -8.527  0.00  0.00    +0.000 A 
ATOM     12  C   UNL     1       9.227  -1.049  -7.953  0.00  0.00    +0.002 A 
ATOM     13  C   UNL     1       9.055  -0.699  -6.630  0.00  0.00    +0.024 A 
ATOM     14  C   UNL     1       8.077  -1.327  -5.861  0.00  0.00    +0.042 A 
ATOM     15  N   UNL     1       7.717  -1.152  -4.523  0.00  0.00    -0.270 N 
ATOM     16  C   UNL     1       6.708  -1.965  -4.158  0.00  0.00    +0.246 C 
ATOM     17  O   UNL     1       6.192  -2.030  -3.062  0.00  0.00    -0.273 OA
ENDROOT
BRANCH   1  19
ATOM     18  N   UNL     1       3.898  -0.724  -4.396  0.00  0.00    -0.285 N 
ATOM     19  C   UNL     1       4.077  -2.045  -4.594  0.00  0.00    +0.223 C 
ATOM     20  O   UNL     1       3.592  -2.845  -3.823  0.00  0.00    -0.275 OA
ATOM     21  H   UNL     1       4.228  -0.086  -5.047  0.00  0.00    +0.155 HD
BRANCH  18  25
ATOM     22  C   UNL     1       1.926   0.619  -0.980  0.00  0.00    -0.048 A 
ATOM     23  C   UNL     1       1.534  -0.562  -1.583  0.00  0.00    +0.005 A 
ATOM     24  C   UNL     1       2.186  -1.010  -2.716  0.00  0.00    +0.023 A 
ATOM     25  C   UNL     1       3.235  -0.273  -3.248  0.00  0.00    +0.033 A 
ATOM     26  C   UNL     1       3.626   0.913  -2.640  0.00  0.00    +0.023 A 
ATOM     27  C   UNL     1       2.968   1.358  -1.511  0.00  0.00    +0.005 A 
BRANCH  22  29
ATOM     28  C   UNL     1       0.037   1.994  -0.151  0.00  0.00    +0.009 C 
ATOM     29  C   UNL     1       1.213   1.105   0.256  0.00  0.00    +0.032 C 
ENDBRANCH  22  29
ENDBRANCH  18  25
ENDBRANCH   1  19
BRANCH  15  30
ATOM     30  C   UNL     1       8.362  -0.194  -3.621  0.00  0.00    +0.110 C 
ATOM     31  C   UNL     1       7.632   1.148  -3.696  0.00  0.00    +0.025 C 
ENDBRANCH  15  30
TORSDOF 4
