REMARK  Name = ZINC06376757
REMARK  6 active torsions:
REMARK  status: ('A' for Active; 'I' for Inactive)
REMARK    1  A    between atoms: C_4  and  C_7
REMARK    2  A    between atoms: C_7  and  O_9
REMARK    3  A    between atoms: O_9  and  C_10
REMARK    4  A    between atoms: C_10  and  C_11
REMARK    5  A    between atoms: N_13  and  C_14
REMARK    6  A    between atoms: C_15  and  C_23
REMARK                            x       y       z     vdW  Elec       q    Type
REMARK                         _______ _______ _______ _____ _____    ______ ____
ROOT
ATOM      1  C   UNL     1       3.811  -3.706   3.893  0.00  0.00    +0.255 C 
ATOM      2  O   UNL     1       3.303  -4.369   3.014  0.00  0.00    -0.272 OA
ATOM      3  N   UNL     1       4.430  -4.316   4.924  0.00  0.00    -0.277 N 
ATOM      4  H   UNL     1       4.836  -3.786   5.628  0.00  0.00    +0.155 HD
ENDROOT
BRANCH   3   5
ATOM      5  C   UNL     1       4.486  -5.700   4.979  0.00  0.00    +0.084 A 
ATOM      6  C   UNL     1       5.069  -6.491   5.956  0.00  0.00    +0.068 A 
ATOM      7  C   UNL     1       4.990  -7.931   5.779  0.00  0.00    -0.023 A 
ATOM      8  C   UNL     1       4.344  -8.315   4.658  0.00  0.00    -0.004 A 
ATOM      9  S   UNL     1       3.855  -6.803   3.881  0.00  0.00    -0.077 S 
ATOM     10  C   UNL     1       4.100  -9.719   4.196  0.00  0.00    +0.043 C 
ATOM     11  C   UNL     1       5.022 -10.655   4.991  0.00  0.00    +0.005 C 
ATOM     12  C   UNL     1       4.916 -10.309   6.479  0.00  0.00    +0.005 C 
ATOM     13  C   UNL     1       5.571  -8.952   6.747  0.00  0.00    +0.037 C 
BRANCH   6  14
ATOM     14  C   UNL     1       5.737  -5.900   7.119  0.00  0.00    +0.244 C 
ATOM     15  O   UNL     1       5.105  -5.670   8.133  0.00  0.00    -0.270 OA
ATOM     16  N   UNL     1       7.053  -5.611   7.066  0.00  0.00    -0.325 N 
ATOM     17  H   UNL     1       7.557  -5.794   6.257  0.00  0.00    +0.145 HD
ATOM     18  H   UNL     1       7.495  -5.220   7.835  0.00  0.00    +0.145 HD
ENDBRANCH   6  14
ENDBRANCH   3   5
BRANCH   1  19
ATOM     19  C   UNL     1       3.751  -2.202   3.833  0.00  0.00    +0.328 C 
BRANCH  19  20
ATOM     20  O   UNL     1       3.049  -1.800   2.656  0.00  0.00    -0.455 OA
BRANCH  20  21
ATOM     21  C   UNL     1       2.906  -0.480   2.452  0.00  0.00    +0.311 C 
ATOM     22  O   UNL     1       3.362   0.306   3.247  0.00  0.00    -0.251 OA
BRANCH  21  26
ATOM     23  C   UNL     1      -0.019   1.526   0.010  0.00  0.00    +0.000 C 
ATOM     24  C   UNL     1       1.417   2.055  -0.000  0.00  0.00    +0.001 C 
ATOM     25  C   UNL     1       2.157   1.548   1.239  0.00  0.00    +0.015 C 
ATOM     26  C   UNL     1       2.178   0.019   1.231  0.00  0.00    +0.098 C 
ATOM     27  C   UNL     1       0.742  -0.511   1.242  0.00  0.00    +0.015 C 
ATOM     28  C   UNL     1       0.002  -0.004   0.002  0.00  0.00    +0.001 C 
ENDBRANCH  21  26
ENDBRANCH  20  21
ENDBRANCH  19  20
ENDBRANCH   1  19
TORSDOF 6
