REMARK  Name = ZINC16459854
REMARK  12 active torsions:
REMARK  status: ('A' for Active; 'I' for Inactive)
REMARK    1  A    between atoms: C_1  and  C_2
REMARK    2  A    between atoms: C_8  and  C_9
REMARK    3  A    between atoms: C_8  and  N_67
REMARK    4  A    between atoms: C_9  and  C_10
REMARK    5  A    between atoms: C_10  and  N_11
REMARK    6  A    between atoms: C_12  and  C_14
REMARK    7  A    between atoms: C_17  and  C_19
REMARK    8  A    between atoms: C_19  and  N_20
REMARK    9  A    between atoms: N_20  and  C_21
REMARK   10  A    between atoms: C_21  and  C_22
REMARK   11  A    between atoms: C_21  and  C_23
REMARK   12  A    between atoms: N_26  and  C_27
REMARK                            x       y       z     vdW  Elec       q    Type
REMARK                         _______ _______ _______ _____ _____    ______ ____
ROOT
ATOM      1  C   UNL     1       5.822   8.728   1.875  0.00  0.00    +0.133 A 
ATOM      2  C   UNL     1       6.790   9.693   1.758  0.00  0.00    +0.080 A 
ATOM      3  S   UNL     1       5.994  10.862   0.753  0.00  0.00    -0.078 S 
ATOM      4  C   UNL     1       4.483  10.033   0.557  0.00  0.00    +0.096 A 
ATOM      5  N   UNL     1       4.665   8.936   1.246  0.00  0.00    -0.238 NA
ENDROOT
BRANCH   1   7
ATOM      6  N   UNL     1       5.086   6.573   2.761  0.00  0.00    -0.310 N 
ATOM      7  C   UNL     1       6.054   7.505   2.662  0.00  0.00    +0.263 C 
ATOM      8  O   UNL     1       7.120   7.337   3.223  0.00  0.00    -0.269 OA
ATOM      9  H   UNL     1       4.236   6.708   2.313  0.00  0.00    +0.149 HD
BRANCH   6  10
ATOM     10  C   UNL     1       5.317   5.357   3.543  0.00  0.00    +0.103 C 
BRANCH  10  11
ATOM     11  C   UNL     1       4.069   4.473   3.493  0.00  0.00    +0.000 C 
BRANCH  11  12
ATOM     12  C   UNL     1       4.311   3.203   4.311  0.00  0.00    -0.077 C 
BRANCH  12  19
ATOM     13  C   UNL     1       3.957   1.186   6.241  0.00  0.00    -0.013 C 
ATOM     14  C   UNL     1       3.383   1.028   4.831  0.00  0.00    -0.072 C 
ATOM     15  C   UNL     1       2.083   0.224   4.898  0.00  0.00    -0.016 C 
ATOM     16  C   UNL     1       1.501   0.086   3.488  0.00  0.00    -0.003 C 
ATOM     17  C   UNL     1       1.274   1.481   2.899  0.00  0.00    -0.019 C 
ATOM     18  C   UNL     1       2.598   2.248   2.890  0.00  0.00    -0.078 C 
ATOM     19  N   UNL     1       3.092   2.368   4.279  0.00  0.00    +0.381 N 
ATOM     20  H   UNL     1       2.367   2.814   4.853  0.00  0.00    -0.081 HD
ENDBRANCH  12  19
ENDBRANCH  11  12
ENDBRANCH  10  11
ENDBRANCH   6  10
ENDBRANCH   1   7
BRANCH   4  21
ATOM     21  C   UNL     1       3.266  10.467  -0.218  0.00  0.00    +0.172 C 
BRANCH  21  22
ATOM     22  N   UNL     1       2.380  11.239   0.656  0.00  0.00    -0.277 N 
ATOM     23  C   UNL     1       1.423  10.612   1.370  0.00  0.00    +0.307 C 
ATOM     24  O   UNL     1       0.609  11.261   1.998  0.00  0.00    -0.252 OA
ATOM     25  N   UNL     1       1.370   9.266   1.387  0.00  0.00    -0.269 N 
ATOM     26  H   UNL     1       2.087   8.746   0.992  0.00  0.00    +0.156 HD
BRANCH  25  27
ATOM     27  C   UNL     1       0.278   8.616   1.977  0.00  0.00    +0.035 A 
ATOM     28  C   UNL     1      -0.339   9.167   3.092  0.00  0.00    +0.025 A 
ATOM     29  C   UNL     1      -1.419   8.527   3.668  0.00  0.00    +0.022 A 
ATOM     30  C   UNL     1      -1.878   7.333   3.142  0.00  0.00    +0.041 A 
ATOM     31  C   UNL     1      -1.261   6.779   2.034  0.00  0.00    +0.022 A 
ATOM     32  C   UNL     1      -0.185   7.418   1.451  0.00  0.00    +0.025 A 
ATOM     33 CL   UNL     1      -3.232   6.528   3.873  0.00  0.00    -0.084 Cl
ENDBRANCH  25  27
BRANCH  22  34
ATOM     34  C   UNL     1       2.532  12.693   0.754  0.00  0.00    +0.072 C 
ATOM     35  C   UNL     1       3.901  13.022   1.354  0.00  0.00    +0.028 C 
ATOM     36  C   UNL     1       2.424  13.312  -0.641  0.00  0.00    +0.028 C 
ENDBRANCH  22  34
ENDBRANCH  21  22
ENDBRANCH   4  21
TORSDOF 9
