REMARK  Name = ZINC35780887
REMARK  16 active torsions:
REMARK  status: ('A' for Active; 'I' for Inactive)
REMARK    1  A    between atoms: C_1  and  C_2
REMARK    2  A    between atoms: N_8  and  C_9
REMARK    3  A    between atoms: C_10  and  C_20
REMARK    4  A    between atoms: C_11  and  C_14
REMARK    5  A    between atoms: C_20  and  N_21
REMARK    6  A    between atoms: N_21  and  C_22
REMARK    7  A    between atoms: N_21  and  C_29
REMARK    8  A    between atoms: C_22  and  C_23
REMARK    9  A    between atoms: C_29  and  C_30
REMARK   10  A    between atoms: C_30  and  C_32
REMARK   11  A    between atoms: C_30  and  O_38
REMARK   12  A    between atoms: C_32  and  O_33
REMARK   13  A    between atoms: O_33  and  C_34
REMARK   14  A    between atoms: C_34  and  C_35
REMARK   15  A    between atoms: C_35  and  C_36
REMARK   16  A    between atoms: C_35  and  C_37
REMARK                            x       y       z     vdW  Elec       q    Type
REMARK                         _______ _______ _______ _____ _____    ______ ____
ROOT
ATOM      1  C   UNL     1       3.455  -1.220   3.784  0.00  0.00    -0.035 C 
ENDROOT
BRANCH   1   3
ATOM      2  C   UNL     1       4.448  -0.133   5.870  0.00  0.00    +0.222 A 
ATOM      3  C   UNL     1       3.574  -0.978   5.266  0.00  0.00    +0.025 A 
ATOM      4  C   UNL     1       2.797  -1.591   6.272  0.00  0.00    +0.117 A 
ATOM      5  N   UNL     1       3.197  -1.124   7.432  0.00  0.00    -0.076 NA
ATOM      6  O   UNL     1       4.245  -0.203   7.196  0.00  0.00    -0.339 OA
BRANCH   2  13
ATOM      7  C   UNL     1       6.975  -1.091   5.881  0.00  0.00    +0.028 C 
ATOM      8  C   UNL     1       6.777   0.206   5.095  0.00  0.00    +0.073 C 
ATOM      9  C   UNL     1       7.707   1.290   5.650  0.00  0.00    +0.022 C 
ATOM     10  C   UNL     1       7.407   2.619   4.955  0.00  0.00    +0.003 C 
ATOM     11  C   UNL     1       5.961   3.031   5.240  0.00  0.00    +0.019 C 
ATOM     12  C   UNL     1       5.011   1.968   4.680  0.00  0.00    +0.108 C 
ATOM     13  N   UNL     1       5.386   0.658   5.231  0.00  0.00    -0.296 N 
ENDBRANCH   2  13
BRANCH   4  14
ATOM     14  C   UNL     1       1.718  -2.587   6.056  0.00  0.00    +0.004 A 
ATOM     15  C   UNL     1       0.777  -2.391   5.047  0.00  0.00    +0.010 A 
ATOM     16  C   UNL     1      -0.224  -3.320   4.850  0.00  0.00    +0.001 A 
ATOM     17  C   UNL     1      -0.294  -4.445   5.652  0.00  0.00    +0.000 A 
ATOM     18  C   UNL     1       0.638  -4.645   6.655  0.00  0.00    +0.001 A 
ATOM     19  C   UNL     1       1.646  -3.724   6.857  0.00  0.00    +0.010 A 
ENDBRANCH   4  14
ENDBRANCH   1   3
BRANCH   1  20
ATOM     20  N   UNL     1       4.456  -2.212   3.368  0.00  0.00    +0.386 N 
ATOM     21  H   UNL     1       5.373  -1.907   3.658  0.00  0.00    -0.081 HD
BRANCH  20  22
ATOM     22  C   UNL     1       4.428  -2.352   1.905  0.00  0.00    -0.046 C 
BRANCH  22  23
ATOM     23  C   UNL     1       4.770  -1.009   1.258  0.00  0.00    +0.102 C 
ATOM     24  C   UNL     1       4.807  -1.162  -0.278  0.00  0.00    +0.032 C 
ATOM     25  C   UNL     1       6.016  -0.271  -0.670  0.00  0.00    +0.030 C 
ATOM     26  C   UNL     1       6.949  -0.488   0.549  0.00  0.00    +0.160 C 
ATOM     27  O   UNL     1       6.069  -0.581   1.683  0.00  0.00    -0.378 OA
ENDBRANCH  22  23
ENDBRANCH  20  22
BRANCH  20  28
ATOM     28  C   UNL     1       4.151  -3.507   3.990  0.00  0.00    -0.044 C 
BRANCH  28  29
ATOM     29  C   UNL     1       5.298  -4.483   3.724  0.00  0.00    +0.124 C 
BRANCH  29  30
ATOM     30  O   UNL     1       5.333  -4.811   2.334  0.00  0.00    -0.391 OA
ATOM     31  H   UNL     1       4.523  -5.226   2.007  0.00  0.00    +0.210 HD
ENDBRANCH  29  30
BRANCH  29  32
ATOM     32  C   UNL     1       5.083  -5.758   4.543  0.00  0.00    +0.189 C 
BRANCH  32  33
ATOM     33  O   UNL     1       6.210  -6.621   4.386  0.00  0.00    -0.377 OA
BRANCH  33  34
ATOM     34  C   UNL     1       6.110  -7.847   5.114  0.00  0.00    +0.163 C 
BRANCH  34  35
ATOM     35  C   UNL     1       7.366  -8.687   4.872  0.00  0.00    +0.009 C 
ATOM     36  C   UNL     1       7.316  -9.941   5.747  0.00  0.00    +0.009 C 
ATOM     37  C   UNL     1       7.431  -9.096   3.399  0.00  0.00    +0.009 C 
ENDBRANCH  34  35
ENDBRANCH  33  34
ENDBRANCH  32  33
ENDBRANCH  29  32
ENDBRANCH  28  29
ENDBRANCH  20  28
ENDBRANCH   1  20
TORSDOF 13
