REMARK  Name = ZINC39672889
REMARK  6 active torsions:
REMARK  status: ('A' for Active; 'I' for Inactive)
REMARK    1  A    between atoms: C_1  and  C_2
REMARK    2  A    between atoms: C_5  and  C_10
REMARK    3  A    between atoms: C_14  and  C_23
REMARK    4  A    between atoms: N_25  and  C_26
REMARK    5  A    between atoms: C_26  and  C_27
REMARK    6  A    between atoms: C_27  and  N_33
REMARK                            x       y       z     vdW  Elec       q    Type
REMARK                         _______ _______ _______ _____ _____    ______ ____
ROOT
ATOM      1  C   UNL     1       1.634  -5.875   0.771  0.00  0.00    +0.250 C 
ATOM      2  O   UNL     1       1.833  -6.883   1.420  0.00  0.00    -0.270 OA
ATOM      3  N   UNL     1       1.121  -5.964  -0.473  0.00  0.00    -0.296 N 
ATOM      4  C   UNL     1       0.855  -4.862  -1.426  0.00  0.00    +0.121 C 
ATOM      5  C   UNL     1       1.263  -5.430  -2.804  0.00  0.00    +0.100 C 
ATOM      6  C   UNL     1       1.156  -6.956  -2.646  0.00  0.00    -0.004 C 
ATOM      7  C   UNL     1       0.703  -7.188  -1.198  0.00  0.00    +0.115 C 
ATOM      8  C   UNL     1       0.124  -7.516  -3.620  0.00  0.00    -0.010 C 
ATOM      9  C   UNL     1       0.077  -9.041  -3.485  0.00  0.00    -0.082 C 
ATOM     10  N   UNL     1       1.403  -9.601  -3.772  0.00  0.00    +0.379 N 
ATOM     11  C   UNL     1       2.371  -9.129  -2.774  0.00  0.00    -0.082 C 
ATOM     12  C   UNL     1       2.515  -7.608  -2.879  0.00  0.00    -0.010 C 
ATOM     13  H   UNL     1       1.355 -10.608  -3.742  0.00  0.00    -0.086 HD
ATOM     14  H   UNL     1       1.699  -9.308  -4.691  0.00  0.00    -0.086 HD
ENDROOT
BRANCH   1  19
ATOM     15  C   UNL     1       2.873  -0.716   3.004  0.00  0.00    +0.047 C 
ATOM     16  C   UNL     1       2.550  -2.068   2.421  0.00  0.00    -0.012 A 
ATOM     17  C   UNL     1       1.618  -2.174   1.403  0.00  0.00    +0.007 A 
ATOM     18  C   UNL     1       1.316  -3.406   0.864  0.00  0.00    +0.016 A 
ATOM     19  C   UNL     1       1.953  -4.552   1.345  0.00  0.00    +0.075 A 
ATOM     20  C   UNL     1       2.895  -4.441   2.372  0.00  0.00    +0.171 A 
ATOM     21  C   UNL     1       3.192  -3.196   2.901  0.00  0.00    +0.162 A 
ATOM     22  F   UNL     1       4.105  -3.083   3.890  0.00  0.00    -0.202 F 
ATOM     23  F   UNL     1       3.516  -5.544   2.844  0.00  0.00    -0.202 F 
ENDBRANCH   1  19
BRANCH   5  24
ATOM     24  C   UNL     1       2.678  -5.033  -3.137  0.00  0.00    +0.218 C 
ATOM     25  O   UNL     1       3.489  -4.874  -2.248  0.00  0.00    -0.275 OA
ATOM     26  N   UNL     1       3.044  -4.854  -4.422  0.00  0.00    -0.313 N 
ATOM     27  H   UNL     1       2.421  -5.059  -5.136  0.00  0.00    +0.149 HD
BRANCH  26  28
ATOM     28  C   UNL     1       4.382  -4.350  -4.739  0.00  0.00    +0.126 C 
BRANCH  28  29
ATOM     29  C   UNL     1       4.476  -4.061  -6.239  0.00  0.00    +0.038 C 
ATOM     30  C   UNL     1       4.097  -5.318  -7.025  0.00  0.00    +0.024 C 
ATOM     31  C   UNL     1       5.056  -6.454  -6.664  0.00  0.00    +0.002 C 
ATOM     32  C   UNL     1       6.488  -6.044  -7.016  0.00  0.00    +0.000 C 
ATOM     33  C   UNL     1       6.866  -4.787  -6.230  0.00  0.00    +0.002 C 
ATOM     34  C   UNL     1       5.907  -3.651  -6.591  0.00  0.00    +0.024 C 
BRANCH  29  35
ATOM     35  N   UNL     1       3.554  -2.970  -6.586  0.00  0.00    -0.291 NA
ATOM     36  C   UNL     1       3.903  -1.737  -5.866  0.00  0.00    +0.113 C 
ATOM     37  C   UNL     1       2.958  -0.614  -6.300  0.00  0.00    +0.175 C 
ATOM     38  O   UNL     1       1.606  -1.016  -6.062  0.00  0.00    -0.377 OA
ATOM     39  C   UNL     1       1.233  -2.214  -6.749  0.00  0.00    +0.175 C 
ATOM     40  C   UNL     1       2.160  -3.353  -6.318  0.00  0.00    +0.113 C 
ENDBRANCH  29  35
ENDBRANCH  28  29
ENDBRANCH  26  28
ENDBRANCH   5  24
TORSDOF 5
