REMARK  Name = ZINC64202169
REMARK  6 active torsions:
REMARK  status: ('A' for Active; 'I' for Inactive)
REMARK    1  A    between atoms: C_1  and  C_2
REMARK    2  A    between atoms: C_5  and  N_8
REMARK    3  A    between atoms: C_9  and  C_11
REMARK    4  A    between atoms: C_16  and  N_17
REMARK    5  A    between atoms: N_17  and  S_18
REMARK    6  A    between atoms: S_18  and  C_21
REMARK                            x       y       z     vdW  Elec       q    Type
REMARK                         _______ _______ _______ _____ _____    ______ ____
ROOT
ATOM      1  C   UNL     1       4.982  -2.126   0.846  0.00  0.00    +0.059 A 
ATOM      2  C   UNL     1       5.155  -0.861   0.278  0.00  0.00    +0.015 A 
ATOM      3  C   UNL     1       6.402  -0.277   0.270  0.00  0.00    +0.001 A 
ATOM      4  C   UNL     1       7.489  -0.937   0.821  0.00  0.00    +0.002 A 
ATOM      5  C   UNL     1       7.335  -2.187   1.385  0.00  0.00    +0.025 A 
ATOM      6  C   UNL     1       6.083  -2.789   1.409  0.00  0.00    +0.060 A 
ENDROOT
BRANCH   1   8
ATOM      7  N   UNL     1       2.595  -2.116   0.317  0.00  0.00    -0.308 N 
ATOM      8  C   UNL     1       3.650  -2.757   0.859  0.00  0.00    +0.246 C 
ATOM      9  O   UNL     1       3.502  -3.856   1.358  0.00  0.00    -0.270 OA
ATOM     10  H   UNL     1       2.713  -1.240  -0.081  0.00  0.00    +0.149 HD
BRANCH   7  15
ATOM     11  C   UNL     1      -0.564   1.140   0.858  0.00  0.00    +0.007 C 
ATOM     12  C   UNL     1      -0.413  -0.373   0.686  0.00  0.00    -0.014 C 
ATOM     13  C   UNL     1       0.279  -0.669  -0.646  0.00  0.00    +0.005 C 
ATOM     14  C   UNL     1       0.429  -2.182  -0.818  0.00  0.00    +0.022 C 
ATOM     15  C   UNL     1       1.271  -2.744   0.330  0.00  0.00    +0.073 C 
ATOM     16  C   UNL     1       0.580  -2.448   1.662  0.00  0.00    +0.022 C 
ATOM     17  C   UNL     1       0.429  -0.935   1.834  0.00  0.00    +0.005 C 
ENDBRANCH   7  15
ENDBRANCH   1   8
BRANCH   6  18
ATOM     18  N   UNL     1       5.924  -4.045   1.982  0.00  0.00    -0.216 N 
ATOM     19  H   UNL     1       5.295  -4.676   1.598  0.00  0.00    +0.174 HD
BRANCH  18  20
ATOM     20  S   UNL     1       6.807  -4.463   3.319  0.00  0.00    +0.072 S 
ATOM     21  O   UNL     1       6.330  -5.734   3.739  0.00  0.00    -0.150 OA
ATOM     22  O   UNL     1       8.170  -4.229   2.994  0.00  0.00    -0.150 OA
BRANCH  20  23
ATOM     23  C   UNL     1       6.390  -3.322   4.596  0.00  0.00    +0.110 A 
ATOM     24  C   UNL     1       7.162  -2.091   4.723  0.00  0.00    +0.031 A 
ATOM     25  C   UNL     1       6.894  -1.175   5.679  0.00  0.00    +0.027 A 
ATOM     26  C   UNL     1       5.802  -1.413   6.620  0.00  0.00    +0.056 A 
ATOM     27  N   UNL     1       5.294  -0.754   7.631  0.00  0.00    -0.268 N 
ATOM     28  C   UNL     1       4.254  -1.488   8.150  0.00  0.00    +0.308 C 
ATOM     29  O   UNL     1       3.571  -1.158   9.096  0.00  0.00    -0.252 OA
ATOM     30  N   UNL     1       4.104  -2.653   7.435  0.00  0.00    -0.267 N 
ATOM     31  C   UNL     1       5.010  -2.677   6.489  0.00  0.00    +0.058 A 
ATOM     32  C   UNL     1       5.363  -3.612   5.423  0.00  0.00    +0.054 A 
ATOM     33  H   UNL     1       3.441  -3.341   7.602  0.00  0.00    +0.156 HD
ATOM     34  H   UNL     1       5.601   0.106   7.959  0.00  0.00    +0.156 HD
ENDBRANCH  20  23
ENDBRANCH  18  20
ENDBRANCH   6  18
TORSDOF 5
