REMARK  Name = ZINC13399249
REMARK  8 active torsions:
REMARK  status: ('A' for Active; 'I' for Inactive)
REMARK    1  A    between atoms: C_1  and  C_2
REMARK    2  A    between atoms: C_2  and  C_3
REMARK    3  A    between atoms: C_3  and  O_31
REMARK    4  A    between atoms: C_8  and  C_30
REMARK    5  A    between atoms: C_19  and  C_29
REMARK    6  A    between atoms: C_22  and  O_25
REMARK    7  A    between atoms: O_25  and  C_26
REMARK    8  A    between atoms: C_26  and  C_28
REMARK                            x       y       z     vdW  Elec       q    Type
REMARK                         _______ _______ _______ _____ _____    ______ ____
ROOT
ATOM      1  C   UNL     1      -3.911  -1.193  -5.507  0.00  0.00    +0.071 C 
ATOM      2  C   UNL     1      -2.620  -1.109  -6.362  0.00  0.00    +0.035 C 
ATOM      3  C   UNL     1      -1.798   0.085  -5.808  0.00  0.00    +0.007 C 
ATOM      4  C   UNL     1      -2.380   0.286  -4.401  0.00  0.00    +0.001 C 
ATOM      5  C   UNL     1      -3.892   0.074  -4.650  0.00  0.00    -0.000 C 
ATOM      6  C   UNL     1      -4.598   0.023  -3.318  0.00  0.00    +0.010 C 
ATOM      7  C   UNL     1      -4.352   1.315  -2.537  0.00  0.00    +0.005 C 
ATOM      8  C   UNL     1      -2.902   1.770  -2.461  0.00  0.00    -0.001 C 
ATOM      9  C   UNL     1      -2.154   1.638  -3.777  0.00  0.00    -0.004 C 
ATOM     10  C   UNL     1      -0.666   1.954  -3.663  0.00  0.00    +0.004 C 
ATOM     11  C   UNL     1      -0.032   1.195  -2.499  0.00  0.00    +0.004 C 
ATOM     12  C   UNL     1      -0.733   1.635  -1.216  0.00  0.00    -0.001 C 
ATOM     13  C   UNL     1      -2.195   1.190  -1.242  0.00  0.00    -0.026 C 
ATOM     14  C   UNL     1      -2.869   1.744   0.025  0.00  0.00    +0.011 C 
ATOM     15  C   UNL     1      -2.172   1.225   1.279  0.00  0.00    +0.045 C 
ATOM     16  C   UNL     1      -0.691   1.592   1.280  0.00  0.00    +0.177 C 
ATOM     17  C   UNL     1      -0.013   1.081   0.008  0.00  0.00    +0.048 C 
ATOM     18  C   UNL     1      -2.284  -0.333  -1.208  0.00  0.00    +0.012 C 
ATOM     19  C   UNL     1      -4.483   1.210  -5.496  0.00  0.00    +0.014 C 
ENDROOT
BRANCH   1  21
ATOM     20  C   UNL     1      -3.788  -3.685  -5.559  0.00  0.00    +0.007 C 
ATOM     21  C   UNL     1      -3.894  -2.457  -4.652  0.00  0.00    +0.032 C 
ENDBRANCH   1  21
BRANCH   1  22
ATOM     22  O   UNL     1      -5.062  -1.185  -6.356  0.00  0.00    -0.388 OA
ATOM     23  H   UNL     1      -5.135  -1.962  -6.928  0.00  0.00    +0.210 HD
ENDBRANCH   1  22
BRANCH  16  24
ATOM     24  O   UNL     1      -0.544   3.034   1.365  0.00  0.00    -0.462 OA
BRANCH  24  25
ATOM     25  C   UNL     1      -0.495   3.571   2.594  0.00  0.00    +0.304 C 
ATOM     26  O   UNL     1      -0.573   2.859   3.567  0.00  0.00    -0.251 OA
ATOM     27  C   UNL     1      -0.344   5.061   2.761  0.00  0.00    +0.136 C 
ENDBRANCH  24  25
ENDBRANCH  16  24
TORSDOF 4
