REMARK  Name = ZINC38887565
REMARK  12 active torsions:
REMARK  status: ('A' for Active; 'I' for Inactive)
REMARK    1  A    between atoms: C_1  and  C_2
REMARK    2  A    between atoms: C_5  and  C_9
REMARK    3  A    between atoms: C_6  and  C_8
REMARK    4  A    between atoms: C_9  and  C_11
REMARK    5  A    between atoms: C_9  and  N_14
REMARK    6  A    between atoms: C_11  and  C_12
REMARK    7  A    between atoms: C_11  and  C_13
REMARK    8  A    between atoms: C_15  and  C_17
REMARK    9  A    between atoms: N_22  and  C_24
REMARK   10  A    between atoms: C_24  and  C_25
REMARK   11  A    between atoms: C_27  and  C_30
REMARK   12  A    between atoms: C_35  and  C_36
REMARK                            x       y       z     vdW  Elec       q    Type
REMARK                         _______ _______ _______ _____ _____    ______ ____
ROOT
ATOM      1  C   UNL     1      -1.383  -6.939  -3.233  0.00  0.00    +0.058 C 
ATOM      2  C   UNL     1      -0.160  -7.078  -4.143  0.00  0.00    +0.009 C 
ATOM      3  C   UNL     1      -0.567  -7.826  -5.417  0.00  0.00    -0.018 C 
ATOM      4  C   UNL     1      -1.165  -9.182  -5.037  0.00  0.00    -0.078 C 
ATOM      5  N   UNL     1      -2.345  -8.979  -4.188  0.00  0.00    +0.386 N 
ATOM      6  C   UNL     1      -1.952  -8.327  -2.933  0.00  0.00    -0.065 C 
ATOM      7  H   UNL     1      -3.011  -8.397  -4.674  0.00  0.00    -0.081 HD
ENDROOT
BRANCH   1   9
ATOM      8  N   UNL     1      -0.445  -5.034  -1.963  0.00  0.00    -0.308 N 
ATOM      9  C   UNL     1      -0.977  -6.272  -1.943  0.00  0.00    +0.215 C 
ATOM     10  O   UNL     1      -1.129  -6.851  -0.888  0.00  0.00    -0.276 OA
ATOM     11  H   UNL     1      -0.323  -4.572  -2.807  0.00  0.00    +0.149 HD
BRANCH   8  12
ATOM     12  C   UNL     1      -0.050  -4.387  -0.709  0.00  0.00    +0.106 C 
BRANCH  12  17
ATOM     13  C   UNL     1      -1.054   1.292  -1.078  0.00  0.00    +0.044 C 
ATOM     14  C   UNL     1      -0.792  -0.189  -0.982  0.00  0.00    -0.050 A 
ATOM     15  C   UNL     1       0.497  -0.672  -1.104  0.00  0.00    +0.004 A 
ATOM     16  C   UNL     1       0.737  -2.031  -1.016  0.00  0.00    +0.006 A 
ATOM     17  C   UNL     1      -0.312  -2.906  -0.805  0.00  0.00    -0.024 A 
ATOM     18  C   UNL     1      -1.601  -2.423  -0.681  0.00  0.00    -0.045 A 
ATOM     19  C   UNL     1      -1.841  -1.064  -0.765  0.00  0.00    +0.007 A 
ATOM     20  C   UNL     1      -2.744  -3.377  -0.451  0.00  0.00    +0.044 C 
ENDBRANCH  12  17
BRANCH  12  21
ATOM     21  C   UNL     1       1.440  -4.626  -0.459  0.00  0.00    +0.008 C 
ATOM     22  C   UNL     1       1.830  -4.038   0.898  0.00  0.00    +0.009 C 
ATOM     23  C   UNL     1       1.723  -6.130  -0.463  0.00  0.00    +0.009 C 
ENDBRANCH  12  21
ENDBRANCH   8  12
ENDBRANCH   1   9
BRANCH   5  24
ATOM     24  C   UNL     1      -2.961 -10.280  -3.890  0.00  0.00    +0.022 C 
BRANCH  24  25
ATOM     25  C   UNL     1      -3.485 -10.891  -5.164  0.00  0.00    +0.211 A 
ATOM     26  N   UNL     1      -2.820 -11.680  -5.959  0.00  0.00    -0.193 NA
ATOM     27  C   UNL     1      -3.591 -12.040  -7.001  0.00  0.00    +0.202 A 
ATOM     28  N   UNL     1      -4.765 -11.472  -6.869  0.00  0.00    -0.056 NA
ATOM     29  O   UNL     1      -4.714 -10.719  -5.667  0.00  0.00    -0.340 OA
BRANCH  27  30
ATOM     30  C   UNL     1      -3.180 -12.931  -8.115  0.00  0.00    +0.025 A 
ATOM     31  C   UNL     1      -1.973 -12.714  -8.775  0.00  0.00    +0.012 A 
ATOM     32  C   UNL     1      -1.596 -13.545  -9.810  0.00  0.00    +0.001 A 
ATOM     33  C   UNL     1      -2.414 -14.593 -10.192  0.00  0.00    +0.000 A 
ATOM     34  C   UNL     1      -3.614 -14.813  -9.540  0.00  0.00    +0.004 A 
ATOM     35  C   UNL     1      -3.998 -13.991  -8.500  0.00  0.00    -0.040 A 
ATOM     36  C   UNL     1      -5.302 -14.236  -7.786  0.00  0.00    +0.044 C 
ENDBRANCH  27  30
ENDBRANCH  24  25
ENDBRANCH   5  24
TORSDOF 7
