REMARK  Name = ZINC50588238
REMARK  9 active torsions:
REMARK  status: ('A' for Active; 'I' for Inactive)
REMARK    1  A    between atoms: C_1  and  C_2
REMARK    2  A    between atoms: C_2  and  N_3
REMARK    3  A    between atoms: C_4  and  C_6
REMARK    4  A    between atoms: C_9  and  N_13
REMARK    5  A    between atoms: C_10  and  C_12
REMARK    6  A    between atoms: C_14  and  C_16
REMARK    7  A    between atoms: C_16  and  N_17
REMARK    8  A    between atoms: N_20  and  C_21
REMARK    9  A    between atoms: C_21  and  C_22
REMARK                            x       y       z     vdW  Elec       q    Type
REMARK                         _______ _______ _______ _____ _____    ______ ____
ROOT
ATOM      1  N   UNL     1       3.467  -3.618  -6.066  0.00  0.00    -0.284 N 
ATOM      2  C   UNL     1       3.875  -2.735  -7.000  0.00  0.00    +0.234 C 
ATOM      3  O   UNL     1       3.756  -1.545  -6.801  0.00  0.00    -0.274 OA
ATOM      4  H   UNL     1       3.622  -4.567  -6.196  0.00  0.00    +0.155 HD
ENDROOT
BRANCH   1   8
ATOM      5  C   UNL     1       1.544  -2.272  -2.626  0.00  0.00    +0.037 A 
ATOM      6  C   UNL     1       2.559  -1.506  -3.206  0.00  0.00    +0.015 A 
ATOM      7  C   UNL     1       3.193  -1.954  -4.343  0.00  0.00    +0.024 A 
ATOM      8  C   UNL     1       2.824  -3.167  -4.915  0.00  0.00    +0.036 A 
ATOM      9  C   UNL     1       1.814  -3.932  -4.340  0.00  0.00    -0.029 A 
ATOM     10  C   UNL     1       1.179  -3.493  -3.200  0.00  0.00    +0.018 A 
ATOM     11  C   UNL     1       1.417  -5.246  -4.963  0.00  0.00    +0.045 C 
BRANCH   5  13
ATOM     12  N   UNL     1       1.214  -0.617  -0.855  0.00  0.00    -0.312 N 
ATOM     13  C   UNL     1       0.862  -1.794  -1.407  0.00  0.00    +0.244 C 
ATOM     14  O   UNL     1      -0.018  -2.464  -0.901  0.00  0.00    -0.270 OA
ATOM     15  H   UNL     1       1.916  -0.082  -1.259  0.00  0.00    +0.149 HD
BRANCH  12  17
ATOM     16  C   UNL     1       1.122   1.208   0.771  0.00  0.00    +0.024 C 
ATOM     17  C   UNL     1       0.538  -0.143   0.355  0.00  0.00    +0.101 C 
ENDBRANCH  12  17
ENDBRANCH   5  13
ENDBRANCH   1   8
BRANCH   2  18
ATOM     18  C   UNL     1       4.478  -3.227  -8.290  0.00  0.00    +0.202 C 
BRANCH  18  19
ATOM     19  N   UNL     1       4.836  -2.082  -9.130  0.00  0.00    -0.291 N 
ATOM     20  C   UNL     1       5.395  -2.282 -10.340  0.00  0.00    +0.300 C 
ATOM     21  O   UNL     1       5.602  -3.413 -10.735  0.00  0.00    -0.253 OA
ATOM     22  N   UNL     1       5.724  -1.228 -11.113  0.00  0.00    -0.299 N 
ATOM     23  H   UNL     1       4.670  -1.179  -8.816  0.00  0.00    +0.151 HD
ATOM     24  H   UNL     1       5.559  -0.325 -10.798  0.00  0.00    +0.150 HD
BRANCH  22  25
ATOM     25  C   UNL     1       6.332  -1.445 -12.428  0.00  0.00    +0.109 C 
BRANCH  25  26
ATOM     26  C   UNL     1       6.605  -0.095 -13.093  0.00  0.00    +0.006 C 
ATOM     27  C   UNL     1       5.274   0.600 -13.445  0.00  0.00    +0.005 C 
ATOM     28  C   UNL     1       5.556   1.298 -14.799  0.00  0.00    +0.000 C 
ATOM     29  C   UNL     1       6.455   0.272 -15.532  0.00  0.00    +0.000 C 
ATOM     30  C   UNL     1       7.357  -0.303 -14.420  0.00  0.00    +0.005 C 
ENDBRANCH  25  26
ENDBRANCH  22  25
ENDBRANCH  18  19
ENDBRANCH   2  18
TORSDOF 7
