REMARK  Name = ZINC03656778
REMARK  5 active torsions:
REMARK  status: ('A' for Active; 'I' for Inactive)
REMARK    1  A    between atoms: C_1  and  C_2
REMARK    2  A    between atoms: C_7  and  S_8
REMARK    3  A    between atoms: S_8  and  N_11
REMARK    4  A    between atoms: N_11  and  C_12
REMARK    5  A    between atoms: C_23  and  C_26
REMARK                            x       y       z     vdW  Elec       q    Type
REMARK                         _______ _______ _______ _____ _____    ______ ____
ROOT
ATOM      1  C   UNL     1       1.214   2.191   2.133  0.00  0.00    +0.049 A 
ATOM      2  C   UNL     1       0.965   2.115   0.764  0.00  0.00    +0.028 A 
ATOM      3  C   UNL     1       1.000   3.248  -0.018  0.00  0.00    +0.049 A 
ATOM      4  C   UNL     1       1.285   4.481   0.553  0.00  0.00    +0.136 A 
ATOM      5  C   UNL     1       1.537   4.562   1.935  0.00  0.00    +0.025 A 
ATOM      6  C   UNL     1       1.494   3.411   2.721  0.00  0.00    +0.036 A 
ATOM      7  C   UNL     1       1.798   5.976   2.196  0.00  0.00    +0.002 A 
ATOM      8  C   UNL     1       1.690   6.613   1.018  0.00  0.00    +0.109 A 
ATOM      9  O   UNL     1       1.388   5.731   0.052  0.00  0.00    -0.459 OA
ATOM     10  C   UNL     1       1.887   8.103   0.854  0.00  0.00    +0.075 C 
ATOM     11  C   UNL     1       1.792   8.762   2.235  0.00  0.00    +0.011 C 
ATOM     12  C   UNL     1       2.708   8.027   3.217  0.00  0.00    -0.009 C 
ATOM     13  C   UNL     1       2.128   6.637   3.508  0.00  0.00    +0.042 C 
ATOM     14  C   UNL     1       2.804   8.824   4.520  0.00  0.00    +0.008 C 
ENDROOT
BRANCH   1  15
ATOM     15  N   UNL     1       1.175   1.031   2.916  0.00  0.00    -0.216 N 
ATOM     16  H   UNL     1       1.881   0.855   3.557  0.00  0.00    +0.174 HD
BRANCH  15  17
ATOM     17  S   UNL     1      -0.075  -0.041   2.746  0.00  0.00    +0.073 S 
ATOM     18  O   UNL     1      -1.271   0.728   2.743  0.00  0.00    -0.150 OA
ATOM     19  O   UNL     1       0.156  -1.086   3.680  0.00  0.00    -0.150 OA
BRANCH  17  26
ATOM     20  C   UNL     1       2.240  -1.772   1.859  0.00  0.00    +0.046 C 
ATOM     21  C   UNL     1       1.165  -1.536   0.829  0.00  0.00    -0.021 A 
ATOM     22  C   UNL     1       1.274  -2.103  -0.427  0.00  0.00    +0.043 A 
ATOM     23  C   UNL     1       0.286  -1.887  -1.372  0.00  0.00    +0.124 A 
ATOM     24  C   UNL     1      -0.811  -1.102  -1.058  0.00  0.00    +0.040 A 
ATOM     25  C   UNL     1      -0.918  -0.536   0.198  0.00  0.00    +0.032 A 
ATOM     26  C   UNL     1       0.066  -0.757   1.143  0.00  0.00    +0.112 A 
ATOM     27  F   UNL     1       0.393  -2.441  -2.600  0.00  0.00    -0.205 F 
ENDBRANCH  17  26
ENDBRANCH  15  17
ENDBRANCH   1  15
TORSDOF 3
