REMARK  Name = ZINC14021675
REMARK  6 active torsions:
REMARK  status: ('A' for Active; 'I' for Inactive)
REMARK    1  A    between atoms: C_1  and  C_2
REMARK    2  A    between atoms: C_5  and  S_8
REMARK    3  A    between atoms: S_8  and  N_11
REMARK    4  A    between atoms: C_15  and  C_18
REMARK    5  A    between atoms: C_24  and  C_31
REMARK    6  A    between atoms: C_25  and  C_30
REMARK                            x       y       z     vdW  Elec       q    Type
REMARK                         _______ _______ _______ _____ _____    ______ ____
ROOT
ATOM      1  N   UNL     1       3.480   2.568  -0.648  0.00  0.00    -0.176 NA
ATOM      2  C   UNL     1       3.694   3.354   0.574  0.00  0.00    +0.109 C 
ATOM      3  C   UNL     1       2.442   4.195   0.846  0.00  0.00    +0.018 C 
ATOM      4  C   UNL     1       1.218   3.278   0.895  0.00  0.00    +0.015 C 
ATOM      5  C   UNL     1       1.047   2.579  -0.456  0.00  0.00    +0.091 C 
ATOM      6  C   UNL     1       2.283   1.720  -0.742  0.00  0.00    +0.122 C 
ENDROOT
BRANCH   5   7
ATOM      7  C   UNL     1      -0.177   1.701  -0.417  0.00  0.00    +0.223 C 
ATOM      8  O   UNL     1      -0.073   0.507  -0.603  0.00  0.00    -0.275 OA
ATOM      9  N   UNL     1      -1.388   2.244  -0.181  0.00  0.00    -0.264 N 
ATOM     10  C   UNL     1      -2.514   1.438  -0.151  0.00  0.00    +0.165 A 
ATOM     11  N   UNL     1      -3.764   1.776   0.066  0.00  0.00    -0.224 NA
ATOM     12  C   UNL     1      -4.771   0.877   0.062  0.00  0.00    +0.083 A 
ATOM     13  C   UNL     1      -6.149   1.109   0.276  0.00  0.00    -0.021 A 
ATOM     14  C   UNL     1      -7.047   0.073   0.245  0.00  0.00    -0.045 A 
ATOM     15  C   UNL     1      -6.640  -1.231   0.004  0.00  0.00    +0.005 A 
ATOM     16  C   UNL     1      -5.300  -1.494  -0.209  0.00  0.00    +0.017 A 
ATOM     17  C   UNL     1      -4.394  -0.464  -0.180  0.00  0.00    +0.041 A 
ATOM     18  S   UNL     1      -2.635  -0.330  -0.390  0.00  0.00    -0.052 S 
ATOM     19  C   UNL     1      -8.508   0.358   0.478  0.00  0.00    +0.044 C 
ATOM     20  C   UNL     1      -6.637   2.510   0.542  0.00  0.00    +0.046 C 
ATOM     21  H   UNL     1      -1.471   3.199  -0.033  0.00  0.00    +0.157 HD
ENDBRANCH   5   7
BRANCH   1  22
ATOM     22  S   UNL     1       4.567   2.635  -1.896  0.00  0.00    +0.061 S 
ATOM     23  O   UNL     1       3.858   2.266  -3.072  0.00  0.00    -0.153 OA
ATOM     24  O   UNL     1       5.249   3.875  -1.775  0.00  0.00    -0.153 OA
BRANCH  22  29
ATOM     25  C   UNL     1       8.664  -1.687  -0.926  0.00  0.00    +0.044 C 
ATOM     26  C   UNL     1       7.641  -0.608  -1.169  0.00  0.00    -0.050 A 
ATOM     27  C   UNL     1       6.503  -0.886  -1.903  0.00  0.00    +0.005 A 
ATOM     28  C   UNL     1       5.564   0.104  -2.125  0.00  0.00    +0.029 A 
ATOM     29  C   UNL     1       5.763   1.373  -1.613  0.00  0.00    +0.105 A 
ATOM     30  C   UNL     1       6.904   1.653  -0.883  0.00  0.00    +0.029 A 
ATOM     31  C   UNL     1       7.840   0.661  -0.657  0.00  0.00    +0.005 A 
ENDBRANCH  22  29
ENDBRANCH   1  22
TORSDOF 3
