REMARK  Name = ZINC16853509
REMARK  6 active torsions:
REMARK  status: ('A' for Active; 'I' for Inactive)
REMARK    1  A    between atoms: C_4  and  C_7
REMARK    2  A    between atoms: C_8  and  C_20
REMARK    3  A    between atoms: C_13  and  S_15
REMARK    4  A    between atoms: S_15  and  C_16
REMARK    5  A    between atoms: C_16  and  C_17
REMARK    6  A    between atoms: C_20  and  C_21
REMARK                            x       y       z     vdW  Elec       q    Type
REMARK                         _______ _______ _______ _____ _____    ______ ____
ROOT
ATOM      1  C   UNL     1       1.147   2.412   0.148  0.00  0.00    +0.082 A 
ATOM      2  C   UNL     1       0.088   1.589  -0.206  0.00  0.00    +0.047 A 
ATOM      3  C   UNL     1       0.319   0.211  -0.331  0.00  0.00    +0.256 A 
ATOM      4  O   UNL     1      -0.588  -0.545  -0.640  0.00  0.00    -0.267 OA
ATOM      5  N   UNL     1       1.561  -0.265  -0.102  0.00  0.00    -0.302 N 
ATOM      6  H   UNL     1       1.738  -1.215  -0.184  0.00  0.00    +0.171 HD
ATOM      7  C   UNL     1       2.567   0.587   0.244  0.00  0.00    +0.170 A 
ATOM      8  N   UNL     1       2.358   1.882   0.363  0.00  0.00    -0.223 NA
ENDROOT
BRANCH   1  12
ATOM      9  C   UNL     1       0.551   6.602   0.551  0.00  0.00    +0.000 A 
ATOM     10  C   UNL     1      -0.223   5.722   1.287  0.00  0.00    +0.001 A 
ATOM     11  C   UNL     1      -0.034   4.361   1.160  0.00  0.00    +0.010 A 
ATOM     12  C   UNL     1       0.940   3.873   0.289  0.00  0.00    +0.001 A 
ATOM     13  C   UNL     1       1.720   4.765  -0.445  0.00  0.00    +0.010 A 
ATOM     14  C   UNL     1       1.518   6.124  -0.315  0.00  0.00    +0.001 A 
ENDBRANCH   1  12
BRANCH   7  15
ATOM     15  S   UNL     1       4.180  -0.058   0.537  0.00  0.00    -0.078 S 
BRANCH  15  16
ATOM     16  C   UNL     1       5.060   1.471   0.942  0.00  0.00    +0.172 C 
BRANCH  16  17
ATOM     17  C   UNL     1       6.504   1.155   1.239  0.00  0.00    +0.221 C 
ATOM     18  O   UNL     1       6.898   0.010   1.183  0.00  0.00    -0.275 OA
ATOM     19  N   UNL     1       7.356   2.147   1.567  0.00  0.00    -0.329 N 
ATOM     20  H   UNL     1       7.041   3.063   1.613  0.00  0.00    +0.145 HD
ATOM     21  H   UNL     1       8.285   1.944   1.759  0.00  0.00    +0.145 HD
ENDBRANCH  16  17
ENDBRANCH  15  16
ENDBRANCH   7  15
BRANCH   2  22
ATOM     22  C   UNL     1      -1.281   2.165  -0.458  0.00  0.00    +0.079 C 
BRANCH  22  23
ATOM     23  C   UNL     1      -1.450   2.435  -1.931  0.00  0.00    -0.025 A 
ATOM     24  C   UNL     1      -0.942   3.597  -2.482  0.00  0.00    +0.005 A 
ATOM     25  C   UNL     1      -1.093   3.843  -3.834  0.00  0.00    +0.000 A 
ATOM     26  C   UNL     1      -1.759   2.933  -4.633  0.00  0.00    +0.001 A 
ATOM     27  C   UNL     1      -2.271   1.774  -4.082  0.00  0.00    +0.020 A 
ATOM     28  C   UNL     1      -2.116   1.524  -2.730  0.00  0.00    +0.044 A 
ATOM     29 CL   UNL     1      -2.759   0.068  -2.036  0.00  0.00    -0.083 Cl
ENDBRANCH  22  23
ENDBRANCH   2  22
TORSDOF 6
