REMARK  Name = ZINC62319439
REMARK  10 active torsions:
REMARK  status: ('A' for Active; 'I' for Inactive)
REMARK    1  A    between atoms: C_1  and  C_2
REMARK    2  A    between atoms: C_2  and  C_3
REMARK    3  A    between atoms: C_3  and  C_5
REMARK    4  A    between atoms: C_3  and  N_6
REMARK    5  A    between atoms: C_8  and  C_18
REMARK    6  A    between atoms: C_16  and  N_17
REMARK    7  A    between atoms: N_20  and  C_21
REMARK    8  A    between atoms: C_21  and  C_22
REMARK    9  A    between atoms: C_22  and  C_23
REMARK   10  A    between atoms: C_22  and  C_24
REMARK                            x       y       z     vdW  Elec       q    Type
REMARK                         _______ _______ _______ _____ _____    ______ ____
ROOT
ATOM      1  N   UNL     1      -2.334  -0.093   1.481  0.00  0.00    -0.343 N 
ATOM      2  C   UNL     1      -2.006  -0.536   2.703  0.00  0.00    +0.103 A 
ATOM      3  C   UNL     1      -2.675  -0.126   3.837  0.00  0.00    +0.100 A 
ATOM      4  C   UNL     1      -3.787   0.830   3.701  0.00  0.00    +0.203 A 
ATOM      5  O   UNL     1      -4.409   1.222   4.673  0.00  0.00    -0.286 OA
ATOM      6  C   UNL     1      -4.115   1.291   2.343  0.00  0.00    +0.067 A 
ATOM      7  C   UNL     1      -3.357   0.806   1.264  0.00  0.00    +0.055 A 
ATOM      8  C   UNL     1      -3.654   1.238  -0.025  0.00  0.00    +0.026 A 
ATOM      9  C   UNL     1      -4.679   2.138  -0.235  0.00  0.00    +0.004 A 
ATOM     10  C   UNL     1      -5.426   2.624   0.825  0.00  0.00    +0.023 A 
ATOM     11  C   UNL     1      -5.159   2.200   2.119  0.00  0.00    +0.037 A 
ENDROOT
BRANCH   3  12
ATOM     12  C   UNL     1      -2.284  -0.636   5.160  0.00  0.00    +0.249 C 
ATOM     13  O   UNL     1      -1.299  -1.340   5.274  0.00  0.00    -0.270 OA
ATOM     14  N   UNL     1      -3.018  -0.322   6.247  0.00  0.00    -0.311 N 
ATOM     15  H   UNL     1      -3.759   0.299   6.168  0.00  0.00    +0.149 HD
BRANCH  14  16
ATOM     16  C   UNL     1      -2.696  -0.919   7.545  0.00  0.00    +0.107 C 
BRANCH  16  17
ATOM     17  C   UNL     1      -3.674  -0.400   8.601  0.00  0.00    -0.000 C 
ATOM     18  C   UNL     1      -5.086  -0.886   8.271  0.00  0.00    +0.009 C 
ATOM     19  C   UNL     1      -3.262  -0.925   9.979  0.00  0.00    +0.009 C 
ENDBRANCH  16  17
ENDBRANCH  14  16
ENDBRANCH   3  12
BRANCH  11  20
ATOM     20  N   UNL     1      -5.907   2.687   3.184  0.00  0.00    -0.357 N 
ATOM     21  H   UNL     1      -5.657   2.462   4.094  0.00  0.00    +0.142 HD
ATOM     22  H   UNL     1      -6.679   3.250   3.018  0.00  0.00    +0.142 HD
ENDBRANCH  11  20
BRANCH   1  23
ATOM     23  C   UNL     1      -1.571  -0.580   0.330  0.00  0.00    +0.084 C 
ATOM     24  C   UNL     1      -1.595  -2.109   0.312  0.00  0.00    +0.031 C 
BRANCH  23  26
ATOM     25  C   UNL     1      -0.089   1.432   0.328  0.00  0.00    +0.006 C 
ATOM     26  C   UNL     1      -0.124  -0.094   0.435  0.00  0.00    +0.021 C 
ENDBRANCH  23  26
ENDBRANCH   1  23
TORSDOF 6
