REMARK  Name = ZINC63660928
REMARK  6 active torsions:
REMARK  status: ('A' for Active; 'I' for Inactive)
REMARK    1  A    between atoms: C_1  and  C_2
REMARK    2  A    between atoms: C_8  and  C_11
REMARK    3  A    between atoms: C_11  and  C_12
REMARK    4  A    between atoms: C_12  and  N_13
REMARK    5  A    between atoms: C_14  and  C_16
REMARK    6  A    between atoms: C_26  and  C_28
REMARK                            x       y       z     vdW  Elec       q    Type
REMARK                         _______ _______ _______ _____ _____    ______ ____
ROOT
ATOM      1  N   UNL     1      -3.896  -2.498   4.086  0.00  0.00    -0.313 N 
ATOM      2  C   UNL     1      -4.409  -2.609   5.327  0.00  0.00    +0.234 C 
ATOM      3  O   UNL     1      -5.445  -3.215   5.503  0.00  0.00    -0.274 OA
ATOM      4  H   UNL     1      -3.068  -2.014   3.945  0.00  0.00    +0.149 HD
ENDROOT
BRANCH   2   5
ATOM      5  C   UNL     1      -3.695  -1.982   6.496  0.00  0.00    +0.172 C 
ATOM      6  C   UNL     1      -3.635  -0.455   6.327  0.00  0.00    +0.069 C 
ATOM      7  C   UNL     1      -4.388   0.090   7.520  0.00  0.00    -0.024 A 
ATOM      8  C   UNL     1      -4.661   1.389   7.903  0.00  0.00    +0.005 A 
ATOM      9  C   UNL     1      -5.380   1.636   9.058  0.00  0.00    +0.000 A 
ATOM     10  C   UNL     1      -5.827   0.579   9.829  0.00  0.00    +0.002 A 
ATOM     11  C   UNL     1      -5.556  -0.719   9.451  0.00  0.00    +0.024 A 
ATOM     12  C   UNL     1      -4.830  -0.976   8.287  0.00  0.00    +0.041 A 
ATOM     13  N   UNL     1      -4.450  -2.204   7.732  0.00  0.00    -0.255 N 
ATOM     14  C   UNL     1      -4.737  -3.412   8.256  0.00  0.00    +0.252 C 
ATOM     15  O   UNL     1      -5.331  -3.491   9.313  0.00  0.00    -0.270 OA
BRANCH  14  16
ATOM     16  C   UNL     1      -4.329  -4.642   7.544  0.00  0.00    +0.037 A 
ATOM     17  C   UNL     1      -3.041  -4.752   7.016  0.00  0.00    +0.013 A 
ATOM     18  C   UNL     1      -2.667  -5.902   6.353  0.00  0.00    +0.001 A 
ATOM     19  C   UNL     1      -3.564  -6.946   6.211  0.00  0.00    +0.000 A 
ATOM     20  C   UNL     1      -4.842  -6.843   6.731  0.00  0.00    +0.001 A 
ATOM     21  C   UNL     1      -5.228  -5.700   7.401  0.00  0.00    +0.013 A 
ENDBRANCH  14  16
ENDBRANCH   2   5
BRANCH   1  22
ATOM     22  C   UNL     1      -4.590  -3.108   2.949  0.00  0.00    +0.108 C 
BRANCH  22  23
ATOM     23  C   UNL     1      -3.804  -2.836   1.665  0.00  0.00    +0.052 C 
BRANCH  23  31
ATOM     24  C   UNL     1      -7.351   0.222  -1.459  0.00  0.00    +0.044 C 
ATOM     25  C   UNL     1      -6.806  -1.181  -1.385  0.00  0.00    -0.050 A 
ATOM     26  C   UNL     1      -7.230  -2.128  -2.327  0.00  0.00    +0.005 A 
ATOM     27  C   UNL     1      -6.789  -3.404  -2.328  0.00  0.00    +0.026 A 
ATOM     28  C   UNL     1      -5.856  -3.842  -1.348  0.00  0.00    +0.043 A 
ATOM     29  N   UNL     1      -5.289  -5.006  -1.141  0.00  0.00    -0.380 N 
ATOM     30  C   UNL     1      -4.401  -4.895   0.021  0.00  0.00    +0.144 C 
ATOM     31  C   UNL     1      -4.518  -3.463   0.496  0.00  0.00    -0.040 C 
ATOM     32  C   UNL     1      -5.393  -2.861  -0.341  0.00  0.00    -0.001 A 
ATOM     33  C   UNL     1      -5.917  -1.492  -0.414  0.00  0.00    +0.013 A 
ATOM     34  H   UNL     1      -5.433  -5.808  -1.669  0.00  0.00    +0.160 HD
ENDBRANCH  23  31
ENDBRANCH  22  23
ENDBRANCH   1  22
TORSDOF 5
