REMARK  Name = ZINC12273575
REMARK  11 active torsions:
REMARK  status: ('A' for Active; 'I' for Inactive)
REMARK    1  A    between atoms: C_1  and  C_2
REMARK    2  A    between atoms: C_2  and  C_4
REMARK    3  A    between atoms: C_2  and  O_20
REMARK    4  A    between atoms: N_6  and  C_7
REMARK    5  A    between atoms: C_10  and  N_17
REMARK    6  A    between atoms: C_12  and  C_13
REMARK    7  A    between atoms: O_20  and  C_21
REMARK    8  A    between atoms: C_21  and  C_23
REMARK    9  A    between atoms: C_23  and  C_24
REMARK   10  A    between atoms: C_24  and  C_25
REMARK   11  A    between atoms: C_28  and  C_30
REMARK                            x       y       z     vdW  Elec       q    Type
REMARK                         _______ _______ _______ _____ _____    ______ ____
ROOT
ATOM      1  C   UNL     1       4.439  -0.585   1.487  0.00  0.00    +0.062 C 
ATOM      2  C   UNL     1       3.744  -0.963   0.178  0.00  0.00    +0.259 C 
ENDROOT
BRANCH   2   3
ATOM      3  C   UNL     1       2.426  -0.238   0.080  0.00  0.00    +0.258 C 
ATOM      4  O   UNL     1       1.388  -0.864   0.087  0.00  0.00    -0.271 OA
ATOM      5  N   UNL     1       2.403   1.107  -0.015  0.00  0.00    -0.282 N 
ATOM      6  H   UNL     1       3.232   1.601  -0.101  0.00  0.00    +0.155 HD
BRANCH   5   7
ATOM      7  C   UNL     1       1.181   1.788   0.011  0.00  0.00    +0.045 A 
ATOM      8  C   UNL     1       0.076   1.214   0.627  0.00  0.00    +0.026 A 
ATOM      9  C   UNL     1      -1.129   1.887   0.646  0.00  0.00    +0.034 A 
ATOM     10  C   UNL     1      -1.235   3.136   0.063  0.00  0.00    +0.127 A 
ATOM     11  C   UNL     1      -0.137   3.711  -0.550  0.00  0.00    +0.047 A 
ATOM     12  C   UNL     1       1.070   3.041  -0.578  0.00  0.00    +0.078 A 
BRANCH  12  13
ATOM     13  C   UNL     1       2.266   3.668  -1.247  0.00  0.00    +0.419 C 
ATOM     14  F   UNL     1       1.910   4.919  -1.762  0.00  0.00    -0.166 F 
ATOM     15  F   UNL     1       3.295   3.825  -0.311  0.00  0.00    -0.166 F 
ATOM     16  F   UNL     1       2.705   2.842  -2.288  0.00  0.00    -0.166 F 
ENDBRANCH  12  13
BRANCH  10  17
ATOM     17  N   UNL     1      -2.527   3.857   0.090  0.00  0.00    +0.056 N 
ATOM     18  O   UNL     1      -2.623   4.955  -0.427  0.00  0.00    -0.126 OA
ATOM     19  O   UNL     1      -3.495   3.352   0.630  0.00  0.00    -0.126 OA
ENDBRANCH  10  17
ENDBRANCH   5   7
ENDBRANCH   2   3
BRANCH   2  20
ATOM     20  O   UNL     1       3.511  -2.396   0.150  0.00  0.00    -0.452 OA
BRANCH  20  21
ATOM     21  C   UNL     1       4.479  -3.160  -0.380  0.00  0.00    +0.308 C 
ATOM     22  O   UNL     1       5.487  -2.649  -0.806  0.00  0.00    -0.251 OA
BRANCH  21  23
ATOM     23  C   UNL     1       4.307  -4.656  -0.443  0.00  0.00    +0.130 C 
BRANCH  23  24
ATOM     24  C   UNL     1       5.545  -5.285  -1.087  0.00  0.00    +0.107 C 
BRANCH  24  25
ATOM     25  C   UNL     1       5.374  -6.780  -1.150  0.00  0.00    +0.197 A 
ATOM     26  N   UNL     1       4.837  -7.440  -2.139  0.00  0.00    -0.221 NA
ATOM     27  C   UNL     1       4.853  -8.749  -1.847  0.00  0.00    +0.161 A 
ATOM     28  C   UNL     1       5.427  -8.889  -0.625  0.00  0.00    +0.158 A 
ATOM     29  O   UNL     1       5.754  -7.648  -0.202  0.00  0.00    -0.440 OA
BRANCH  28  30
ATOM     30  C   UNL     1       5.655 -10.156   0.102  0.00  0.00    +0.054 A 
ATOM     31  C   UNL     1       6.913 -10.441   0.635  0.00  0.00    +0.014 A 
ATOM     32  C   UNL     1       7.120 -11.625   1.312  0.00  0.00    +0.001 A 
ATOM     33  C   UNL     1       6.084 -12.530   1.464  0.00  0.00    +0.003 A 
ATOM     34  C   UNL     1       4.834 -12.255   0.940  0.00  0.00    +0.039 A 
ATOM     35  C   UNL     1       4.611 -11.070   0.263  0.00  0.00    +0.134 A 
ATOM     36  F   UNL     1       3.389 -10.800  -0.244  0.00  0.00    -0.205 F 
ENDBRANCH  28  30
ENDBRANCH  24  25
ENDBRANCH  23  24
ENDBRANCH  21  23
ENDBRANCH  20  21
ENDBRANCH   2  20
TORSDOF 10
