REMARK  Name = ZINC34758648
REMARK  11 active torsions:
REMARK  status: ('A' for Active; 'I' for Inactive)
REMARK    1  A    between atoms: C_1  and  C_2
REMARK    2  A    between atoms: C_2  and  C_3
REMARK    3  A    between atoms: C_3  and  C_4
REMARK    4  A    between atoms: C_4  and  S_5
REMARK    5  A    between atoms: S_5  and  C_6
REMARK    6  A    between atoms: C_10  and  C_16
REMARK    7  A    between atoms: C_11  and  C_15
REMARK    8  A    between atoms: N_20  and  C_23
REMARK    9  A    between atoms: C_23  and  C_24
REMARK   10  A    between atoms: C_27  and  C_31
REMARK   11  A    between atoms: C_29  and  C_30
REMARK                            x       y       z     vdW  Elec       q    Type
REMARK                         _______ _______ _______ _____ _____    ______ ____
ROOT
ATOM      1  C   UNL     1       0.237  -5.035  -2.861  0.00  0.00    +0.191 A 
ATOM      2  N   UNL     1       0.839  -5.707  -3.836  0.00  0.00    -0.206 NA
ATOM      3  C   UNL     1       2.123  -6.018  -3.786  0.00  0.00    +0.134 A 
ATOM      4  C   UNL     1       2.892  -5.623  -2.656  0.00  0.00    +0.051 A 
ATOM      5  C   UNL     1       4.300  -5.840  -2.370  0.00  0.00    -0.028 A 
ATOM      6  C   UNL     1       4.816  -5.371  -1.225  0.00  0.00    -0.008 A 
ATOM      7  S   UNL     1       3.425  -4.588  -0.431  0.00  0.00    -0.073 S 
ATOM      8  C   UNL     1       2.188  -4.912  -1.660  0.00  0.00    +0.115 A 
ATOM      9  N   UNL     1       0.904  -4.637  -1.787  0.00  0.00    -0.215 NA
ATOM     10  C   UNL     1       6.234  -5.480  -0.728  0.00  0.00    +0.052 C 
ATOM     11  C   UNL     1       5.170  -6.586  -3.349  0.00  0.00    +0.045 C 
ATOM     12  N   UNL     1       2.713  -6.719  -4.822  0.00  0.00    -0.318 N 
ATOM     13  C   UNL     1       2.615  -8.185  -4.894  0.00  0.00    +0.088 C 
ATOM     14  C   UNL     1       2.138  -8.571  -6.298  0.00  0.00    -0.059 C 
ATOM     15  N   UNL     1       3.030  -7.973  -7.299  0.00  0.00    +0.384 N 
ATOM     16  C   UNL     1       2.938  -6.509  -7.239  0.00  0.00    -0.059 C 
ATOM     17  C   UNL     1       3.450  -6.020  -5.885  0.00  0.00    +0.088 C 
ATOM     18  H   UNL     1       3.980  -8.257  -7.113  0.00  0.00    -0.081 HD
ENDROOT
BRANCH   1  19
ATOM     19  S   UNL     1      -1.479  -4.660  -3.002  0.00  0.00    -0.086 S 
BRANCH  19  20
ATOM     20  C   UNL     1      -1.855  -3.748  -1.479  0.00  0.00    +0.077 C 
BRANCH  20  21
ATOM     21  C   UNL     1      -3.334  -3.356  -1.472  0.00  0.00    +0.011 C 
BRANCH  21  23
ATOM     22  C   UNL     1      -5.130  -2.194  -0.180  0.00  0.00    +0.004 C 
ATOM     23  C   UNL     1      -3.651  -2.587  -0.188  0.00  0.00    -0.003 C 
ENDBRANCH  21  23
ENDBRANCH  20  21
ENDBRANCH  19  20
ENDBRANCH   1  19
BRANCH  15  24
ATOM     24  C   UNL     1       2.638  -8.432  -8.638  0.00  0.00    -0.043 C 
BRANCH  24  25
ATOM     25  C   UNL     1       3.626  -7.919  -9.654  0.00  0.00    -0.061 A 
ATOM     26  C   UNL     1       3.323  -6.802 -10.410  0.00  0.00    +0.002 A 
ATOM     27  C   UNL     1       4.229  -6.331 -11.342  0.00  0.00    +0.003 A 
ATOM     28  C   UNL     1       5.438  -6.976 -11.517  0.00  0.00    -0.050 A 
ATOM     29  C   UNL     1       5.742  -8.092 -10.761  0.00  0.00    +0.007 A 
ATOM     30  C   UNL     1       4.838  -8.561  -9.826  0.00  0.00    -0.049 A 
ATOM     31  C   UNL     1       5.171  -9.775  -8.998  0.00  0.00    +0.044 C 
ATOM     32  C   UNL     1       6.426  -6.464 -12.534  0.00  0.00    +0.044 C 
ENDBRANCH  24  25
ENDBRANCH  15  24
TORSDOF 6
