REMARK  Name = ZINC09877312
REMARK  8 active torsions:
REMARK  status: ('A' for Active; 'I' for Inactive)
REMARK    1  A    between atoms: C_4  and  N_7
REMARK    2  A    between atoms: C_8  and  C_26
REMARK    3  A    between atoms: C_11  and  S_12
REMARK    4  A    between atoms: S_12  and  C_13
REMARK    5  A    between atoms: C_13  and  C_14
REMARK    6  A    between atoms: N_19  and  C_20
REMARK    7  A    between atoms: C_20  and  C_21
REMARK    8  A    between atoms: C_26  and  N_58
REMARK                            x       y       z     vdW  Elec       q    Type
REMARK                         _______ _______ _______ _____ _____    ______ ____
ROOT
ATOM      1  N   UNL     1      -0.017   1.398   0.010  0.00  0.00    -0.276 N 
ATOM      2  C   UNL     1      -1.119   2.211   0.019  0.00  0.00    +0.122 A 
ATOM      3  N   UNL     1      -0.693   3.442   0.027  0.00  0.00    -0.135 NA
ATOM      4  N   UNL     1       0.592   3.466   0.015  0.00  0.00    -0.122 NA
ATOM      5  C   UNL     1       1.062   2.240   0.004  0.00  0.00    +0.197 A 
ENDROOT
BRANCH   1   9
ATOM      6  C   UNL     1       0.040  -2.771  -0.013  0.00  0.00    +0.000 A 
ATOM      7  C   UNL     1       0.546  -2.079   1.072  0.00  0.00    +0.002 A 
ATOM      8  C   UNL     1       0.529  -0.698   1.082  0.00  0.00    +0.026 A 
ATOM      9  C   UNL     1       0.002  -0.004   0.002  0.00  0.00    +0.050 A 
ATOM     10  C   UNL     1      -0.511  -0.701  -1.083  0.00  0.00    +0.026 A 
ATOM     11  C   UNL     1      -0.485  -2.082  -1.091  0.00  0.00    +0.002 A 
ENDBRANCH   1   9
BRANCH   5  12
ATOM     12  S   UNL     1       2.759   1.768  -0.015  0.00  0.00    -0.076 S 
BRANCH  12  13
ATOM     13  C   UNL     1       3.539   3.401  -0.013  0.00  0.00    +0.173 C 
BRANCH  13  14
ATOM     14  C   UNL     1       5.038   3.241  -0.029  0.00  0.00    +0.231 C 
ATOM     15  O   UNL     1       5.530   2.133  -0.039  0.00  0.00    -0.274 OA
ATOM     16  N   UNL     1       5.832   4.331  -0.030  0.00  0.00    -0.239 N 
ATOM     17  C   UNL     1       7.172   4.188  -0.044  0.00  0.00    +0.306 C 
ATOM     18  O   UNL     1       7.665   3.078  -0.055  0.00  0.00    -0.252 OA
ATOM     19  N   UNL     1       7.965   5.278  -0.046  0.00  0.00    -0.292 N 
ATOM     20  H   UNL     1       5.438   5.217  -0.022  0.00  0.00    +0.159 HD
ATOM     21  H   UNL     1       7.572   6.164  -0.037  0.00  0.00    +0.151 HD
BRANCH  19  22
ATOM     22  C   UNL     1       9.422   5.123  -0.060  0.00  0.00    +0.180 C 
BRANCH  22  23
ATOM     23  C   UNL     1      10.072   6.483  -0.059  0.00  0.00    +0.122 A 
ATOM     24  C   UNL     1      10.421   7.186   1.032  0.00  0.00    +0.046 A 
ATOM     25  C   UNL     1      10.993   8.396   0.574  0.00  0.00    +0.041 A 
ATOM     26  C   UNL     1      10.959   8.358  -0.770  0.00  0.00    +0.195 A 
ATOM     27  O   UNL     1      10.405   7.195  -1.148  0.00  0.00    -0.466 OA
ENDBRANCH  22  23
ENDBRANCH  19  22
ENDBRANCH  13  14
ENDBRANCH  12  13
ENDBRANCH   5  12
BRANCH   2  28
ATOM     28  C   UNL     1      -2.559   1.764   0.021  0.00  0.00    -0.001 C 
BRANCH  28  34
ATOM     29  C   UNL     1      -2.309   0.518   2.082  0.00  0.00    -0.078 C 
ATOM     30  C   UNL     1      -2.709   0.482   3.559  0.00  0.00    -0.019 C 
ATOM     31  C   UNL     1      -4.222   0.274   3.668  0.00  0.00    -0.004 C 
ATOM     32  C   UNL     1      -4.939   1.399   2.916  0.00  0.00    -0.019 C 
ATOM     33  C   UNL     1      -4.475   1.409   1.458  0.00  0.00    -0.078 C 
ATOM     34  N   UNL     1      -3.014   1.637   1.421  0.00  0.00    +0.384 N 
ATOM     35  H   UNL     1      -2.800   2.507   1.922  0.00  0.00    -0.081 HD
ENDBRANCH  28  34
ENDBRANCH   2  28
TORSDOF 8
