REMARK  Name = ZINC35450470
REMARK  11 active torsions:
REMARK  status: ('A' for Active; 'I' for Inactive)
REMARK    1  A    between atoms: C_1  and  C_2
REMARK    2  A    between atoms: C_2  and  C_3
REMARK    3  A    between atoms: C_3  and  C_5
REMARK    4  A    between atoms: C_3  and  S_6
REMARK    5  A    between atoms: S_6  and  C_7
REMARK    6  A    between atoms: C_14  and  C_26
REMARK    7  A    between atoms: C_20  and  C_24
REMARK    8  A    between atoms: C_20  and  C_25
REMARK    9  A    between atoms: C_29  and  N_32
REMARK   10  A    between atoms: N_32  and  C_33
REMARK   11  A    between atoms: N_32  and  C_34
REMARK                            x       y       z     vdW  Elec       q    Type
REMARK                         _______ _______ _______ _____ _____    ______ ____
ROOT
ATOM      1  C   UNL     1       3.148  -0.486  -2.741  0.00  0.00    +0.171 A 
ATOM      2  N   UNL     1       2.337  -1.070  -3.599  0.00  0.00    -0.208 NA
ATOM      3  C   UNL     1       2.772  -1.469  -4.799  0.00  0.00    +0.135 A 
ATOM      4  C   UNL     1       4.094  -1.265  -5.155  0.00  0.00    +0.069 A 
ATOM      5  C   UNL     1       4.952  -0.646  -4.238  0.00  0.00    +0.258 A 
ATOM      6  O   UNL     1       6.125  -0.452  -4.517  0.00  0.00    -0.267 OA
ATOM      7  N   UNL     1       4.457  -0.261  -3.043  0.00  0.00    -0.302 N 
ATOM      8  C   UNL     1       4.603  -1.694  -6.499  0.00  0.00    +0.092 C 
ATOM      9  C   UNL     1       3.675  -2.692  -7.144  0.00  0.00    +0.024 C 
ATOM     10  C   UNL     1       2.402  -2.840  -6.719  0.00  0.00    +0.017 C 
ATOM     11  N   UNL     1       1.913  -2.087  -5.687  0.00  0.00    -0.302 N 
ATOM     12  C   UNL     1       1.479  -3.845  -7.365  0.00  0.00    +0.058 C 
ATOM     13  C   UNL     1       1.852  -4.011  -8.840  0.00  0.00    -0.023 C 
ATOM     14  C   UNL     1       3.313  -4.466  -8.921  0.00  0.00    +0.086 C 
ATOM     15  C   UNL     1       4.177  -3.464  -8.207  0.00  0.00    +0.162 C 
ATOM     16  O   UNL     1       5.332  -3.318  -8.554  0.00  0.00    -0.292 OA
ATOM     17  C   UNL     1       1.687  -2.675  -9.566  0.00  0.00    +0.011 C 
ATOM     18  C   UNL     1       0.948  -5.064  -9.484  0.00  0.00    +0.011 C 
ATOM     19  H   UNL     1       0.955  -1.985  -5.577  0.00  0.00    +0.153 HD
ATOM     20  H   UNL     1       5.036   0.172  -2.396  0.00  0.00    +0.171 HD
ENDROOT
BRANCH   8  21
ATOM     21  C   UNL     1       4.721  -0.485  -7.390  0.00  0.00    -0.035 A 
ATOM     22  C   UNL     1       3.602   0.277  -7.671  0.00  0.00    +0.006 A 
ATOM     23  C   UNL     1       3.707   1.386  -8.488  0.00  0.00    +0.023 A 
ATOM     24  C   UNL     1       4.939   1.736  -9.027  0.00  0.00    +0.029 A 
ATOM     25  C   UNL     1       6.061   0.968  -8.742  0.00  0.00    +0.023 A 
ATOM     26  C   UNL     1       5.950  -0.136  -7.920  0.00  0.00    +0.006 A 
BRANCH  24  27
ATOM     27  N   UNL     1       5.048   2.856  -9.853  0.00  0.00    -0.336 N 
ATOM     28  C   UNL     1       3.846   3.591 -10.255  0.00  0.00    +0.129 C 
ATOM     29  C   UNL     1       6.366   3.297 -10.319  0.00  0.00    +0.129 C 
ENDBRANCH  24  27
ENDBRANCH   8  21
BRANCH   1  30
ATOM     30  S   UNL     1       2.524   0.023  -1.173  0.00  0.00    -0.085 S 
BRANCH  30  31
ATOM     31  C   UNL     1       0.779  -0.468  -1.215  0.00  0.00    +0.051 C 
ATOM     32  C   UNL     1       0.679  -1.993  -1.286  0.00  0.00    +0.019 C 
BRANCH  31  34
ATOM     33  C   UNL     1       0.068   1.560   0.059  0.00  0.00    +0.005 C 
ATOM     34  C   UNL     1       0.078   0.030   0.051  0.00  0.00    +0.011 C 
ENDBRANCH  31  34
ENDBRANCH  30  31
ENDBRANCH   1  30
TORSDOF 5
