REMARK  Name = ZINC03325036
REMARK  7 active torsions:
REMARK  status: ('A' for Active; 'I' for Inactive)
REMARK    1  A    between atoms: C_1  and  C_2
REMARK    2  A    between atoms: C_7  and  N_8
REMARK    3  A    between atoms: C_21  and  S_22
REMARK    4  A    between atoms: S_22  and  C_23
REMARK    5  A    between atoms: C_23  and  C_24
REMARK    6  A    between atoms: N_26  and  C_27
REMARK    7  A    between atoms: C_29  and  N_34
REMARK                            x       y       z     vdW  Elec       q    Type
REMARK                         _______ _______ _______ _____ _____    ______ ____
ROOT
ATOM      1  N   UNL     1       0.025  -0.070   2.452  0.00  0.00    -0.245 N 
ATOM      2  C   UNL     1      -1.148   0.237   3.046  0.00  0.00    +0.268 A 
ATOM      3  O   UNL     1      -2.202  -0.089   2.535  0.00  0.00    -0.267 OA
ATOM      4  C   UNL     1      -1.131   0.973   4.323  0.00  0.00    +0.064 A 
ATOM      5  C   UNL     1      -2.313   1.314   4.977  0.00  0.00    +0.015 A 
ATOM      6  C   UNL     1      -2.257   2.003   6.171  0.00  0.00    +0.001 A 
ATOM      7  C   UNL     1      -1.034   2.355   6.719  0.00  0.00    +0.002 A 
ATOM      8  C   UNL     1       0.144   2.023   6.081  0.00  0.00    +0.027 A 
ATOM      9  C   UNL     1       0.108   1.331   4.880  0.00  0.00    +0.064 A 
ATOM     10  N   UNL     1       1.276   0.981   4.214  0.00  0.00    -0.255 N 
ATOM     11  C   UNL     1       1.232   0.292   3.030  0.00  0.00    +0.245 A 
ATOM     12  N   UNL     1       2.474   0.105   2.653  0.00  0.00    -0.109 NA
ATOM     13  N   UNL     1       3.280   0.620   3.512  0.00  0.00    -0.120 NA
ATOM     14  C   UNL     1       2.603   1.178   4.487  0.00  0.00    +0.198 A 
ENDROOT
BRANCH   1  21
ATOM     15  C   UNL     1      -0.030   1.432   0.035  0.00  0.00    +0.046 C 
ATOM     16  C   UNL     1      -0.004  -0.075   0.037  0.00  0.00    -0.026 A 
ATOM     17  C   UNL     1      -0.001  -0.768  -1.158  0.00  0.00    +0.005 A 
ATOM     18  C   UNL     1       0.023  -2.150  -1.158  0.00  0.00    +0.000 A 
ATOM     19  C   UNL     1       0.043  -2.844   0.038  0.00  0.00    +0.002 A 
ATOM     20  C   UNL     1       0.040  -2.158   1.237  0.00  0.00    +0.026 A 
ATOM     21  C   UNL     1       0.022  -0.769   1.240  0.00  0.00    +0.056 A 
ENDBRANCH   1  21
BRANCH  14  22
ATOM     22  S   UNL     1       3.274   2.006   5.890  0.00  0.00    -0.076 S 
BRANCH  22  23
ATOM     23  C   UNL     1       5.068   1.913   5.637  0.00  0.00    +0.173 C 
BRANCH  23  24
ATOM     24  C   UNL     1       5.772   2.594   6.783  0.00  0.00    +0.228 C 
ATOM     25  O   UNL     1       5.127   3.092   7.681  0.00  0.00    -0.275 OA
ATOM     26  N   UNL     1       7.118   2.649   6.809  0.00  0.00    -0.284 N 
ATOM     27  H   UNL     1       7.636   2.194   6.126  0.00  0.00    +0.155 HD
BRANCH  26  28
ATOM     28  C   UNL     1       7.770   3.361   7.822  0.00  0.00    +0.054 A 
ATOM     29  C   UNL     1       7.235   3.396   9.103  0.00  0.00    +0.057 A 
ATOM     30  C   UNL     1       7.881   4.099  10.101  0.00  0.00    +0.128 A 
ATOM     31  C   UNL     1       9.059   4.769   9.826  0.00  0.00    +0.034 A 
ATOM     32  C   UNL     1       9.595   4.737   8.552  0.00  0.00    +0.024 A 
ATOM     33  C   UNL     1       8.957   4.031   7.550  0.00  0.00    +0.062 A 
ATOM     34 CL   UNL     1       9.633   3.986   5.952  0.00  0.00    -0.082 Cl
BRANCH  30  35
ATOM     35  N   UNL     1       7.311   4.136  11.467  0.00  0.00    +0.056 N 
ATOM     36  O   UNL     1       6.281   3.551  11.708  0.00  0.00    -0.126 OA
ATOM     37  O   UNL     1       7.875   4.752  12.341  0.00  0.00    -0.126 OA
ENDBRANCH  30  35
ENDBRANCH  26  28
ENDBRANCH  23  24
ENDBRANCH  22  23
ENDBRANCH  14  22
TORSDOF 6
