REMARK  Name = ZINC36046320
REMARK  12 active torsions:
REMARK  status: ('A' for Active; 'I' for Inactive)
REMARK    1  A    between atoms: C_1  and  C_2
REMARK    2  A    between atoms: C_2  and  C_3
REMARK    3  A    between atoms: C_3  and  C_5
REMARK    4  A    between atoms: C_3  and  C_6
REMARK    5  A    between atoms: C_6  and  O_8
REMARK    6  A    between atoms: O_8  and  C_9
REMARK    7  A    between atoms: C_11  and  N_34
REMARK    8  A    between atoms: C_17  and  C_20
REMARK    9  A    between atoms: C_18  and  O_19
REMARK   10  A    between atoms: C_21  and  C_22
REMARK   11  A    between atoms: C_31  and  C_32
REMARK   12  A    between atoms: C_31  and  C_33
REMARK                            x       y       z     vdW  Elec       q    Type
REMARK                         _______ _______ _______ _____ _____    ______ ____
ROOT
ATOM      1  C   UNL     1      -2.322  -4.355   0.126  0.00  0.00    +0.210 C 
ATOM      2  C   UNL     1      -3.684  -4.771  -0.434  0.00  0.00    +0.015 C 
ATOM      3  C   UNL     1      -4.779  -4.293   0.485  0.00  0.00    +0.026 A 
ATOM      4  C   UNL     1      -4.514  -3.923   1.792  0.00  0.00    +0.127 A 
ATOM      5  C   UNL     1      -5.552  -3.489   2.620  0.00  0.00    +0.047 A 
ATOM      6  C   UNL     1      -6.840  -3.421   2.149  0.00  0.00    +0.015 A 
ATOM      7  C   UNL     1      -7.119  -3.790   0.827  0.00  0.00    +0.017 A 
ATOM      8  C   UNL     1      -6.075  -4.228  -0.004  0.00  0.00    +0.129 A 
ATOM      9  O   UNL     1      -3.257  -3.961   2.304  0.00  0.00    -0.482 OA
ATOM     10  C   UNL     1      -2.276  -4.735   1.611  0.00  0.00    +0.140 C 
ATOM     11  C   UNL     1      -2.586  -6.224   1.772  0.00  0.00    +0.059 C 
ATOM     12  C   UNL     1      -0.886  -4.433   2.177  0.00  0.00    +0.059 C 
ENDROOT
BRANCH   2  13
ATOM     13  N   UNL     1      -3.868  -4.176  -1.765  0.00  0.00    +0.387 N 
ATOM     14  C   UNL     1      -2.667  -4.411  -2.575  0.00  0.00    -0.078 C 
ATOM     15  C   UNL     1      -2.885  -3.864  -3.987  0.00  0.00    -0.019 C 
ATOM     16  C   UNL     1      -3.163  -2.360  -3.909  0.00  0.00    -0.004 C 
ATOM     17  C   UNL     1      -4.373  -2.121  -3.001  0.00  0.00    -0.019 C 
ATOM     18  C   UNL     1      -4.100  -2.733  -1.625  0.00  0.00    -0.078 C 
ATOM     19  H   UNL     1      -4.664  -4.601  -2.215  0.00  0.00    -0.081 HD
ENDBRANCH   2  13
BRANCH   8  20
ATOM     20  O   UNL     1      -6.335  -4.588  -1.286  0.00  0.00    -0.506 OA
ATOM     21  H   UNL     1      -6.625  -5.505  -1.386  0.00  0.00    +0.292 HD
ENDBRANCH   8  20
BRANCH   7  22
ATOM     22  C   UNL     1      -8.492  -3.720   0.314  0.00  0.00    +0.016 C 
ATOM     23  C   UNL     1      -9.493  -3.298   1.118  0.00  0.00    +0.068 C 
BRANCH  23  24
ATOM     24  C   UNL     1     -10.820  -3.230   0.622  0.00  0.00    +0.239 C 
ATOM     25  O   UNL     1     -11.075  -3.643  -0.494  0.00  0.00    -0.271 OA
ATOM     26  N   UNL     1     -11.799  -2.708   1.387  0.00  0.00    -0.298 N 
ATOM     27  C   UNL     1     -11.530  -2.300   2.773  0.00  0.00    +0.108 C 
ATOM     28  C   UNL     1     -11.977  -0.846   2.955  0.00  0.00    +0.019 C 
ATOM     29  C   UNL     1     -13.442  -0.711   2.534  0.00  0.00    +0.003 C 
ATOM     30  C   UNL     1     -13.585  -1.079   1.055  0.00  0.00    +0.019 C 
ATOM     31  C   UNL     1     -13.155  -2.529   0.849  0.00  0.00    +0.108 C 
ENDBRANCH  23  24
ENDBRANCH   7  22
BRANCH   1  32
ATOM     32  O   UNL     1      -2.154  -2.943  -0.016  0.00  0.00    -0.458 OA
BRANCH  32  33
ATOM     33  C   UNL     1      -0.899  -2.490  -0.163  0.00  0.00    +0.310 C 
ATOM     34  O   UNL     1       0.026  -3.266  -0.171  0.00  0.00    -0.251 OA
BRANCH  33  35
ATOM     35  C   UNL     1      -0.644  -1.012  -0.318  0.00  0.00    +0.094 C 
ATOM     36  C   UNL     1      -1.371  -0.497  -1.562  0.00  0.00    +0.019 C 
BRANCH  35  38
ATOM     37  C   UNL     1       1.128   0.739  -0.499  0.00  0.00    +0.004 C 
ATOM     38  C   UNL     1       0.858  -0.767  -0.467  0.00  0.00    +0.011 C 
ENDBRANCH  35  38
ENDBRANCH  33  35
ENDBRANCH  32  33
ENDBRANCH   1  32
TORSDOF 8
