REMARK  Name = ZINC13065279
REMARK  14 active torsions:
REMARK  status: ('A' for Active; 'I' for Inactive)
REMARK    1  A    between atoms: C_1  and  C_2
REMARK    2  A    between atoms: C_2  and  C_3
REMARK    3  A    between atoms: C_3  and  C_5
REMARK    4  A    between atoms: C_3  and  N_70
REMARK    5  A    between atoms: N_9  and  C_10
REMARK    6  A    between atoms: C_10  and  C_11
REMARK    7  A    between atoms: C_16  and  C_17
REMARK    8  A    between atoms: C_16  and  N_70
REMARK    9  A    between atoms: C_22  and  O_23
REMARK   10  A    between atoms: O_23  and  C_24
REMARK   11  A    between atoms: C_25  and  C_26
REMARK   12  A    between atoms: C_25  and  N_70
REMARK   13  A    between atoms: C_29  and  C_39
REMARK   14  A    between atoms: C_32  and  C_38
REMARK                            x       y       z     vdW  Elec       q    Type
REMARK                         _______ _______ _______ _____ _____    ______ ____
ROOT
ATOM      1  N   UNL     1      -2.958   0.460  -1.446  0.00  0.00    +0.392 N 
ATOM      2  H   UNL     1      -3.245  -0.358  -1.996  0.00  0.00    -0.080 HD
ENDROOT
BRANCH   1   3
ATOM      3  C   UNL     1      -4.166   1.146  -0.942  0.00  0.00    +0.003 C 
BRANCH   3   4
ATOM      4  C   UNL     1      -5.132   0.110  -0.428  0.00  0.00    +0.139 A 
ATOM      5  N   UNL     1      -5.455  -1.017  -1.013  0.00  0.00    -0.115 NA
ATOM      6  N   UNL     1      -6.306  -1.627  -0.261  0.00  0.00    -0.023 NA
ATOM      7  N   UNL     1      -6.539  -0.914   0.785  0.00  0.00    -0.044 NA
ATOM      8  N   UNL     1      -5.834   0.165   0.719  0.00  0.00    -0.223 N 
BRANCH   8   9
ATOM      9  C   UNL     1      -5.804   1.246   1.707  0.00  0.00    +0.221 C 
BRANCH   9  10
ATOM     10  C   UNL     1      -6.856   2.269   1.364  0.00  0.00    +0.126 A 
ATOM     11  C   UNL     1      -8.131   2.261   1.793  0.00  0.00    +0.046 A 
ATOM     12  C   UNL     1      -8.758   3.398   1.235  0.00  0.00    +0.041 A 
ATOM     13  C   UNL     1      -7.832   4.029   0.491  0.00  0.00    +0.195 A 
ATOM     14  O   UNL     1      -6.682   3.341   0.573  0.00  0.00    -0.466 OA
ENDBRANCH   9  10
ENDBRANCH   8   9
ENDBRANCH   3   4
BRANCH   3  16
ATOM     15  C   UNL     1      -5.215   0.957  -3.202  0.00  0.00    +0.002 C 
ATOM     16  C   UNL     1      -4.817   1.926  -2.087  0.00  0.00    -0.011 C 
ENDBRANCH   3  16
ENDBRANCH   1   3
BRANCH   1  17
ATOM     17  C   UNL     1      -2.124   0.008  -0.313  0.00  0.00    -0.038 C 
BRANCH  17  18
ATOM     18  C   UNL     1      -2.741  -1.234   0.276  0.00  0.00    -0.022 A 
ATOM     19  C   UNL     1      -3.349  -1.183   1.516  0.00  0.00    +0.005 A 
ATOM     20  C   UNL     1      -3.916  -2.322   2.056  0.00  0.00    +0.000 A 
ATOM     21  C   UNL     1      -3.877  -3.515   1.358  0.00  0.00    +0.004 A 
ATOM     22  C   UNL     1      -3.275  -3.570   0.116  0.00  0.00    +0.046 A 
ATOM     23  C   UNL     1      -2.700  -2.430  -0.426  0.00  0.00    +0.121 A 
BRANCH  23  24
ATOM     24  O   UNL     1      -2.103  -2.482  -1.646  0.00  0.00    -0.495 OA
ATOM     25  C   UNL     1      -2.000  -3.767  -2.263  0.00  0.00    +0.277 C 
ENDBRANCH  23  24
ENDBRANCH  17  18
ENDBRANCH   1  17
BRANCH   1  26
ATOM     26  C   UNL     1      -2.183   1.373  -2.312  0.00  0.00    -0.036 C 
BRANCH  26  27
ATOM     27  C   UNL     1      -1.058   0.600  -2.951  0.00  0.00    +0.001 A 
ATOM     28  C   UNL     1      -1.237   0.027  -4.167  0.00  0.00    +0.017 A 
ATOM     29  C   UNL     1      -0.123  -0.713  -4.763  0.00  0.00    +0.002 A 
ATOM     30  C   UNL     1      -0.246  -1.320  -6.017  0.00  0.00    -0.041 A 
ATOM     31  C   UNL     1       0.811  -2.007  -6.543  0.00  0.00    +0.004 A 
ATOM     32  C   UNL     1       2.006  -2.109  -5.844  0.00  0.00    +0.005 A 
ATOM     33  C   UNL     1       2.150  -1.519  -4.606  0.00  0.00    -0.026 A 
ATOM     34  C   UNL     1       1.087  -0.814  -4.051  0.00  0.00    +0.052 A 
ATOM     35  N   UNL     1       1.203  -0.213  -2.816  0.00  0.00    -0.322 N 
ATOM     36  H   UNL     1       2.038  -0.283  -2.326  0.00  0.00    +0.169 HD
ATOM     37  C   UNL     1       0.176   0.469  -2.279  0.00  0.00    +0.251 A 
ATOM     38  O   UNL     1       0.314   0.987  -1.184  0.00  0.00    -0.268 OA
ATOM     39  C   UNL     1       3.453  -1.637  -3.859  0.00  0.00    +0.046 C 
ATOM     40  C   UNL     1      -1.538  -1.216  -6.785  0.00  0.00    +0.044 C 
ENDBRANCH  26  27
ENDBRANCH   1  26
TORSDOF 10
