REMARK  Name = ZINC38547898
REMARK  10 active torsions:
REMARK  status: ('A' for Active; 'I' for Inactive)
REMARK    1  A    between atoms: C_1  and  C_2
REMARK    2  A    between atoms: C_2  and  C_3
REMARK    3  A    between atoms: C_5  and  C_16
REMARK    4  A    between atoms: C_6  and  N_8
REMARK    5  A    between atoms: C_9  and  C_11
REMARK    6  A    between atoms: C_16  and  C_18
REMARK    7  A    between atoms: C_16  and  N_28
REMARK    8  A    between atoms: C_21  and  O_24
REMARK    9  A    between atoms: O_24  and  C_25
REMARK   10  A    between atoms: C_33  and  C_35
REMARK                            x       y       z     vdW  Elec       q    Type
REMARK                         _______ _______ _______ _____ _____    ______ ____
ROOT
ATOM      1  C   UNL     1       3.955  -1.486  -2.740  0.00  0.00    +0.135 C 
ENDROOT
BRANCH   1   2
ATOM      2  N   UNL     1       4.761  -1.957  -1.611  0.00  0.00    -0.320 N 
ATOM      3  C   UNL     1       4.771  -3.307  -1.280  0.00  0.00    +0.097 A 
ATOM      4  C   UNL     1       3.958  -4.194  -1.979  0.00  0.00    +0.041 A 
ATOM      5  C   UNL     1       3.977  -5.535  -1.639  0.00  0.00    +0.005 A 
ATOM      6  C   UNL     1       4.813  -5.945  -0.609  0.00  0.00    +0.021 A 
ATOM      7  C   UNL     1       5.593  -5.011   0.042  0.00  0.00    +0.014 A 
ATOM      8  N   UNL     1       5.558  -3.739  -0.307  0.00  0.00    -0.347 N 
ATOM      9  C   UNL     1       6.501  -5.450   1.161  0.00  0.00    +0.063 C 
ATOM     10  H   UNL     1       5.287  -1.327  -1.094  0.00  0.00    +0.148 HD
ATOM     11  H   UNL     1       6.119  -3.103   0.164  0.00  0.00    +0.167 HD
ENDBRANCH   1   2
BRANCH   1  12
ATOM     12  C   UNL     1       4.554  -0.216  -3.288  0.00  0.00    -0.023 A 
ATOM     13  C   UNL     1       4.954   0.787  -2.425  0.00  0.00    +0.009 A 
ATOM     14  C   UNL     1       5.503   1.952  -2.925  0.00  0.00    +0.046 A 
ATOM     15  C   UNL     1       5.652   2.115  -4.295  0.00  0.00    +0.127 A 
ATOM     16  C   UNL     1       5.250   1.107  -5.159  0.00  0.00    +0.046 A 
ATOM     17  C   UNL     1       4.707  -0.058  -4.654  0.00  0.00    +0.009 A 
BRANCH  15  18
ATOM     18  O   UNL     1       6.191   3.260  -4.789  0.00  0.00    -0.434 OA
BRANCH  18  19
ATOM     19  C   UNL     1       6.315   3.359  -6.210  0.00  0.00    +0.541 C 
ATOM     20  F   UNL     1       7.133   2.325  -6.679  0.00  0.00    -0.166 F 
ATOM     21  F   UNL     1       5.049   3.255  -6.796  0.00  0.00    -0.166 F 
ENDBRANCH  18  19
ENDBRANCH  15  18
ENDBRANCH   1  12
BRANCH   1  24
ATOM     22  C   UNL     1       1.013  -0.664  -0.570  0.00  0.00    -0.008 A 
ATOM     23  C   UNL     1       2.290  -0.900  -0.955  0.00  0.00    +0.019 A 
ATOM     24  C   UNL     1       2.547  -1.217  -2.276  0.00  0.00    +0.006 A 
ATOM     25  C   UNL     1       1.504  -1.283  -3.150  0.00  0.00    +0.078 A 
ATOM     26  S   UNL     1       0.116  -0.897  -2.096  0.00  0.00    -0.078 S 
BRANCH  25  27
ATOM     27  N   UNL     1       1.517  -1.581  -4.514  0.00  0.00    -0.273 N 
ATOM     28  C   UNL     1       0.364  -1.595  -5.211  0.00  0.00    +0.284 C 
ATOM     29  O   UNL     1      -0.689  -1.348  -4.652  0.00  0.00    -0.266 OA
ATOM     30  H   UNL     1       2.356  -1.778  -4.959  0.00  0.00    +0.156 HD
BRANCH  28  31
ATOM     31  C   UNL     1       0.377  -1.908  -6.644  0.00  0.00    +0.189 A 
ATOM     32  C   UNL     1      -0.713  -1.952  -7.466  0.00  0.00    +0.054 A 
ATOM     33  C   UNL     1      -0.240  -2.287  -8.744  0.00  0.00    +0.042 A 
ATOM     34  C   UNL     1       1.100  -2.432  -8.648  0.00  0.00    +0.196 A 
ATOM     35  O   UNL     1       1.469  -2.198  -7.381  0.00  0.00    -0.458 OA
ENDBRANCH  28  31
ENDBRANCH  25  27
BRANCH  22  37
ATOM     36  C   UNL     1       0.466   1.218   0.949  0.00  0.00    +0.009 C 
ATOM     37  C   UNL     1       0.485  -0.304   0.794  0.00  0.00    +0.039 C 
ENDBRANCH  22  37
ENDBRANCH   1  24
TORSDOF 8
