REMARK  Name = ZINC03361000
REMARK  10 active torsions:
REMARK  status: ('A' for Active; 'I' for Inactive)
REMARK    1  A    between atoms: C_1  and  C_2
REMARK    2  A    between atoms: N_4  and  C_5
REMARK    3  A    between atoms: C_5  and  C_7
REMARK    4  A    between atoms: C_5  and  C_18
REMARK    5  A    between atoms: C_7  and  C_8
REMARK    6  A    between atoms: C_18  and  O_20
REMARK    7  A    between atoms: O_20  and  C_21
REMARK    8  A    between atoms: C_21  and  C_22
REMARK    9  A    between atoms: C_25  and  C_37
REMARK   10  A    between atoms: C_28  and  C_30
REMARK                            x       y       z     vdW  Elec       q    Type
REMARK                         _______ _______ _______ _____ _____    ______ ____
ROOT
ATOM      1  C   UNL     1       0.073  -4.292  -2.856  0.00  0.00    +0.329 C 
ENDROOT
BRANCH   1   2
ATOM      2  C   UNL     1      -0.270  -5.721  -3.192  0.00  0.00    +0.270 C 
ATOM      3  O   UNL     1      -1.038  -6.341  -2.488  0.00  0.00    -0.270 OA
ATOM      4  N   UNL     1       0.278  -6.309  -4.273  0.00  0.00    -0.205 N 
ATOM      5  C   UNL     1       0.049  -7.685  -4.744  0.00  0.00    +0.187 C 
ATOM      6  C   UNL     1       0.903  -7.815  -5.985  0.00  0.00    +0.030 C 
ATOM      7  C   UNL     1       1.522  -6.651  -6.165  0.00  0.00    +0.050 C 
ATOM      8  N   UNL     1       1.177  -5.734  -5.181  0.00  0.00    -0.261 N 
ATOM      9  H   UNL     1       1.512  -4.825  -5.129  0.00  0.00    +0.170 HD
BRANCH   7  10
ATOM     10  C   UNL     1       2.457  -6.367  -7.278  0.00  0.00    -0.003 A 
ATOM     11  C   UNL     1       2.734  -7.351  -8.227  0.00  0.00    +0.011 A 
ATOM     12  C   UNL     1       3.605  -7.081  -9.262  0.00  0.00    +0.020 A 
ATOM     13  C   UNL     1       4.204  -5.836  -9.360  0.00  0.00    +0.041 A 
ATOM     14  C   UNL     1       3.932  -4.856  -8.421  0.00  0.00    +0.020 A 
ATOM     15  C   UNL     1       3.058  -5.113  -7.384  0.00  0.00    +0.011 A 
ATOM     16 CL   UNL     1       5.300  -5.503 -10.665  0.00  0.00    -0.084 Cl
ENDBRANCH   7  10
BRANCH   5  17
ATOM     17  C   UNL     1       0.484  -8.678  -3.697  0.00  0.00    +0.131 A 
ATOM     18  C   UNL     1      -0.158  -9.816  -3.377  0.00  0.00    +0.047 A 
ATOM     19  C   UNL     1       0.595 -10.436  -2.353  0.00  0.00    +0.041 A 
ATOM     20  C   UNL     1       1.651  -9.640  -2.109  0.00  0.00    +0.195 A 
ATOM     21  O   UNL     1       1.582  -8.579  -2.931  0.00  0.00    -0.466 OA
ENDBRANCH   5  17
ENDBRANCH   1   2
BRANCH   1  22
ATOM     22  O   UNL     1      -0.628  -3.899  -1.675  0.00  0.00    -0.454 OA
BRANCH  22  23
ATOM     23  C   UNL     1      -0.431  -2.645  -1.239  0.00  0.00    +0.328 C 
ATOM     24  O   UNL     1       0.312  -1.905  -1.840  0.00  0.00    -0.249 OA
BRANCH  23  25
ATOM     25  C   UNL     1      -1.136  -2.159   0.001  0.00  0.00    +0.186 C 
BRANCH  25  29
ATOM     26  C   UNL     1      -0.018   1.503   0.010  0.00  0.00    +0.109 C 
ATOM     27  C   UNL     1       0.002  -0.004   0.002  0.00  0.00    +0.211 C 
ATOM     28  O   UNL     1       1.060  -0.596  -0.011  0.00  0.00    -0.276 OA
ATOM     29  N   UNL     1      -1.156  -0.694   0.009  0.00  0.00    -0.302 N 
ATOM     30  H   UNL     1      -2.002  -0.220   0.020  0.00  0.00    +0.150 HD
ENDBRANCH  25  29
BRANCH  25  31
ATOM     31  C   UNL     1      -0.396  -2.665   1.241  0.00  0.00    +0.071 C 
BRANCH  31  32
ATOM     32  C   UNL     1      -1.168  -2.284   2.478  0.00  0.00    -0.020 A 
ATOM     33  C   UNL     1      -0.972  -1.195   3.237  0.00  0.00    +0.087 A 
ATOM     34  N   UNL     1      -1.862  -1.183   4.276  0.00  0.00    -0.360 N 
ATOM     35  H   UNL     1      -1.914  -0.496   4.958  0.00  0.00    +0.165 HD
ATOM     36  C   UNL     1      -2.674  -2.293   4.209  0.00  0.00    +0.047 A 
ATOM     37  C   UNL     1      -2.279  -3.028   3.076  0.00  0.00    +0.003 A 
ATOM     38  C   UNL     1      -2.938  -4.215   2.750  0.00  0.00    +0.010 A 
ATOM     39  C   UNL     1      -3.968  -4.655   3.533  0.00  0.00    +0.001 A 
ATOM     40  C   UNL     1      -4.364  -3.932   4.650  0.00  0.00    +0.002 A 
ATOM     41  C   UNL     1      -3.721  -2.763   4.994  0.00  0.00    +0.026 A 
ENDBRANCH  31  32
ENDBRANCH  25  31
ENDBRANCH  23  25
ENDBRANCH  22  23
ENDBRANCH   1  22
TORSDOF 9
