REMARK  Name = ZINC43548638
REMARK  13 active torsions:
REMARK  status: ('A' for Active; 'I' for Inactive)
REMARK    1  A    between atoms: C_1  and  C_2
REMARK    2  A    between atoms: C_2  and  C_3
REMARK    3  A    between atoms: C_3  and  C_4
REMARK    4  A    between atoms: C_4  and  N_5
REMARK    5  A    between atoms: C_12  and  C_35
REMARK    6  A    between atoms: C_15  and  C_25
REMARK    7  A    between atoms: C_17  and  O_24
REMARK    8  A    between atoms: C_21  and  C_23
REMARK    9  A    between atoms: C_25  and  C_27
REMARK   10  A    between atoms: C_25  and  C_28
REMARK   11  A    between atoms: N_30  and  C_31
REMARK   12  A    between atoms: N_30  and  C_32
REMARK   13  A    between atoms: C_32  and  C_33
REMARK                            x       y       z     vdW  Elec       q    Type
REMARK                         _______ _______ _______ _____ _____    ______ ____
ROOT
ATOM      1  N   UNL     1      -0.232  -2.279   4.047  0.00  0.00    -0.325 N 
ATOM      2  C   UNL     1       0.129  -3.613   3.936  0.00  0.00    +0.136 A 
ATOM      3  N   UNL     1       0.803  -4.352   4.789  0.00  0.00    -0.340 N 
ATOM      4  C   UNL     1       1.079  -5.632   4.547  0.00  0.00    +0.031 A 
ATOM      5  C   UNL     1       0.611  -6.101   3.364  0.00  0.00    +0.013 A 
ATOM      6  S   UNL     1      -0.197  -4.684   2.676  0.00  0.00    -0.059 S 
ATOM      7  C   UNL     1       0.756  -7.478   2.813  0.00  0.00    +0.051 C 
ATOM      8  C   UNL     1       1.819  -8.224   3.625  0.00  0.00    -0.022 C 
ATOM      9  C   UNL     1       3.217  -7.729   3.260  0.00  0.00    +0.008 C 
ATOM     10  C   UNL     1       4.254  -8.547   4.036  0.00  0.00    +0.007 C 
ATOM     11  C   UNL     1       4.010  -8.402   5.538  0.00  0.00    +0.029 C 
ATOM     12  C   UNL     1       2.596  -8.874   5.887  0.00  0.00    +0.123 C 
ATOM     13  C   UNL     1       1.584  -8.003   5.123  0.00  0.00    +0.033 C 
ATOM     14  C   UNL     1       1.857  -6.538   5.487  0.00  0.00    +0.039 C 
ATOM     15  C   UNL     1       1.413  -6.280   6.929  0.00  0.00    +0.014 C 
ATOM     16  C   UNL     1       1.733  -9.720   3.316  0.00  0.00    +0.012 C 
ATOM     17  H   UNL     1       0.022  -1.772   4.835  0.00  0.00    +0.148 HD
ATOM     18  H   UNL     1       1.108  -3.953   5.619  0.00  0.00    +0.167 HD
ENDROOT
BRANCH  12  19
ATOM     19  O   UNL     1       2.380  -8.744   7.294  0.00  0.00    -0.391 OA
ATOM     20  H   UNL     1       3.033  -9.207   7.836  0.00  0.00    +0.210 HD
ENDBRANCH  12  19
BRANCH  11  21
ATOM     21  C   UNL     1       5.028  -9.250   6.302  0.00  0.00    +0.078 C 
ATOM     22  C   UNL     1       6.444  -8.847   5.883  0.00  0.00    +0.017 C 
BRANCH  21  23
ATOM     23  C   UNL     1       4.807 -10.707   5.987  0.00  0.00    +0.219 C 
ATOM     24  O   UNL     1       4.142 -11.025   5.023  0.00  0.00    -0.275 OA
ATOM     25  N   UNL     1       5.348 -11.657   6.775  0.00  0.00    -0.293 N 
ATOM     26  C   UNL     1       6.098 -11.275   7.974  0.00  0.00    +0.133 C 
BRANCH  25  27
ATOM     27  C   UNL     1       5.187 -13.072   6.432  0.00  0.00    +0.196 C 
BRANCH  27  28
ATOM     28  C   UNL     1       6.302 -13.499   5.571  0.00  0.00    -0.086 C 
ATOM     29  C   UNL     1       7.191 -13.840   4.885  0.00  0.00    +0.005 C 
ENDBRANCH  27  28
ENDBRANCH  25  27
ENDBRANCH  21  23
ENDBRANCH  11  21
BRANCH   1  30
ATOM     30  C   UNL     1      -0.997  -1.635   2.977  0.00  0.00    +0.103 C 
BRANCH  30  31
ATOM     31  C   UNL     1      -1.261  -0.174   3.347  0.00  0.00    +0.018 C 
BRANCH  31  33
ATOM     32  C   UNL     1      -2.324   1.960   2.599  0.00  0.00    +0.004 C 
ATOM     33  C   UNL     1      -2.060   0.499   2.229  0.00  0.00    -0.002 C 
ENDBRANCH  31  33
ENDBRANCH  30  31
ENDBRANCH   1  30
TORSDOF 8
