REMARK  Name = ZINC45870196
REMARK  12 active torsions:
REMARK  status: ('A' for Active; 'I' for Inactive)
REMARK    1  A    between atoms: C_1  and  C_2
REMARK    2  A    between atoms: C_3  and  C_32
REMARK    3  A    between atoms: C_4  and  C_31
REMARK    4  A    between atoms: C_5  and  S_10
REMARK    5  A    between atoms: C_6  and  C_9
REMARK    6  A    between atoms: C_7  and  C_8
REMARK    7  A    between atoms: S_10  and  N_13
REMARK    8  A    between atoms: N_13  and  C_14
REMARK    9  A    between atoms: C_14  and  C_15
REMARK   10  A    between atoms: C_15  and  C_16
REMARK   11  A    between atoms: N_18  and  C_19
REMARK   12  A    between atoms: C_19  and  C_20
REMARK                            x       y       z     vdW  Elec       q    Type
REMARK                         _______ _______ _______ _____ _____    ______ ____
ROOT
ATOM      1  C   UNL     1       2.237  -6.463   1.343  0.00  0.00    +0.112 C 
ENDROOT
BRANCH   1   2
ATOM      2  C   UNL     1       3.107  -6.400   2.572  0.00  0.00    +0.215 C 
ATOM      3  O   UNL     1       2.979  -5.487   3.360  0.00  0.00    -0.276 OA
ATOM      4  N   UNL     1       4.028  -7.359   2.796  0.00  0.00    -0.311 N 
ATOM      5  H   UNL     1       4.130  -8.089   2.166  0.00  0.00    +0.149 HD
BRANCH   4   6
ATOM      6  C   UNL     1       4.873  -7.298   3.990  0.00  0.00    +0.139 C 
BRANCH   6   7
ATOM      7  C   UNL     1       5.810  -8.479   4.003  0.00  0.00    -0.026 A 
ATOM      8  C   UNL     1       5.440  -9.672   4.609  0.00  0.00    +0.023 A 
ATOM      9  C   UNL     1       6.321 -10.735   4.603  0.00  0.00    +0.084 A 
ATOM     10  N   UNL     1       7.505 -10.629   4.030  0.00  0.00    -0.350 N 
ATOM     11  C   UNL     1       7.895  -9.509   3.443  0.00  0.00    +0.099 A 
ATOM     12  C   UNL     1       7.055  -8.400   3.406  0.00  0.00    +0.047 A 
ATOM     13  N   UNL     1       9.151  -9.441   2.852  0.00  0.00    -0.317 N 
ATOM     14  C   UNL     1       9.717  -8.267   2.173  0.00  0.00    +0.106 C 
ATOM     15  C   UNL     1      11.115  -8.665   1.656  0.00  0.00    +0.020 C 
ATOM     16  C   UNL     1      11.029 -10.212   1.579  0.00  0.00    +0.020 C 
ATOM     17  C   UNL     1      10.140 -10.534   2.809  0.00  0.00    +0.106 C 
ATOM     18  H   UNL     1       8.105 -11.392   4.040  0.00  0.00    +0.166 HD
ENDBRANCH   6   7
ENDBRANCH   4   6
ENDBRANCH   1   2
BRANCH   1  19
ATOM     19  C   UNL     1       1.286  -5.264   1.330  0.00  0.00    +0.115 C 
BRANCH  19  20
ATOM     20  N   UNL     1       0.440  -5.325   0.136  0.00  0.00    -0.189 NA
ATOM     21  H   UNL     1       0.677  -5.915  -0.597  0.00  0.00    +0.148 HD
BRANCH  20  22
ATOM     22  S   UNL     1      -0.920  -4.386   0.036  0.00  0.00    +0.059 S 
ATOM     23  O   UNL     1      -1.632  -4.571   1.252  0.00  0.00    -0.153 OA
ATOM     24  O   UNL     1      -1.501  -4.646  -1.234  0.00  0.00    -0.153 OA
BRANCH  22  29
ATOM     25  C   UNL     1       0.891   1.369  -0.043  0.00  0.00    +0.044 C 
ATOM     26  C   UNL     1       0.439  -0.068  -0.024  0.00  0.00    -0.044 A 
ATOM     27  C   UNL     1       0.110  -0.673   1.175  0.00  0.00    -0.043 A 
ATOM     28  C   UNL     1      -0.305  -1.991   1.193  0.00  0.00    -0.021 A 
ATOM     29  C   UNL     1      -0.392  -2.705   0.013  0.00  0.00    +0.112 A 
ATOM     30  C   UNL     1      -0.064  -2.100  -1.186  0.00  0.00    -0.021 A 
ATOM     31  C   UNL     1       0.347  -0.780  -1.205  0.00  0.00    -0.043 A 
ATOM     32  C   UNL     1       0.699  -0.119  -2.512  0.00  0.00    +0.044 C 
ATOM     33  C   UNL     1      -0.159  -2.878  -2.474  0.00  0.00    +0.046 C 
ATOM     34  C   UNL     1      -0.662  -2.651   2.500  0.00  0.00    +0.046 C 
ATOM     35  C   UNL     1       0.205   0.105   2.463  0.00  0.00    +0.044 C 
ENDBRANCH  22  29
ENDBRANCH  20  22
ENDBRANCH  19  20
ENDBRANCH   1  19
TORSDOF 7
