REMARK  Name = ZINC35576224
REMARK  5 active torsions:
REMARK  status: ('A' for Active; 'I' for Inactive)
REMARK    1  A    between atoms: C_3  and  N_27
REMARK    2  A    between atoms: C_6  and  C_7
REMARK    3  A    between atoms: C_8  and  C_13
REMARK    4  A    between atoms: N_15  and  C_16
REMARK    5  A    between atoms: C_18  and  C_23
REMARK                            x       y       z     vdW  Elec       q    Type
REMARK                         _______ _______ _______ _____ _____    ______ ____
ROOT
ATOM      1  C   UNL     1      -1.243  -0.884   0.150  0.00  0.00    +0.092 A 
ATOM      2  C   UNL     1      -1.433  -2.001  -0.671  0.00  0.00    +0.103 A 
ATOM      3  S   UNL     1      -3.137  -2.391  -0.307  0.00  0.00    -0.047 S 
ATOM      4  C   UNL     1      -3.433  -1.159   0.799  0.00  0.00    +0.157 A 
ATOM      5  N   UNL     1      -2.285  -0.514   0.868  0.00  0.00    -0.224 NA
ATOM      6  N   UNL     1      -4.601  -0.890   1.479  0.00  0.00    -0.337 N 
ATOM      7  H   UNL     1      -5.382  -1.448   1.341  0.00  0.00    +0.144 HD
ATOM      8  H   UNL     1      -4.642  -0.142   2.096  0.00  0.00    +0.144 HD
ENDROOT
BRANCH   1  14
ATOM      9  C   UNL     1       0.736   0.148  -0.960  0.00  0.00    +0.012 A 
ATOM     10  C   UNL     1       1.940   0.818  -0.894  0.00  0.00    +0.033 A 
ATOM     11  C   UNL     1       2.468   1.179   0.332  0.00  0.00    +0.126 A 
ATOM     12  C   UNL     1       1.793   0.871   1.500  0.00  0.00    +0.033 A 
ATOM     13  C   UNL     1       0.588   0.202   1.447  0.00  0.00    +0.012 A 
ATOM     14  C   UNL     1       0.050  -0.165   0.214  0.00  0.00    +0.002 A 
BRANCH  11  15
ATOM     15  N   UNL     1       3.761   1.897   0.396  0.00  0.00    +0.056 N 
ATOM     16  O   UNL     1       4.353   2.166  -0.623  0.00  0.00    -0.126 OA
ATOM     17  O   UNL     1       4.225   2.213   1.466  0.00  0.00    -0.126 OA
ENDBRANCH  11  15
ENDBRANCH   1  14
BRANCH   2  18
ATOM     18  C   UNL     1      -0.525  -2.643  -1.549  0.00  0.00    +0.257 C 
ATOM     19  O   UNL     1       0.641  -2.293  -1.582  0.00  0.00    -0.269 OA
ATOM     20  N   UNL     1      -0.952  -3.642  -2.347  0.00  0.00    -0.280 N 
ATOM     21  H   UNL     1      -1.895  -3.868  -2.380  0.00  0.00    +0.155 HD
BRANCH  20  22
ATOM     22  C   UNL     1      -0.035  -4.352  -3.130  0.00  0.00    +0.053 A 
ATOM     23  C   UNL     1       1.315  -4.339  -2.804  0.00  0.00    +0.037 A 
ATOM     24  C   UNL     1       2.217  -5.042  -3.578  0.00  0.00    +0.057 A 
ATOM     25  C   UNL     1       1.779  -5.758  -4.676  0.00  0.00    +0.014 A 
ATOM     26  C   UNL     1       0.435  -5.773  -5.005  0.00  0.00    +0.022 A 
ATOM     27  C   UNL     1      -0.474  -5.076  -4.231  0.00  0.00    +0.062 A 
ATOM     28 CL   UNL     1      -2.161  -5.101  -4.640  0.00  0.00    -0.082 Cl
BRANCH  24  29
ATOM     29  C   UNL     1       3.682  -5.028  -3.224  0.00  0.00    +0.417 C 
ATOM     30  F   UNL     1       3.962  -6.086  -2.353  0.00  0.00    -0.166 F 
ATOM     31  F   UNL     1       4.444  -5.170  -4.389  0.00  0.00    -0.166 F 
ATOM     32  F   UNL     1       4.001  -3.816  -2.603  0.00  0.00    -0.166 F 
ENDBRANCH  24  29
ENDBRANCH  20  22
ENDBRANCH   2  18
TORSDOF 5
