REMARK  Name = ZINC22000900
REMARK  13 active torsions:
REMARK  status: ('A' for Active; 'I' for Inactive)
REMARK    1  A    between atoms: C_1  and  C_2
REMARK    2  A    between atoms: C_7  and  C_9
REMARK    3  A    between atoms: C_7  and  C_10
REMARK    4  A    between atoms: N_13  and  C_17
REMARK    5  A    between atoms: C_17  and  C_18
REMARK    6  A    between atoms: C_18  and  O_20
REMARK    7  A    between atoms: O_20  and  C_21
REMARK    8  A    between atoms: C_21  and  C_22
REMARK    9  A    between atoms: N_24  and  C_25
REMARK   10  A    between atoms: C_30  and  C_31
REMARK   11  A    between atoms: C_31  and  C_32
REMARK   12  A    between atoms: C_31  and  C_33
REMARK   13  A    between atoms: C_31  and  C_34
REMARK                            x       y       z     vdW  Elec       q    Type
REMARK                         _______ _______ _______ _____ _____    ______ ____
ROOT
ATOM      1  C   UNL     1      -5.262  -3.497  -2.952  0.00  0.00    +0.326 C 
ATOM      2  O   UNL     1      -5.011  -2.315  -2.952  0.00  0.00    -0.249 OA
ENDROOT
BRANCH   1   3
ATOM      3  C   UNL     1      -4.256  -4.482  -2.416  0.00  0.00    +0.238 C 
BRANCH   3  15
ATOM      4  C   UNL     1      -0.416   0.990  -0.059  0.00  0.00    +0.007 C 
ATOM      5  C   UNL     1      -0.286  -0.494  -0.406  0.00  0.00    -0.011 C 
ATOM      6  C   UNL     1      -1.669  -1.149  -0.372  0.00  0.00    +0.038 C 
ATOM      7  C   UNL     1      -1.538  -2.633  -0.698  0.00  0.00    +0.113 C 
ATOM      8  C   UNL     1      -0.614  -3.325   0.298  0.00  0.00    +0.041 C 
ATOM      9  C   UNL     1       0.766  -2.662   0.262  0.00  0.00    -0.032 C 
ATOM     10  C   UNL     1       0.627  -1.179   0.613  0.00  0.00    +0.009 C 
ATOM     11  C   UNL     1       1.686  -3.342   1.277  0.00  0.00    +0.011 C 
ATOM     12  C   UNL     1       1.361  -2.800  -1.141  0.00  0.00    +0.011 C 
ATOM     13  C   UNL     1      -2.897  -3.294  -0.703  0.00  0.00    +0.247 C 
ATOM     14  O   UNL     1      -3.673  -3.385   0.223  0.00  0.00    -0.273 OA
ATOM     15  N   UNL     1      -3.065  -3.762  -1.958  0.00  0.00    -0.213 N 
ATOM     16  C   UNL     1      -2.007  -3.488  -2.732  0.00  0.00    +0.310 C 
ATOM     17  O   UNL     1      -1.925  -3.808  -3.901  0.00  0.00    -0.252 OA
ATOM     18  N   UNL     1      -1.046  -2.817  -2.069  0.00  0.00    -0.285 N 
ATOM     19  H   UNL     1      -0.196  -2.515  -2.426  0.00  0.00    +0.151 HD
ENDBRANCH   3  15
ENDBRANCH   1   3
BRANCH   1  20
ATOM     20  O   UNL     1      -6.439  -3.933  -3.430  0.00  0.00    -0.454 OA
BRANCH  20  21
ATOM     21  C   UNL     1      -7.345  -2.944  -3.923  0.00  0.00    +0.328 C 
BRANCH  21  22
ATOM     22  C   UNL     1      -8.601  -3.615  -4.415  0.00  0.00    +0.255 C 
ATOM     23  O   UNL     1      -8.710  -4.821  -4.350  0.00  0.00    -0.272 OA
ATOM     24  N   UNL     1      -9.605  -2.874  -4.927  0.00  0.00    -0.282 N 
ATOM     25  H   UNL     1      -9.482  -1.922  -5.067  0.00  0.00    +0.155 HD
BRANCH  24  26
ATOM     26  C   UNL     1     -10.822  -3.479  -5.257  0.00  0.00    +0.037 A 
ATOM     27  C   UNL     1     -11.131  -4.739  -4.761  0.00  0.00    +0.023 A 
ATOM     28  C   UNL     1     -12.334  -5.333  -5.089  0.00  0.00    +0.002 A 
ATOM     29  C   UNL     1     -13.231  -4.675  -5.910  0.00  0.00    +0.000 A 
ATOM     30  C   UNL     1     -12.927  -3.421  -6.406  0.00  0.00    +0.006 A 
ATOM     31  C   UNL     1     -11.728  -2.818  -6.076  0.00  0.00    -0.021 A 
BRANCH  31  32
ATOM     32  C   UNL     1     -11.400  -1.448  -6.611  0.00  0.00    -0.011 C 
ATOM     33  C   UNL     1     -12.484  -1.014  -7.600  0.00  0.00    +0.015 C 
ATOM     34  C   UNL     1     -11.338  -0.450  -5.453  0.00  0.00    +0.015 C 
ATOM     35  C   UNL     1     -10.047  -1.488  -7.323  0.00  0.00    +0.015 C 
ENDBRANCH  31  32
ENDBRANCH  24  26
ENDBRANCH  21  22
ENDBRANCH  20  21
ENDBRANCH   1  20
TORSDOF 7
