REMARK  Name = ZINC66122638
REMARK  10 active torsions:
REMARK  status: ('A' for Active; 'I' for Inactive)
REMARK    1  A    between atoms: C_1  and  C_2
REMARK    2  A    between atoms: C_2  and  C_3
REMARK    3  A    between atoms: C_2  and  C_4
REMARK    4  A    between atoms: C_9  and  N_10
REMARK    5  A    between atoms: N_10  and  C_11
REMARK    6  A    between atoms: C_11  and  N_13
REMARK    7  A    between atoms: N_13  and  N_14
REMARK    8  A    between atoms: C_15  and  C_17
REMARK    9  A    between atoms: C_17  and  C_18
REMARK   10  A    between atoms: C_18  and  C_19
REMARK                            x       y       z     vdW  Elec       q    Type
REMARK                         _______ _______ _______ _____ _____    ______ ____
ROOT
ATOM      1  C   UNL     1      -1.445  -2.043  -3.240  0.00  0.00    +0.151 C 
ATOM      2  S   UNL     1      -3.106  -2.426  -3.391  0.00  0.00    -0.017 S 
ENDROOT
BRANCH   1   3
ATOM      3  N   UNL     1      -0.991  -1.440  -2.124  0.00  0.00    -0.296 N 
ATOM      4  H   UNL     1      -0.062  -1.166  -2.064  0.00  0.00    +0.154 HD
BRANCH   3  10
ATOM      5  C   UNL     1      -1.474  -1.546   0.240  0.00  0.00    -0.024 A 
ATOM      6  C   UNL     1      -2.331  -1.312   1.298  0.00  0.00    +0.006 A 
ATOM      7  C   UNL     1      -3.573  -0.749   1.071  0.00  0.00    +0.000 A 
ATOM      8  C   UNL     1      -3.962  -0.418  -0.214  0.00  0.00    +0.002 A 
ATOM      9  C   UNL     1      -3.110  -0.650  -1.276  0.00  0.00    +0.023 A 
ATOM     10  C   UNL     1      -1.859  -1.209  -1.051  0.00  0.00    +0.036 A 
BRANCH   5  12
ATOM     11  C   UNL     1       0.698  -1.242   1.399  0.00  0.00    +0.012 C 
ATOM     12  C   UNL     1      -0.120  -2.160   0.488  0.00  0.00    +0.015 C 
ATOM     13  C   UNL     1      -0.294  -3.523   1.160  0.00  0.00    +0.012 C 
ENDBRANCH   5  12
ENDBRANCH   3  10
ENDBRANCH   1   3
BRANCH   1  14
ATOM     14  N   UNL     1      -0.591  -2.344  -4.239  0.00  0.00    -0.246 N 
ATOM     15  H   UNL     1      -0.917  -2.778  -5.042  0.00  0.00    +0.172 HD
BRANCH  14  16
ATOM     16  N   UNL     1       0.769  -2.030  -4.115  0.00  0.00    -0.235 N 
ATOM     17  C   UNL     1       1.623  -2.332  -5.113  0.00  0.00    +0.229 C 
ATOM     18  O   UNL     1       1.215  -2.874  -6.118  0.00  0.00    -0.274 OA
ATOM     19  H   UNL     1       1.096  -1.596  -3.312  0.00  0.00    +0.173 HD
BRANCH  17  20
ATOM     20  C   UNL     1       3.086  -1.994  -4.981  0.00  0.00    +0.100 C 
BRANCH  20  21
ATOM     21  C   UNL     1       3.829  -2.438  -6.243  0.00  0.00    +0.041 C 
BRANCH  21  22
ATOM     22  C   UNL     1       5.314  -2.096  -6.108  0.00  0.00    +0.119 C 
ATOM     23  C   UNL     1       6.049  -2.430  -7.424  0.00  0.00    +0.034 C 
ATOM     24  C   UNL     1       7.394  -3.014  -6.910  0.00  0.00    +0.031 C 
ATOM     25  C   UNL     1       6.929  -3.730  -5.617  0.00  0.00    +0.160 C 
ATOM     26  O   UNL     1       5.902  -2.885  -5.068  0.00  0.00    -0.377 OA
ENDBRANCH  21  22
ENDBRANCH  20  21
ENDBRANCH  17  20
ENDBRANCH  14  16
ENDBRANCH   1  14
TORSDOF 8
