REMARK  Name = ZINC12524175
REMARK  10 active torsions:
REMARK  status: ('A' for Active; 'I' for Inactive)
REMARK    1  A    between atoms: C_3  and  N_7
REMARK    2  A    between atoms: N_7  and  N_8
REMARK    3  A    between atoms: C_9  and  C_10
REMARK    4  A    between atoms: C_13  and  O_16
REMARK    5  A    between atoms: O_16  and  C_17
REMARK    6  A    between atoms: C_23  and  O_25
REMARK    7  A    between atoms: O_25  and  C_26
REMARK    8  A    between atoms: C_29  and  C_32
REMARK    9  A    between atoms: N_33  and  N_34
REMARK   10  A    between atoms: N_34  and  C_35
REMARK                            x       y       z     vdW  Elec       q    Type
REMARK                         _______ _______ _______ _____ _____    ______ ____
ROOT
ATOM      1  C   UNL     1      11.932  -0.271  -0.108  0.00  0.00    +0.377 C 
ATOM      2  O   UNL     1      12.108   0.358   1.165  0.00  0.00    -0.335 OA
ATOM      3  C   UNL     1      13.328   1.096   1.276  0.00  0.00    +0.192 C 
ATOM      4  C   UNL     1      14.509   0.157   1.013  0.00  0.00    +0.192 C 
ATOM      5  O   UNL     1      14.334  -0.472  -0.260  0.00  0.00    -0.335 OA
ATOM      6  C   UNL     1      13.113  -1.210  -0.372  0.00  0.00    +0.377 C 
ENDROOT
BRANCH   1   7
ATOM      7  O   UNL     1      10.716  -1.021  -0.106  0.00  0.00    -0.457 OA
BRANCH   7  11
ATOM      8  C   UNL     1       7.189   1.126  -0.060  0.00  0.00    -0.005 A 
ATOM      9  C   UNL     1       7.159  -0.271  -0.074  0.00  0.00    +0.013 A 
ATOM     10  C   UNL     1       8.338  -0.983  -0.089  0.00  0.00    +0.046 A 
ATOM     11  C   UNL     1       9.556  -0.315  -0.091  0.00  0.00    +0.124 A 
ATOM     12  C   UNL     1       9.590   1.074  -0.078  0.00  0.00    +0.046 A 
ATOM     13  C   UNL     1       8.416   1.795  -0.069  0.00  0.00    +0.013 A 
BRANCH   8  15
ATOM     14  N   UNL     1       4.790   1.270  -0.037  0.00  0.00    -0.189 NA
ATOM     15  C   UNL     1       5.929   1.893  -0.044  0.00  0.00    +0.138 C 
BRANCH  14  16
ATOM     16  N   UNL     1       3.594   1.998  -0.021  0.00  0.00    -0.221 N 
ATOM     17  H   UNL     1       3.616   2.968  -0.017  0.00  0.00    +0.176 HD
BRANCH  16  20
ATOM     18  C   UNL     1      -0.017   1.384   0.010  0.00  0.00    +0.005 A 
ATOM     19  C   UNL     1       1.190   2.061   0.002  0.00  0.00    +0.045 A 
ATOM     20  C   UNL     1       2.375   1.332  -0.013  0.00  0.00    +0.138 A 
ATOM     21  N   UNL     1       2.351   0.007  -0.021  0.00  0.00    -0.239 NA
ATOM     22  C   UNL     1       1.215  -0.664  -0.014  0.00  0.00    +0.113 A 
ATOM     23  C   UNL     1       0.002  -0.004   0.002  0.00  0.00    +0.020 A 
ENDBRANCH  16  20
ENDBRANCH  14  16
ENDBRANCH   8  15
ENDBRANCH   7  11
ENDBRANCH   1   7
BRANCH   6  24
ATOM     24  O   UNL     1      13.106  -2.268   0.588  0.00  0.00    -0.457 OA
BRANCH  24  25
ATOM     25  C   UNL     1      14.030  -3.251   0.429  0.00  0.00    +0.124 A 
ATOM     26  C   UNL     1      14.930  -3.191  -0.627  0.00  0.00    +0.046 A 
ATOM     27  C   UNL     1      15.870  -4.186  -0.792  0.00  0.00    +0.013 A 
ATOM     28  C   UNL     1      15.917  -5.255   0.107  0.00  0.00    -0.005 A 
ATOM     29  C   UNL     1      15.011  -5.310   1.169  0.00  0.00    +0.013 A 
ATOM     30  C   UNL     1      14.077  -4.309   1.328  0.00  0.00    +0.046 A 
BRANCH  28  31
ATOM     31  C   UNL     1      16.921  -6.321  -0.065  0.00  0.00    +0.138 C 
ATOM     32  N   UNL     1      16.963  -7.314   0.771  0.00  0.00    -0.189 NA
BRANCH  32  33
ATOM     33  N   UNL     1      17.916  -8.327   0.607  0.00  0.00    -0.221 N 
ATOM     34  H   UNL     1      18.545  -8.287  -0.131  0.00  0.00    +0.176 HD
BRANCH  33  35
ATOM     35  C   UNL     1      17.962  -9.389   1.502  0.00  0.00    +0.138 A 
ATOM     36  N   UNL     1      17.097  -9.440   2.505  0.00  0.00    -0.239 NA
ATOM     37  C   UNL     1      17.106 -10.431   3.376  0.00  0.00    +0.113 A 
ATOM     38  C   UNL     1      18.025 -11.457   3.272  0.00  0.00    +0.020 A 
ATOM     39  C   UNL     1      18.949 -11.441   2.236  0.00  0.00    +0.005 A 
ATOM     40  C   UNL     1      18.911 -10.392   1.334  0.00  0.00    +0.045 A 
ENDBRANCH  33  35
ENDBRANCH  32  33
ENDBRANCH  28  31
ENDBRANCH  24  25
ENDBRANCH   6  24
TORSDOF 10
