REMARK  Name = ZINC20983494
REMARK  8 active torsions:
REMARK  status: ('A' for Active; 'I' for Inactive)
REMARK    1  A    between atoms: C_1  and  C_2
REMARK    2  A    between atoms: C_5  and  C_32
REMARK    3  A    between atoms: C_6  and  O_8
REMARK    4  A    between atoms: O_8  and  C_9
REMARK    5  A    between atoms: C_9  and  C_11
REMARK    6  A    between atoms: C_9  and  C_12
REMARK    7  A    between atoms: N_14  and  C_15
REMARK    8  A    between atoms: N_23  and  C_26
REMARK                            x       y       z     vdW  Elec       q    Type
REMARK                         _______ _______ _______ _____ _____    ______ ____
ROOT
ATOM      1  C   UNL     1      -1.223   1.773   0.036  0.00  0.00    +0.034 A 
ATOM      2  C   UNL     1      -1.247   3.162   0.053  0.00  0.00    +0.024 A 
ATOM      3  C   UNL     1      -0.067   3.883   0.052  0.00  0.00    +0.015 A 
ATOM      4  C   UNL     1       1.150   3.215   0.040  0.00  0.00    +0.050 A 
ATOM      5  C   UNL     1       1.178   1.805   0.030  0.00  0.00    +0.051 A 
ATOM      6  C   UNL     1      -0.006   1.091   0.030  0.00  0.00    +0.037 A 
ATOM      7  C   UNL     1       2.609   1.430   0.019  0.00  0.00    +0.254 C 
ATOM      8  O   UNL     1       3.045   0.297   0.009  0.00  0.00    -0.270 OA
ATOM      9  N   UNL     1       3.345   2.556   0.024  0.00  0.00    -0.231 N 
ATOM     10  C   UNL     1       2.560   3.648   0.036  0.00  0.00    +0.254 C 
ATOM     11  O   UNL     1       2.948   4.799   0.043  0.00  0.00    -0.270 OA
ENDROOT
BRANCH   9  12
ATOM     12  C   UNL     1       4.810   2.588   0.016  0.00  0.00    +0.085 C 
ATOM     13  C   UNL     1       5.311   3.311   1.268  0.00  0.00    +0.023 C 
ATOM     14  C   UNL     1       6.840   3.345   1.260  0.00  0.00    +0.002 C 
ATOM     15  C   UNL     1       7.328   4.085   0.013  0.00  0.00    +0.000 C 
ATOM     16  C   UNL     1       6.827   3.362  -1.239  0.00  0.00    +0.002 C 
ATOM     17  C   UNL     1       5.297   3.328  -1.231  0.00  0.00    +0.023 C 
ENDBRANCH   9  12
BRANCH   1  20
ATOM     18  C   UNL     1      -3.486   1.523   0.710  0.00  0.00    +0.258 C 
ATOM     19  O   UNL     1      -3.429   2.600   1.264  0.00  0.00    -0.271 OA
ATOM     20  N   UNL     1      -2.420   1.058   0.030  0.00  0.00    -0.282 N 
ATOM     21  H   UNL     1      -2.493   0.113  -0.529  0.00  0.00    +0.155 HD
BRANCH  18  22
ATOM     22  C   UNL     1      -4.750   0.705   0.782  0.00  0.00    +0.256 C 
ATOM     23  C   UNL     1      -4.477  -0.588   1.554  0.00  0.00    +0.062 C 
BRANCH  22  24
ATOM     24  O   UNL     1      -5.765   1.455   1.453  0.00  0.00    -0.480 OA
BRANCH  24  30
ATOM     25  C   UNL     1      -8.963  -1.216  -1.089  0.00  0.00    +0.044 C 
ATOM     26  C   UNL     1      -8.653  -0.170  -0.050  0.00  0.00    -0.047 A 
ATOM     27  C   UNL     1      -9.682   0.456   0.629  0.00  0.00    +0.004 A 
ATOM     28  C   UNL     1      -9.401   1.416   1.583  0.00  0.00    +0.007 A 
ATOM     29  C   UNL     1      -8.090   1.752   1.861  0.00  0.00    -0.009 A 
ATOM     30  C   UNL     1      -7.055   1.125   1.181  0.00  0.00    +0.125 A 
ATOM     31  C   UNL     1      -7.340   0.166   0.220  0.00  0.00    +0.049 A 
ATOM     32  C   UNL     1      -7.784   2.799   2.901  0.00  0.00    +0.047 C 
ENDBRANCH  24  30
ENDBRANCH  22  24
ENDBRANCH  18  22
ENDBRANCH   1  20
TORSDOF 5
