REMARK  Name = ZINC39850292
REMARK  8 active torsions:
REMARK  status: ('A' for Active; 'I' for Inactive)
REMARK    1  A    between atoms: C_2  and  C_3
REMARK    2  A    between atoms: C_3  and  O_4
REMARK    3  A    between atoms: O_4  and  C_5
REMARK    4  A    between atoms: C_8  and  C_11
REMARK    5  A    between atoms: C_13  and  C_25
REMARK    6  A    between atoms: C_15  and  C_20
REMARK    7  A    between atoms: C_15  and  O_24
REMARK    8  A    between atoms: C_25  and  C_27
REMARK                            x       y       z     vdW  Elec       q    Type
REMARK                         _______ _______ _______ _____ _____    ______ ____
ROOT
ATOM      1  C   UNL     1      -5.446  -5.084  -1.601  0.00  0.00    +0.120 C 
ATOM      2  C   UNL     1      -6.497  -4.394  -2.478  0.00  0.00    +0.144 C 
ATOM      3  C   UNL     1      -6.075  -4.533  -3.945  0.00  0.00    +0.243 C 
ATOM      4  N   UNL     1      -5.885  -5.950  -4.257  0.00  0.00    -0.264 N 
ATOM      5  C   UNL     1      -5.506  -6.827  -3.316  0.00  0.00    +0.302 C 
ATOM      6  O   UNL     1      -5.351  -7.992  -3.631  0.00  0.00    -0.253 OA
ATOM      7  N   UNL     1      -5.290  -6.472  -2.039  0.00  0.00    -0.292 N 
ATOM      8  H   UNL     1      -6.036  -6.261  -5.164  0.00  0.00    +0.153 HD
ATOM      9  H   UNL     1      -5.026  -7.147  -1.395  0.00  0.00    +0.151 HD
ENDROOT
BRANCH   1  13
ATOM     10  C   UNL     1      -1.711  -3.041  -1.969  0.00  0.00    +0.121 A 
ATOM     11  C   UNL     1      -2.686  -2.557  -1.108  0.00  0.00    +0.046 A 
ATOM     12  C   UNL     1      -3.892  -3.219  -0.991  0.00  0.00    +0.009 A 
ATOM     13  C   UNL     1      -4.129  -4.363  -1.731  0.00  0.00    -0.026 A 
ATOM     14  C   UNL     1      -3.159  -4.847  -2.590  0.00  0.00    +0.009 A 
ATOM     15  C   UNL     1      -1.953  -4.185  -2.715  0.00  0.00    +0.046 A 
BRANCH  10  16
ATOM     16  O   UNL     1      -0.523  -2.391  -2.086  0.00  0.00    -0.488 OA
BRANCH  16  17
ATOM     17  C   UNL     1      -0.343  -1.219  -1.288  0.00  0.00    +0.256 C 
BRANCH  17  19
ATOM     18  C   UNL     1       1.162   0.652  -1.730  0.00  0.00    +0.007 C 
ATOM     19  C   UNL     1       1.022  -0.638  -1.550  0.00  0.00    +0.006 C 
ENDBRANCH  17  19
ENDBRANCH  16  17
ENDBRANCH  10  16
ENDBRANCH   1  13
BRANCH   3  20
ATOM     20  C   UNL     1      -7.165  -3.952  -4.848  0.00  0.00    +0.436 C 
ATOM     21  F   UNL     1      -7.469  -2.650  -4.434  0.00  0.00    -0.166 F 
ATOM     22  F   UNL     1      -6.711  -3.927  -6.170  0.00  0.00    -0.166 F 
ATOM     23  F   UNL     1      -8.313  -4.747  -4.763  0.00  0.00    -0.166 F 
ENDBRANCH   3  20
BRANCH   3  24
ATOM     24  O   UNL     1      -4.851  -3.828  -4.159  0.00  0.00    -0.364 OA
ATOM     25  H   UNL     1      -4.524  -3.874  -5.068  0.00  0.00    +0.212 HD
ENDBRANCH   3  24
BRANCH   2  26
ATOM     26  C   UNL     1      -7.839  -5.046  -2.269  0.00  0.00    +0.173 C 
ATOM     27  O   UNL     1      -8.053  -6.150  -2.722  0.00  0.00    -0.292 OA
BRANCH  26  28
ATOM     28  C   UNL     1      -8.889  -4.344  -1.515  0.00  0.00    +0.018 A 
ATOM     29  C   UNL     1      -8.613  -3.116  -0.904  0.00  0.00    +0.013 A 
ATOM     30  C   UNL     1      -9.602  -2.463  -0.200  0.00  0.00    +0.020 A 
ATOM     31  C   UNL     1     -10.866  -3.021  -0.096  0.00  0.00    +0.041 A 
ATOM     32  C   UNL     1     -11.146  -4.237  -0.698  0.00  0.00    +0.020 A 
ATOM     33  C   UNL     1     -10.169  -4.898  -1.411  0.00  0.00    +0.013 A 
ATOM     34 CL   UNL     1     -12.105  -2.192   0.794  0.00  0.00    -0.084 Cl
ENDBRANCH  26  28
ENDBRANCH   2  26
TORSDOF 8
