REMARK  Name = ZINC21722770
REMARK  5 active torsions:
REMARK  status: ('A' for Active; 'I' for Inactive)
REMARK    1  A    between atoms: C_5  and  C_7
REMARK    2  A    between atoms: C_7  and  N_8
REMARK    3  A    between atoms: C_9  and  C_11
REMARK    4  A    between atoms: C_11  and  N_12
REMARK    5  A    between atoms: C_22  and  C_24
REMARK                            x       y       z     vdW  Elec       q    Type
REMARK                         _______ _______ _______ _____ _____    ______ ____
ROOT
ATOM      1  N   UNL     1       0.002  -0.004   0.002  0.00  0.00    -0.308 N 
ATOM      2  C   UNL     1      -0.022   1.385  -0.009  0.00  0.00    +0.052 A 
ATOM      3  C   UNL     1      -1.231   2.072  -0.015  0.00  0.00    +0.025 A 
ATOM      4  C   UNL     1      -1.228   3.454  -0.043  0.00  0.00    +0.002 A 
ATOM      5  C   UNL     1      -0.035   4.154  -0.070  0.00  0.00    +0.002 A 
ATOM      6  C   UNL     1       1.171   3.472  -0.058  0.00  0.00    +0.025 A 
ATOM      7  C   UNL     1       1.165   2.088  -0.019  0.00  0.00    +0.052 A 
ATOM      8  N   UNL     1       2.345   1.350   0.027  0.00  0.00    -0.316 N 
ATOM      9  C   UNL     1       2.731   0.502  -0.962  0.00  0.00    +0.017 C 
ATOM     10  C   UNL     1       1.904  -0.367  -1.570  0.00  0.00    +0.037 C 
ATOM     11  C   UNL     1       0.449  -0.598  -1.236  0.00  0.00    +0.146 C 
ATOM     12  C   UNL     1       2.381  -1.168  -2.634  0.00  0.00    +0.163 C 
ATOM     13  O   UNL     1       1.617  -1.948  -3.167  0.00  0.00    -0.292 OA
ATOM     14  C   UNL     1       3.794  -1.092  -3.129  0.00  0.00    +0.080 C 
ATOM     15  C   UNL     1       4.344   0.311  -2.851  0.00  0.00    +0.014 C 
ATOM     16  C   UNL     1       4.195   0.581  -1.354  0.00  0.00    +0.051 C 
ATOM     17  H   UNL     1       3.016   1.438   0.894  0.00  0.00    +0.152 HD
ENDROOT
BRANCH  11  18
ATOM     18  C   UNL     1       0.210  -2.084  -1.163  0.00  0.00    +0.015 A 
ATOM     19  C   UNL     1      -0.237  -2.925  -2.128  0.00  0.00    +0.013 A 
ATOM     20  C   UNL     1      -0.382  -4.268  -1.832  0.00  0.00    +0.008 A 
ATOM     21  C   UNL     1      -0.072  -4.704  -0.587  0.00  0.00    +0.045 A 
ATOM     22  S   UNL     1       0.449  -3.195   0.214  0.00  0.00    -0.099 S 
ENDBRANCH  11  18
BRANCH   1  23
ATOM     23  C   UNL     1      -1.300  -0.550   0.408  0.00  0.00    +0.201 C 
BRANCH  23  25
ATOM     24  N   UNL     1      -2.718  -0.578   2.434  0.00  0.00    -0.310 N 
ATOM     25  C   UNL     1      -1.574  -0.181   1.843  0.00  0.00    +0.231 C 
ATOM     26  O   UNL     1      -0.764   0.472   2.467  0.00  0.00    -0.274 OA
ATOM     27  H   UNL     1      -3.452  -1.171   1.869  0.00  0.00    +0.149 HD
BRANCH  24  28
ATOM     28  C   UNL     1      -2.984  -0.219   3.830  0.00  0.00    +0.142 C 
BRANCH  28  33
ATOM     29  C   UNL     1      -6.660  -0.477   4.654  0.00  0.00    +0.000 A 
ATOM     30  C   UNL     1      -6.771  -1.808   5.011  0.00  0.00    +0.003 A 
ATOM     31  C   UNL     1      -5.658  -2.626   4.987  0.00  0.00    +0.038 A 
ATOM     32  C   UNL     1      -4.430  -2.112   4.604  0.00  0.00    +0.128 A 
ATOM     33  C   UNL     1      -4.320  -0.780   4.246  0.00  0.00    +0.005 A 
ATOM     34  C   UNL     1      -5.434   0.038   4.277  0.00  0.00    +0.008 A 
ATOM     35  F   UNL     1      -3.341  -2.912   4.580  0.00  0.00    -0.205 F 
ENDBRANCH  28  33
ENDBRANCH  24  28
ENDBRANCH  23  25
ENDBRANCH   1  23
TORSDOF 5
