REMARK  Name = ZINC06149384
REMARK  12 active torsions:
REMARK  status: ('A' for Active; 'I' for Inactive)
REMARK    1  A    between atoms: C_1  and  C_2
REMARK    2  A    between atoms: C_2  and  C_3
REMARK    3  A    between atoms: C_3  and  C_4
REMARK    4  A    between atoms: C_3  and  C_5
REMARK    5  A    between atoms: C_3  and  N_6
REMARK    6  A    between atoms: C_7  and  C_11
REMARK    7  A    between atoms: C_11  and  C_13
REMARK    8  A    between atoms: C_11  and  N_77
REMARK    9  A    between atoms: C_17  and  O_27
REMARK   10  A    between atoms: C_18  and  O_25
REMARK   11  A    between atoms: O_25  and  C_26
REMARK   12  A    between atoms: O_27  and  C_28
REMARK                            x       y       z     vdW  Elec       q    Type
REMARK                         _______ _______ _______ _____ _____    ______ ____
ROOT
ATOM      1  C   UNL     1      -1.362   2.088   0.616  0.00  0.00    +0.039 C 
ENDROOT
BRANCH   1   2
ATOM      2  C   UNL     1      -1.750   1.990   2.069  0.00  0.00    +0.011 A 
ATOM      3  C   UNL     1      -1.072   1.153   2.895  0.00  0.00    +0.017 A 
ATOM      4  C   UNL     1      -1.469   1.084   4.301  0.00  0.00    +0.002 A 
ATOM      5  C   UNL     1      -0.802   0.241   5.199  0.00  0.00    +0.059 A 
ATOM      6  C   UNL     1      -1.203   0.195   6.516  0.00  0.00    +0.162 A 
ATOM      7  C   UNL     1      -2.271   0.985   6.956  0.00  0.00    +0.163 A 
ATOM      8  C   UNL     1      -2.936   1.820   6.078  0.00  0.00    +0.075 A 
ATOM      9  C   UNL     1      -2.544   1.878   4.746  0.00  0.00    +0.053 A 
ATOM     10  N   UNL     1      -3.196   2.705   3.853  0.00  0.00    -0.322 N 
ATOM     11  H   UNL     1      -3.959   3.268   4.170  0.00  0.00    +0.169 HD
ATOM     12  C   UNL     1      -2.819   2.764   2.564  0.00  0.00    +0.251 A 
ATOM     13  O   UNL     1      -3.417   3.506   1.803  0.00  0.00    -0.268 OA
BRANCH   7  14
ATOM     14  O   UNL     1      -2.657   0.931   8.257  0.00  0.00    -0.491 OA
ATOM     15  C   UNL     1      -3.754   1.761   8.643  0.00  0.00    +0.277 C 
ENDBRANCH   7  14
BRANCH   6  16
ATOM     16  O   UNL     1      -0.559  -0.622   7.392  0.00  0.00    -0.491 OA
ATOM     17  C   UNL     1       0.522  -1.401   6.877  0.00  0.00    +0.277 C 
ENDBRANCH   6  16
ENDBRANCH   1   2
BRANCH   1  28
ATOM     18  C   UNL     1      -3.064   0.427   0.164  0.00  0.00    -0.077 C 
ATOM     19  C   UNL     1      -4.343   0.155  -0.629  0.00  0.00    -0.018 C 
ATOM     20  C   UNL     1      -4.022   0.170  -2.127  0.00  0.00    +0.003 C 
ATOM     21  C   UNL     1      -3.406   1.522  -2.494  0.00  0.00    -0.044 C 
ATOM     22  C   UNL     1      -2.153   1.754  -1.647  0.00  0.00    -0.071 C 
ATOM     23  C   UNL     1      -4.420   2.634  -2.223  0.00  0.00    +0.005 C 
ATOM     24  C   UNL     1      -5.674   2.398  -3.067  0.00  0.00    +0.000 C 
ATOM     25  C   UNL     1      -5.298   2.401  -4.550  0.00  0.00    +0.000 C 
ATOM     26  C   UNL     1      -4.283   1.288  -4.822  0.00  0.00    +0.000 C 
ATOM     27  C   UNL     1      -3.029   1.524  -3.977  0.00  0.00    +0.005 C 
ATOM     28  N   UNL     1      -2.534   1.753  -0.219  0.00  0.00    +0.390 N 
ATOM     29  H   UNL     1      -3.263   2.460  -0.068  0.00  0.00    -0.080 HD
ENDBRANCH   1  28
BRANCH   1  31
ATOM     30  N   UNL     1       1.063   1.473   0.117  0.00  0.00    -0.225 N 
ATOM     31  C   UNL     1      -0.223   1.141   0.336  0.00  0.00    +0.143 A 
ATOM     32  N   UNL     1      -0.294  -0.165   0.251  0.00  0.00    -0.115 NA
ATOM     33  N   UNL     1       0.886  -0.612  -0.006  0.00  0.00    -0.023 NA
ATOM     34  N   UNL     1       1.709   0.375  -0.088  0.00  0.00    -0.043 NA
BRANCH  30  35
ATOM     35  C   UNL     1       1.623   2.827   0.111  0.00  0.00    +0.061 C 
ATOM     36  C   UNL     1       1.014   3.626  -1.042  0.00  0.00    +0.036 C 
ATOM     37  C   UNL     1       1.300   3.518   1.438  0.00  0.00    +0.036 C 
BRANCH  35  39
ATOM     38  C   UNL     1       3.726   4.163  -0.073  0.00  0.00    +0.006 C 
ATOM     39  C   UNL     1       3.141   2.749  -0.067  0.00  0.00    +0.026 C 
ENDBRANCH  35  39
ENDBRANCH  30  35
ENDBRANCH   1  31
TORSDOF 7
