REMARK  Name = ZINC36596441
REMARK  9 active torsions:
REMARK  status: ('A' for Active; 'I' for Inactive)
REMARK    1  A    between atoms: C_1  and  N_2
REMARK    2  A    between atoms: N_5  and  C_8
REMARK    3  A    between atoms: C_8  and  C_14
REMARK    4  A    between atoms: C_14  and  N_15
REMARK    5  A    between atoms: C_16  and  C_18
REMARK    6  A    between atoms: C_18  and  C_19
REMARK    7  A    between atoms: N_23  and  C_27
REMARK    8  A    between atoms: C_24  and  O_26
REMARK    9  A    between atoms: C_27  and  C_28
REMARK                            x       y       z     vdW  Elec       q    Type
REMARK                         _______ _______ _______ _____ _____    ______ ____
ROOT
ATOM      1  N   UNL     1      -0.589  -3.988  -1.380  0.00  0.00    -0.313 N 
ATOM      2  C   UNL     1      -1.895  -4.202  -1.630  0.00  0.00    +0.216 C 
ATOM      3  O   UNL     1      -2.583  -4.776  -0.813  0.00  0.00    -0.276 OA
ATOM      4  H   UNL     1      -0.038  -3.528  -2.034  0.00  0.00    +0.149 HD
ENDROOT
BRANCH   1   5
ATOM      5  C   UNL     1       0.001  -4.449  -0.121  0.00  0.00    +0.126 C 
BRANCH   5   6
ATOM      6  C   UNL     1       1.453  -3.974  -0.034  0.00  0.00    +0.037 C 
ATOM      7  C   UNL     1       2.109  -4.564   1.216  0.00  0.00    +0.024 C 
ATOM      8  C   UNL     1       1.345  -4.101   2.459  0.00  0.00    +0.002 C 
ATOM      9  C   UNL     1       1.378  -2.573   2.539  0.00  0.00    +0.000 C 
ATOM     10  C   UNL     1       0.723  -1.983   1.288  0.00  0.00    +0.002 C 
ATOM     11  C   UNL     1       1.486  -2.446   0.046  0.00  0.00    +0.024 C 
BRANCH   6  16
ATOM     12  C   UNL     1       4.947  -6.260  -3.817  0.00  0.00    -0.096 C 
ATOM     13  N   UNL     1       4.249  -5.845  -2.592  0.00  0.00    +0.379 N 
ATOM     14  C   UNL     1       4.290  -4.381  -2.479  0.00  0.00    -0.064 C 
ATOM     15  C   UNL     1       3.579  -3.950  -1.194  0.00  0.00    +0.066 C 
ATOM     16  N   UNL     1       2.186  -4.418  -1.227  0.00  0.00    -0.299 NA
ATOM     17  C   UNL     1       2.130  -5.880  -1.365  0.00  0.00    +0.066 C 
ATOM     18  C   UNL     1       2.852  -6.296  -2.649  0.00  0.00    -0.064 C 
ATOM     19  H   UNL     1       4.703  -6.257  -1.791  0.00  0.00    -0.082 HD
ENDBRANCH   6  16
ENDBRANCH   5   6
ENDBRANCH   1   5
BRANCH   2  20
ATOM     20  C   UNL     1      -2.502  -3.728  -2.926  0.00  0.00    +0.132 C 
BRANCH  20  21
ATOM     21  C   UNL     1      -3.987  -4.094  -2.958  0.00  0.00    +0.205 C 
ATOM     22  C   UNL     1      -4.606  -3.694  -4.282  0.00  0.00    +0.249 C 
ATOM     23  O   UNL     1      -4.307  -4.093  -5.387  0.00  0.00    -0.273 OA
ATOM     24  N   UNL     1      -5.563  -2.796  -3.965  0.00  0.00    -0.220 N 
ATOM     25  C   UNL     1      -5.607  -2.596  -2.609  0.00  0.00    +0.285 C 
ATOM     26  N   UNL     1      -4.735  -3.307  -1.964  0.00  0.00    -0.223 NA
BRANCH  25  27
ATOM     27  O   UNL     1      -6.470  -1.748  -2.007  0.00  0.00    -0.481 OA
ATOM     28  H   UNL     1      -6.382  -1.715  -1.045  0.00  0.00    +0.295 HD
ENDBRANCH  25  27
BRANCH  24  29
ATOM     29  C   UNL     1      -6.433  -2.127  -4.935  0.00  0.00    +0.153 C 
BRANCH  29  30
ATOM     30  C   UNL     1      -7.678  -2.949  -5.145  0.00  0.00    -0.026 A 
ATOM     31  C   UNL     1      -7.705  -3.920  -6.129  0.00  0.00    +0.009 A 
ATOM     32  C   UNL     1      -8.845  -4.678  -6.325  0.00  0.00    +0.050 A 
ATOM     33  C   UNL     1      -9.963  -4.465  -5.535  0.00  0.00    +0.166 A 
ATOM     34  C   UNL     1      -9.935  -3.487  -4.544  0.00  0.00    +0.167 A 
ATOM     35  C   UNL     1      -8.788  -2.736  -4.349  0.00  0.00    +0.054 A 
ATOM     36  O   UNL     1     -11.145  -3.473  -3.911  0.00  0.00    -0.453 OA
ATOM     37  C   UNL     1     -12.047  -4.168  -4.792  0.00  0.00    +0.466 C 
ATOM     38  O   UNL     1     -11.190  -5.064  -5.523  0.00  0.00    -0.453 OA
ENDBRANCH  29  30
ENDBRANCH  24  29
ENDBRANCH  20  21
ENDBRANCH   2  20
TORSDOF 8
