REMARK  Name = ZINC20563857
REMARK  11 active torsions:
REMARK  status: ('A' for Active; 'I' for Inactive)
REMARK    1  A    between atoms: C_1  and  C_2
REMARK    2  A    between atoms: C_5  and  N_8
REMARK    3  A    between atoms: C_9  and  C_33
REMARK    4  A    between atoms: C_11  and  C_32
REMARK    5  A    between atoms: N_13  and  C_18
REMARK    6  A    between atoms: C_18  and  C_19
REMARK    7  A    between atoms: C_19  and  C_20
REMARK    8  A    between atoms: C_20  and  C_21
REMARK    9  A    between atoms: N_23  and  C_24
REMARK   10  A    between atoms: C_24  and  C_25
REMARK   11  A    between atoms: C_25  and  C_26
REMARK                            x       y       z     vdW  Elec       q    Type
REMARK                         _______ _______ _______ _____ _____    ______ ____
ROOT
ATOM      1  N   UNL     1       2.822   1.007   5.922  0.00  0.00    -0.236 N 
ATOM      2  C   UNL     1       1.984  -0.051   5.884  0.00  0.00    +0.052 A 
ATOM      3  C   UNL     1       1.264   0.056   4.721  0.00  0.00    +0.051 A 
ATOM      4  C   UNL     1       0.214  -0.695   4.036  0.00  0.00    +0.070 A 
ATOM      5  N   UNL     1      -0.246  -0.270   2.897  0.00  0.00    -0.173 NA
ATOM      6  N   UNL     1       0.210   0.888   2.271  0.00  0.00    -0.227 N 
ATOM      7  C   UNL     1       1.178   1.668   2.795  0.00  0.00    +0.295 A 
ATOM      8  O   UNL     1       1.551   2.670   2.213  0.00  0.00    -0.264 OA
ATOM      9  C   UNL     1       1.768   1.288   4.084  0.00  0.00    +0.161 A 
ATOM     10  N   UNL     1       2.687   1.761   4.889  0.00  0.00    -0.161 NA
ATOM     11  C   UNL     1      -0.332  -1.959   4.647  0.00  0.00    +0.068 C 
ATOM     12  C   UNL     1       1.863  -1.140   6.918  0.00  0.00    +0.066 C 
ENDROOT
BRANCH   1  17
ATOM     13  C   UNL     1       6.495   2.005  10.131  0.00  0.00    +0.044 C 
ATOM     14  C   UNL     1       5.519   1.740   9.013  0.00  0.00    -0.050 A 
ATOM     15  C   UNL     1       5.362   0.456   8.525  0.00  0.00    +0.005 A 
ATOM     16  C   UNL     1       4.469   0.210   7.501  0.00  0.00    +0.028 A 
ATOM     17  C   UNL     1       3.728   1.253   6.962  0.00  0.00    +0.066 A 
ATOM     18  C   UNL     1       3.892   2.543   7.451  0.00  0.00    +0.028 A 
ATOM     19  C   UNL     1       4.783   2.781   8.479  0.00  0.00    +0.005 A 
ENDBRANCH   1  17
BRANCH   6  20
ATOM     20  C   UNL     1      -0.383   1.272   0.987  0.00  0.00    +0.148 C 
BRANCH  20  21
ATOM     21  C   UNL     1       0.415   0.635  -0.153  0.00  0.00    +0.033 C 
BRANCH  21  22
ATOM     22  C   UNL     1      -0.204   1.036  -1.494  0.00  0.00    +0.097 C 
BRANCH  22  23
ATOM     23  C   UNL     1       0.581   0.409  -2.617  0.00  0.00    +0.213 C 
ATOM     24  O   UNL     1       1.542  -0.289  -2.369  0.00  0.00    -0.276 OA
ATOM     25  N   UNL     1       0.217   0.625  -3.896  0.00  0.00    -0.315 N 
ATOM     26  H   UNL     1      -0.654   1.258  -4.121  0.00  0.00    +0.149 HD
BRANCH  25  27
ATOM     27  C   UNL     1       0.980   0.015  -4.988  0.00  0.00    +0.108 C 
BRANCH  27  28
ATOM     28  C   UNL     1       0.361   0.416  -6.329  0.00  0.00    +0.049 C 
BRANCH  28  29
ATOM     29  C   UNL     1       1.147  -0.211  -7.452  0.00  0.00    -0.072 C 
ATOM     30  C   UNL     1       0.726  -1.337  -7.932  0.00  0.00    -0.028 C 
ATOM     31  C   UNL     1       1.407  -2.084  -9.041  0.00  0.00    +0.027 C 
ATOM     32  C   UNL     1       2.371  -1.159  -9.787  0.00  0.00    +0.004 C 
ATOM     33  C   UNL     1       3.250  -0.442  -8.755  0.00  0.00    +0.005 C 
ATOM     34  C   UNL     1       2.365   0.512  -7.948  0.00  0.00    +0.030 C 
ENDBRANCH  28  29
ENDBRANCH  27  28
ENDBRANCH  25  27
ENDBRANCH  22  23
ENDBRANCH  21  22
ENDBRANCH  20  21
ENDBRANCH   6  20
TORSDOF 8
