REMARK  Name = ZINC67632880
REMARK  4 active torsions:
REMARK  status: ('A' for Active; 'I' for Inactive)
REMARK    1  A    between atoms: C_5  and  C_7
REMARK    2  A    between atoms: C_9  and  C_12
REMARK    3  A    between atoms: C_12  and  O_14
REMARK    4  A    between atoms: O_14  and  C_15
REMARK                            x       y       z     vdW  Elec       q    Type
REMARK                         _______ _______ _______ _____ _____    ______ ____
ROOT
ATOM      1  C   UNL     1      -0.589  -5.297  -0.032  0.00  0.00    +0.359 C 
ATOM      2  O   UNL     1      -0.334  -6.486  -0.040  0.00  0.00    -0.243 OA
ENDROOT
BRANCH   1   5
ATOM      3  C   UNL     1       1.248  -2.161  -0.022  0.00  0.00    +0.111 A 
ATOM      4  N   UNL     1       0.238  -3.011  -0.022  0.00  0.00    -0.232 NA
ATOM      5  C   UNL     1       0.503  -4.311  -0.032  0.00  0.00    +0.155 A 
ATOM      6  C   UNL     1       1.821  -4.720  -0.040  0.00  0.00    +0.082 A 
ATOM      7  S   UNL     1       2.655  -3.259  -0.043  0.00  0.00    -0.075 S 
BRANCH   3  12
ATOM      8  C   UNL     1      -0.017   1.375   0.010  0.00  0.00    +0.001 A 
ATOM      9  C   UNL     1       1.170   2.087   0.002  0.00  0.00    +0.001 A 
ATOM     10  C   UNL     1       2.382   1.422  -0.013  0.00  0.00    +0.020 A 
ATOM     11  C   UNL     1       2.416   0.041  -0.021  0.00  0.00    +0.051 A 
ATOM     12  C   UNL     1       1.221  -0.682  -0.013  0.00  0.00    +0.025 A 
ATOM     13  C   UNL     1       0.002  -0.004   0.002  0.00  0.00    +0.012 A 
ATOM     14 CL   UNL     1       3.938  -0.793  -0.040  0.00  0.00    -0.083 Cl
ENDBRANCH   3  12
ENDBRANCH   1   5
BRANCH   1  15
ATOM     15  O   UNL     1      -1.872  -4.883  -0.024  0.00  0.00    -0.442 OA
BRANCH  15  16
ATOM     16  C   UNL     1      -2.880  -5.896  -0.024  0.00  0.00    +0.294 C 
ATOM     17  C   UNL     1      -4.135  -5.394   0.651  0.00  0.00    +0.023 A 
ATOM     18  C   UNL     1      -4.399  -4.955   1.929  0.00  0.00    +0.009 A 
ATOM     19  C   UNL     1      -5.677  -4.546   2.268  0.00  0.00    +0.001 A 
ATOM     20  C   UNL     1      -6.684  -4.579   1.321  0.00  0.00    +0.002 A 
ATOM     21  C   UNL     1      -6.422  -5.018   0.040  0.00  0.00    +0.024 A 
ATOM     22  C   UNL     1      -5.138  -5.432  -0.309  0.00  0.00    +0.041 A 
ATOM     23  N   UNL     1      -4.630  -5.909  -1.518  0.00  0.00    -0.282 N 
ATOM     24  C   UNL     1      -3.319  -6.206  -1.440  0.00  0.00    +0.263 C 
ATOM     25  O   UNL     1      -2.621  -6.638  -2.332  0.00  0.00    -0.271 OA
ATOM     26  H   UNL     1      -5.161  -6.016  -2.323  0.00  0.00    +0.155 HD
ENDBRANCH  15  16
ENDBRANCH   1  15
TORSDOF 4
