REMARK  Name = ZINC12186193
REMARK  6 active torsions:
REMARK  status: ('A' for Active; 'I' for Inactive)
REMARK    1  A    between atoms: C_1  and  C_2
REMARK    2  A    between atoms: C_5  and  C_20
REMARK    3  A    between atoms: N_11  and  C_13
REMARK    4  A    between atoms: C_20  and  N_50
REMARK    5  A    between atoms: C_21  and  C_22
REMARK    6  A    between atoms: C_21  and  N_50
REMARK                            x       y       z     vdW  Elec       q    Type
REMARK                         _______ _______ _______ _____ _____    ______ ____
ROOT
ATOM      1  C   UNL     1      -1.207  -0.903   0.009  0.00  0.00    +0.068 C 
ATOM      2  C   UNL     1       0.002  -0.004   0.002  0.00  0.00    +0.070 A 
ATOM      3  C   UNL     1       1.351  -0.430  -0.013  0.00  0.00    +0.040 A 
ATOM      4  C   UNL     1       1.968  -1.702  -0.026  0.00  0.00    +0.020 A 
ATOM      5  C   UNL     1       3.325  -1.779  -0.039  0.00  0.00    +0.001 A 
ATOM      6  C   UNL     1       4.096  -0.603  -0.040  0.00  0.00    +0.252 A 
ATOM      7  O   UNL     1       5.314  -0.681  -0.052  0.00  0.00    -0.268 OA
ATOM      8  N   UNL     1       3.508   0.608  -0.028  0.00  0.00    -0.307 N 
ATOM      9  H   UNL     1       4.056   1.409  -0.029  0.00  0.00    +0.170 HD
ATOM     10  C   UNL     1       2.144   0.720  -0.015  0.00  0.00    +0.145 A 
ATOM     11  N   UNL     1       1.298   1.783  -0.001  0.00  0.00    -0.216 N 
ATOM     12  N   UNL     1      -0.016   1.299   0.009  0.00  0.00    -0.169 NA
ENDROOT
BRANCH  11  13
ATOM     13  C   UNL     1       1.676   3.133   0.003  0.00  0.00    +0.068 A 
ATOM     14  C   UNL     1       2.815   3.534   0.688  0.00  0.00    +0.030 A 
ATOM     15  C   UNL     1       3.188   4.864   0.685  0.00  0.00    +0.040 A 
ATOM     16  C   UNL     1       2.421   5.798   0.010  0.00  0.00    +0.124 A 
ATOM     17  C   UNL     1       1.282   5.401  -0.670  0.00  0.00    +0.040 A 
ATOM     18  C   UNL     1       0.908   4.071  -0.675  0.00  0.00    +0.030 A 
ATOM     19  F   UNL     1       2.785   7.099   0.013  0.00  0.00    -0.205 F 
ENDBRANCH  11  13
BRANCH   5  20
ATOM     20  C   UNL     1       4.002  -3.125  -0.054  0.00  0.00    -0.041 C 
BRANCH  20  21
ATOM     21  N   UNL     1       4.315  -3.494  -1.447  0.00  0.00    +0.384 N 
ATOM     22  H   UNL     1       4.938  -2.786  -1.853  0.00  0.00    -0.085 HD
ATOM     23  H   UNL     1       3.444  -3.536  -1.990  0.00  0.00    -0.085 HD
BRANCH  21  24
ATOM     24  C   UNL     1       4.981  -4.810  -1.492  0.00  0.00    -0.037 C 
BRANCH  24  25
ATOM     25  C   UNL     1       5.292  -5.165  -2.947  0.00  0.00    +0.161 C 
ATOM     26  C   UNL     1       5.996  -6.540  -3.037  0.00  0.00    +0.081 C 
ATOM     27  C   UNL     1       6.976  -6.316  -4.172  0.00  0.00    -0.002 A 
ATOM     28  C   UNL     1       7.703  -7.189  -4.951  0.00  0.00    +0.007 A 
ATOM     29  C   UNL     1       8.524  -6.702  -5.952  0.00  0.00    +0.000 A 
ATOM     30  C   UNL     1       8.610  -5.339  -6.167  0.00  0.00    +0.004 A 
ATOM     31  C   UNL     1       7.886  -4.463  -5.386  0.00  0.00    +0.046 A 
ATOM     32  C   UNL     1       7.060  -4.945  -4.373  0.00  0.00    +0.124 A 
ATOM     33  O   UNL     1       6.275  -4.268  -3.491  0.00  0.00    -0.490 OA
ENDBRANCH  24  25
ENDBRANCH  21  24
ENDBRANCH  20  21
ENDBRANCH   5  20
TORSDOF 5
