REMARK  Name = ZINC58441090
REMARK  10 active torsions:
REMARK  status: ('A' for Active; 'I' for Inactive)
REMARK    1  A    between atoms: C_1  and  C_2
REMARK    2  A    between atoms: C_3  and  C_12
REMARK    3  A    between atoms: C_8  and  S_10
REMARK    4  A    between atoms: S_10  and  C_11
REMARK    5  A    between atoms: C_12  and  C_13
REMARK    6  A    between atoms: C_13  and  C_14
REMARK    7  A    between atoms: N_16  and  C_17
REMARK    8  A    between atoms: C_22  and  N_23
REMARK    9  A    between atoms: N_23  and  S_24
REMARK   10  A    between atoms: S_24  and  C_27
REMARK                            x       y       z     vdW  Elec       q    Type
REMARK                         _______ _______ _______ _____ _____    ______ ____
ROOT
ATOM      1  C   UNL     1      -4.474   0.723  -1.266  0.00  0.00    +0.218 C 
ATOM      2  O   UNL     1      -4.997   1.089  -0.234  0.00  0.00    -0.275 OA
ATOM      3  N   UNL     1      -5.050   1.007  -2.451  0.00  0.00    -0.284 N 
ATOM      4  H   UNL     1      -4.601   0.771  -3.278  0.00  0.00    +0.155 HD
ENDROOT
BRANCH   3   5
ATOM      5  C   UNL     1      -6.298   1.645  -2.489  0.00  0.00    +0.056 A 
ATOM      6  C   UNL     1      -6.629   2.584  -1.524  0.00  0.00    +0.025 A 
ATOM      7  C   UNL     1      -7.860   3.211  -1.563  0.00  0.00    +0.002 A 
ATOM      8  C   UNL     1      -8.765   2.905  -2.563  0.00  0.00    +0.002 A 
ATOM      9  C   UNL     1      -8.444   1.970  -3.529  0.00  0.00    +0.026 A 
ATOM     10  C   UNL     1      -7.208   1.340  -3.501  0.00  0.00    +0.069 A 
BRANCH  10  11
ATOM     11  N   UNL     1      -6.878   0.398  -4.481  0.00  0.00    -0.214 N 
ATOM     12  H   UNL     1      -6.341  -0.376  -4.249  0.00  0.00    +0.174 HD
BRANCH  11  13
ATOM     13  S   UNL     1      -7.405   0.603  -6.037  0.00  0.00    +0.072 S 
ATOM     14  O   UNL     1      -6.806  -0.429  -6.808  0.00  0.00    -0.150 OA
ATOM     15  O   UNL     1      -8.813   0.784  -5.969  0.00  0.00    -0.150 OA
BRANCH  13  16
ATOM     16  C   UNL     1      -6.731   2.123  -6.620  0.00  0.00    +0.108 A 
ATOM     17  C   UNL     1      -7.428   3.303  -6.440  0.00  0.00    +0.029 A 
ATOM     18  C   UNL     1      -6.899   4.495  -6.897  0.00  0.00    +0.002 A 
ATOM     19  C   UNL     1      -5.672   4.508  -7.534  0.00  0.00    +0.000 A 
ATOM     20  C   UNL     1      -4.974   3.328  -7.713  0.00  0.00    +0.002 A 
ATOM     21  C   UNL     1      -5.501   2.136  -7.252  0.00  0.00    +0.029 A 
ENDBRANCH  13  16
ENDBRANCH  11  13
ENDBRANCH  10  11
ENDBRANCH   3   5
BRANCH   1  22
ATOM     22  C   UNL     1      -3.181  -0.049  -1.223  0.00  0.00    +0.101 C 
BRANCH  22  23
ATOM     23  C   UNL     1      -2.747  -0.235   0.233  0.00  0.00    +0.051 C 
BRANCH  23  26
ATOM     24  C   UNL     1      -0.224   1.152   0.382  0.00  0.00    +0.066 C 
ATOM     25  C   UNL     1      -0.257  -0.354   0.347  0.00  0.00    +0.049 A 
ATOM     26  C   UNL     1      -1.453  -1.008   0.276  0.00  0.00    +0.038 A 
ATOM     27  C   UNL     1      -1.459  -2.413   0.244  0.00  0.00    +0.256 A 
ATOM     28  O   UNL     1      -2.511  -3.029   0.181  0.00  0.00    -0.267 OA
ATOM     29  N   UNL     1      -0.280  -3.068   0.286  0.00  0.00    -0.302 N 
ATOM     30  H   UNL     1      -0.260  -4.038   0.265  0.00  0.00    +0.171 HD
ATOM     31  C   UNL     1       0.883  -2.363   0.356  0.00  0.00    +0.169 A 
ATOM     32  N   UNL     1       0.880  -1.044   0.380  0.00  0.00    -0.228 NA
BRANCH  31  33
ATOM     33  S   UNL     1       2.418  -3.227   0.410  0.00  0.00    -0.091 S 
ATOM     34  C   UNL     1       3.661  -1.908   0.498  0.00  0.00    +0.093 C 
ENDBRANCH  31  33
ENDBRANCH  23  26
ENDBRANCH  22  23
ENDBRANCH   1  22
TORSDOF 8
