REMARK  Name = ZINC11855225
REMARK  6 active torsions:
REMARK  status: ('A' for Active; 'I' for Inactive)
REMARK    1  A    between atoms: C_4  and  C_7
REMARK    2  A    between atoms: C_16  and  N_25
REMARK    3  A    between atoms: C_18  and  C_20
REMARK    4  A    between atoms: C_26  and  C_28
REMARK    5  A    between atoms: C_28  and  C_29
REMARK    6  A    between atoms: C_29  and  C_30
REMARK                            x       y       z     vdW  Elec       q    Type
REMARK                         _______ _______ _______ _____ _____    ______ ____
ROOT
ATOM      1  C   UNL     1       7.437   5.999   3.196  0.00  0.00    +0.080 A 
ATOM      2  C   UNL     1       8.480   6.841   3.550  0.00  0.00    +0.098 A 
ATOM      3  C   UNL     1       9.740   6.634   2.966  0.00  0.00    +0.253 A 
ATOM      4  O   UNL     1      10.683   7.353   3.253  0.00  0.00    -0.268 OA
ATOM      5  N   UNL     1       9.891   5.621   2.087  0.00  0.00    -0.291 N 
ATOM      6  H   UNL     1      10.755   5.461   1.677  0.00  0.00    +0.172 HD
ATOM      7  C   UNL     1       8.832   4.827   1.772  0.00  0.00    +0.234 A 
ATOM      8  N   UNL     1       7.650   5.013   2.312  0.00  0.00    -0.212 NA
ATOM      9  N   UNL     1       9.006   3.799   0.866  0.00  0.00    -0.185 N 
ATOM     10  C   UNL     1       8.045   2.919   0.455  0.00  0.00    +0.132 A 
ATOM     11  C   UNL     1       8.616   2.073  -0.439  0.00  0.00    +0.074 A 
ATOM     12  C   UNL     1       9.971   2.440  -0.577  0.00  0.00    +0.102 A 
ATOM     13  N   UNL     1      10.200   3.472   0.209  0.00  0.00    -0.162 NA
ENDROOT
BRANCH   1  17
ATOM     14  C   UNL     1       3.583   6.537   4.906  0.00  0.00    +0.000 A 
ATOM     15  C   UNL     1       3.796   5.519   3.994  0.00  0.00    +0.001 A 
ATOM     16  C   UNL     1       5.045   5.339   3.436  0.00  0.00    +0.010 A 
ATOM     17  C   UNL     1       6.094   6.186   3.792  0.00  0.00    +0.001 A 
ATOM     18  C   UNL     1       5.874   7.208   4.716  0.00  0.00    +0.010 A 
ATOM     19  C   UNL     1       4.619   7.381   5.263  0.00  0.00    +0.001 A 
ENDBRANCH   1  17
BRANCH  12  20
ATOM     20  C   UNL     1      10.963   1.781  -1.453  0.00  0.00    +0.039 A 
ATOM     21  C   UNL     1      12.287   2.082  -1.636  0.00  0.00    +0.018 A 
ATOM     22  C   UNL     1      13.023   1.318  -2.516  0.00  0.00    +0.008 A 
ATOM     23  C   UNL     1      12.417   0.296  -3.172  0.00  0.00    +0.046 A 
ATOM     24  S   UNL     1      10.749   0.382  -2.542  0.00  0.00    -0.095 S 
ENDBRANCH  12  20
BRANCH  10  25
ATOM     25  N   UNL     1       6.717   2.899   0.873  0.00  0.00    -0.270 N 
ATOM     26  C   UNL     1       5.869   1.974   0.380  0.00  0.00    +0.218 C 
ATOM     27  O   UNL     1       6.263   1.160  -0.428  0.00  0.00    -0.275 OA
ATOM     28  H   UNL     1       6.402   3.550   1.520  0.00  0.00    +0.156 HD
BRANCH  26  29
ATOM     29  C   UNL     1       4.432   1.952   0.833  0.00  0.00    +0.096 C 
BRANCH  29  30
ATOM     30  C   UNL     1       3.692   0.815   0.127  0.00  0.00    +0.013 C 
BRANCH  30  31
ATOM     31  C   UNL     1       2.232   0.792   0.586  0.00  0.00    -0.011 C 
ATOM     32  C   UNL     1       1.453   1.995  -0.001  0.00  0.00    +0.003 C 
ATOM     33  C   UNL     1      -0.019   1.534   0.011  0.00  0.00    +0.000 C 
ATOM     34  C   UNL     1       0.002  -0.004   0.002  0.00  0.00    +0.000 C 
ATOM     35  C   UNL     1       1.486  -0.425  -0.014  0.00  0.00    +0.003 C 
ENDBRANCH  30  31
ENDBRANCH  29  30
ENDBRANCH  26  29
ENDBRANCH  10  25
TORSDOF 6
