REMARK  Name = ZINC57844696
REMARK  6 active torsions:
REMARK  status: ('A' for Active; 'I' for Inactive)
REMARK    1  A    between atoms: C_1  and  C_2
REMARK    2  A    between atoms: C_2  and  C_4
REMARK    3  A    between atoms: C_2  and  C_23
REMARK    4  A    between atoms: C_4  and  N_5
REMARK    5  A    between atoms: C_8  and  C_12
REMARK    6  A    between atoms: C_8  and  C_13
REMARK                            x       y       z     vdW  Elec       q    Type
REMARK                         _______ _______ _______ _____ _____    ______ ____
ROOT
ATOM      1  N   UNL     1      -2.105  -0.148  -1.230  0.00  0.00    -0.223 N 
ATOM      2  C   UNL     1      -2.793   0.999  -1.395  0.00  0.00    +0.251 C 
ATOM      3  O   UNL     1      -2.966   1.873  -0.573  0.00  0.00    -0.272 OA
ATOM      4  C   UNL     1      -3.305   0.969  -2.822  0.00  0.00    +0.135 C 
ATOM      5  N   UNL     1      -2.799  -0.312  -3.344  0.00  0.00    -0.281 N 
ATOM      6  C   UNL     1      -2.107  -0.889  -2.345  0.00  0.00    +0.310 C 
ATOM      7  O   UNL     1      -1.549  -1.964  -2.442  0.00  0.00    -0.252 OA
ATOM      8  C   UNL     1      -2.735   2.140  -3.623  0.00  0.00    +0.047 C 
ATOM      9  H   UNL     1      -2.934  -0.669  -4.236  0.00  0.00    +0.152 HD
ENDROOT
BRANCH   4  10
ATOM     10  C   UNL     1      -4.812   0.992  -2.845  0.00  0.00    -0.015 A 
ATOM     11  C   UNL     1      -5.511   1.633  -1.839  0.00  0.00    +0.006 A 
ATOM     12  C   UNL     1      -6.890   1.648  -1.866  0.00  0.00    +0.004 A 
ATOM     13  C   UNL     1      -7.583   1.024  -2.896  0.00  0.00    -0.044 A 
ATOM     14  C   UNL     1      -6.886   0.390  -3.900  0.00  0.00    -0.044 A 
ATOM     15  C   UNL     1      -5.498   0.378  -3.873  0.00  0.00    +0.010 A 
ATOM     16  C   UNL     1      -7.571  -0.292  -5.056  0.00  0.00    +0.035 C 
ATOM     17  C   UNL     1      -9.039  -0.560  -4.729  0.00  0.00    +0.005 C 
ATOM     18  C   UNL     1      -9.670   0.747  -4.233  0.00  0.00    +0.005 C 
ATOM     19  C   UNL     1      -9.088   1.072  -2.859  0.00  0.00    +0.035 C 
ENDBRANCH   4  10
BRANCH   1  20
ATOM     20  C   UNL     1      -1.433  -0.534   0.013  0.00  0.00    +0.136 C 
BRANCH  20  22
ATOM     21  C   UNL     1      -0.019   1.526   0.010  0.00  0.00    +0.025 C 
ATOM     22  C   UNL     1       0.002  -0.004   0.002  0.00  0.00    +0.106 C 
BRANCH  22  23
ATOM     23  C   UNL     1       0.714  -0.492   1.195  0.00  0.00    +0.067 C 
ATOM     24  N   UNL     1       1.263  -0.868   2.115  0.00  0.00    -0.196 NA
ENDBRANCH  22  23
ENDBRANCH  20  22
ENDBRANCH   1  20
TORSDOF 4
