REMARK  Name = ZINC39711344
REMARK  11 active torsions:
REMARK  status: ('A' for Active; 'I' for Inactive)
REMARK    1  A    between atoms: C_1  and  C_2
REMARK    2  A    between atoms: C_2  and  C_3
REMARK    3  A    between atoms: C_2  and  C_4
REMARK    4  A    between atoms: C_2  and  N_5
REMARK    5  A    between atoms: C_6  and  C_11
REMARK    6  A    between atoms: C_11  and  C_13
REMARK    7  A    between atoms: C_11  and  N_27
REMARK    8  A    between atoms: C_18  and  O_25
REMARK    9  A    between atoms: O_25  and  C_26
REMARK   10  A    between atoms: N_30  and  C_33
REMARK   11  A    between atoms: C_33  and  C_34
REMARK                            x       y       z     vdW  Elec       q    Type
REMARK                         _______ _______ _______ _____ _____    ______ ____
ROOT
ATOM      1  C   UNL     1       0.141  -2.554  -2.429  0.00  0.00    -0.009 C 
ENDROOT
BRANCH   1   2
ATOM      2  C   UNL     1       0.841  -1.996  -3.670  0.00  0.00    +0.088 C 
ATOM      3  C   UNL     1       2.214  -2.634  -3.756  0.00  0.00    -0.006 C 
ATOM      4  C   UNL     1       3.291  -1.798  -3.763  0.00  0.00    -0.004 A 
ATOM      5  C   UNL     1       4.652  -2.331  -3.843  0.00  0.00    +0.055 A 
ATOM      6  C   UNL     1       5.698  -1.459  -3.847  0.00  0.00    +0.121 A 
ATOM      7  C   UNL     1       5.492  -0.076  -3.777  0.00  0.00    +0.047 A 
ATOM      8  C   UNL     1       4.254   0.476  -3.701  0.00  0.00    +0.027 A 
ATOM      9  C   UNL     1       3.107  -0.339  -3.690  0.00  0.00    +0.041 A 
ATOM     10  N   UNL     1       1.897   0.217  -3.615  0.00  0.00    -0.285 N 
ATOM     11  C   UNL     1       0.779  -0.487  -3.599  0.00  0.00    +0.223 C 
ATOM     12  O   UNL     1      -0.296   0.077  -3.529  0.00  0.00    -0.275 OA
ATOM     13  H   UNL     1       1.835   1.184  -3.570  0.00  0.00    +0.155 HD
BRANCH   6  14
ATOM     14  O   UNL     1       6.967  -1.941  -3.921  0.00  0.00    -0.495 OA
ATOM     15  C   UNL     1       8.027  -0.982  -3.922  0.00  0.00    +0.277 C 
ENDBRANCH   6  14
ENDBRANCH   1   2
BRANCH   1  16
ATOM     16  N   UNL     1       0.165  -4.022  -2.471  0.00  0.00    +0.386 N 
ATOM     17  C   UNL     1      -0.566  -4.557  -1.315  0.00  0.00    -0.063 C 
ATOM     18  C   UNL     1      -0.526  -6.086  -1.349  0.00  0.00    +0.066 C 
ATOM     19  N   UNL     1      -1.136  -6.562  -2.598  0.00  0.00    -0.302 NA
ATOM     20  C   UNL     1      -0.430  -6.014  -3.765  0.00  0.00    +0.066 C 
ATOM     21  C   UNL     1      -0.471  -4.486  -3.712  0.00  0.00    -0.063 C 
ATOM     22  H   UNL     1       1.121  -4.344  -2.443  0.00  0.00    -0.081 HD
BRANCH  19  23
ATOM     23  C   UNL     1      -1.167  -8.030  -2.643  0.00  0.00    +0.119 C 
BRANCH  23  24
ATOM     24  C   UNL     1      -2.011  -8.479  -3.808  0.00  0.00    -0.030 A 
ATOM     25  C   UNL     1      -3.368  -8.679  -3.641  0.00  0.00    +0.009 A 
ATOM     26  C   UNL     1      -4.146  -9.091  -4.707  0.00  0.00    +0.050 A 
ATOM     27  C   UNL     1      -3.566  -9.304  -5.947  0.00  0.00    +0.166 A 
ATOM     28  C   UNL     1      -2.198  -9.102  -6.116  0.00  0.00    +0.167 A 
ATOM     29  C   UNL     1      -1.426  -8.684  -5.044  0.00  0.00    +0.054 A 
ATOM     30  O   UNL     1      -1.874  -9.375  -7.413  0.00  0.00    -0.453 OA
ATOM     31  C   UNL     1      -2.979 -10.138  -7.933  0.00  0.00    +0.466 C 
ATOM     32  O   UNL     1      -4.098  -9.704  -7.139  0.00  0.00    -0.453 OA
ENDBRANCH  23  24
ENDBRANCH  19  23
ENDBRANCH   1  16
BRANCH   1  34
ATOM     33  N   UNL     1       0.820  -0.594  -1.087  0.00  0.00    -0.183 NA
ATOM     34  C   UNL     1       0.868  -2.068  -1.173  0.00  0.00    +0.205 C 
ATOM     35  N   UNL     1       2.300  -2.386  -1.251  0.00  0.00    -0.152 NA
ATOM     36  N   UNL     1       2.944  -1.335  -1.218  0.00  0.00    -0.070 NA
ATOM     37  N   UNL     1       2.133  -0.205  -1.119  0.00  0.00    -0.179 N 
ATOM     38  H   UNL     1       2.449   0.711  -1.081  0.00  0.00    +0.191 HD
BRANCH  33  40
ATOM     39  C   UNL     1       0.239   1.365   0.264  0.00  0.00    +0.029 C 
ATOM     40  C   UNL     1       0.173  -0.160   0.159  0.00  0.00    +0.035 C 
ATOM     41  C   UNL     1       0.897  -0.785   1.353  0.00  0.00    +0.029 C 
ATOM     42  C   UNL     1      -1.290  -0.608   0.158  0.00  0.00    +0.029 C 
ENDBRANCH  33  40
ENDBRANCH   1  34
TORSDOF 7
