REMARK  Name = ZINC61669833
REMARK  4 active torsions:
REMARK  status: ('A' for Active; 'I' for Inactive)
REMARK    1  A    between atoms: C_1  and  C_2
REMARK    2  A    between atoms: C_2  and  C_4
REMARK    3  A    between atoms: C_2  and  N_7
REMARK    4  A    between atoms: N_7  and  C_8
REMARK                            x       y       z     vdW  Elec       q    Type
REMARK                         _______ _______ _______ _____ _____    ______ ____
ROOT
ATOM      1  C   UNL     1      -2.025  -0.493  -1.182  0.00  0.00    +0.116 C 
ATOM      2  C   UNL     1      -2.408   0.909  -1.556  0.00  0.00    -0.023 A 
ATOM      3  C   UNL     1      -1.451   1.722  -2.147  0.00  0.00    +0.006 A 
ATOM      4  C   UNL     1      -1.760   3.018  -2.507  0.00  0.00    +0.000 A 
ATOM      5  C   UNL     1      -3.032   3.510  -2.278  0.00  0.00    +0.000 A 
ATOM      6  C   UNL     1      -3.984   2.703  -1.689  0.00  0.00    +0.004 A 
ATOM      7  C   UNL     1      -3.674   1.400  -1.326  0.00  0.00    -0.038 A 
ATOM      8  C   UNL     1      -4.742   0.561  -0.686  0.00  0.00    +0.071 C 
ATOM      9  C   UNL     1      -4.486  -0.906  -0.869  0.00  0.00    -0.038 A 
ATOM     10  C   UNL     1      -3.220  -1.398  -1.101  0.00  0.00    -0.023 A 
ATOM     11  C   UNL     1      -3.030  -2.763  -1.265  0.00  0.00    +0.006 A 
ATOM     12  C   UNL     1      -4.102  -3.630  -1.197  0.00  0.00    +0.000 A 
ATOM     13  C   UNL     1      -5.372  -3.137  -0.963  0.00  0.00    +0.000 A 
ATOM     14  C   UNL     1      -5.562  -1.780  -0.801  0.00  0.00    +0.004 A 
ENDROOT
BRANCH   1  15
ATOM     15  N   UNL     1      -1.351  -0.473   0.124  0.00  0.00    -0.295 NA
ATOM     16  H   UNL     1      -2.018  -0.554   0.876  0.00  0.00    +0.124 HD
BRANCH  15  18
ATOM     17  C   UNL     1       0.965  -1.036  -0.439  0.00  0.00    +0.034 C 
ATOM     18  C   UNL     1      -0.333  -1.528   0.207  0.00  0.00    +0.138 C 
BRANCH  18  19
ATOM     19  C   UNL     1      -0.077  -1.867   1.653  0.00  0.00    +0.227 C 
ATOM     20  O   UNL     1      -0.684  -1.286   2.528  0.00  0.00    -0.274 OA
ATOM     21  N   UNL     1       0.826  -2.814   1.974  0.00  0.00    -0.328 N 
ATOM     22  H   UNL     1       1.311  -3.279   1.274  0.00  0.00    +0.145 HD
ATOM     23  H   UNL     1       0.990  -3.032   2.905  0.00  0.00    +0.145 HD
ENDBRANCH  18  19
ENDBRANCH  15  18
ENDBRANCH   1  15
TORSDOF 3
