REMARK  Name = ZINC16354629
REMARK  10 active torsions:
REMARK  status: ('A' for Active; 'I' for Inactive)
REMARK    1  A    between atoms: C_1  and  C_2
REMARK    2  A    between atoms: N_10  and  C_14
REMARK    3  A    between atoms: C_14  and  N_15
REMARK    4  A    between atoms: N_15  and  C_16
REMARK    5  A    between atoms: N_15  and  C_17
REMARK    6  A    between atoms: C_17  and  C_18
REMARK    7  A    between atoms: C_21  and  O_26
REMARK    8  A    between atoms: C_22  and  O_24
REMARK    9  A    between atoms: O_24  and  C_25
REMARK   10  A    between atoms: O_26  and  C_27
REMARK                            x       y       z     vdW  Elec       q    Type
REMARK                         _______ _______ _______ _____ _____    ______ ____
ROOT
ATOM      1  C   UNL     1      -4.383   4.602  -1.363  0.00  0.00    +0.205 C 
ENDROOT
BRANCH   1  11
ATOM      2  C   UNL     1      -7.869   2.337  -8.199  0.00  0.00    +0.007 C 
ATOM      3  C   UNL     1      -7.437   2.207  -6.737  0.00  0.00    -0.014 C 
ATOM      4  C   UNL     1      -5.911   2.266  -6.649  0.00  0.00    +0.006 C 
ATOM      5  C   UNL     1      -5.479   2.123  -5.187  0.00  0.00    +0.035 C 
ATOM      6  C   UNL     1      -6.097   3.245  -4.360  0.00  0.00    +0.113 C 
ATOM      7  C   UNL     1      -7.618   3.214  -4.458  0.00  0.00    +0.035 C 
ATOM      8  C   UNL     1      -8.041   3.353  -5.923  0.00  0.00    +0.006 C 
ATOM      9  C   UNL     1      -5.660   3.138  -2.917  0.00  0.00    +0.248 C 
ATOM     10  O   UNL     1      -5.869   2.220  -2.154  0.00  0.00    -0.273 OA
ATOM     11  N   UNL     1      -4.989   4.279  -2.658  0.00  0.00    -0.211 N 
ATOM     12  C   UNL     1      -4.950   5.082  -3.728  0.00  0.00    +0.310 C 
ATOM     13  O   UNL     1      -4.406   6.169  -3.738  0.00  0.00    -0.252 OA
ATOM     14  N   UNL     1      -5.579   4.549  -4.793  0.00  0.00    -0.285 N 
ATOM     15  H   UNL     1      -5.750   4.894  -5.824  0.00  0.00    +0.151 HD
ENDBRANCH   1  11
BRANCH   1  16
ATOM     16  N   UNL     1      -3.000   4.108  -1.333  0.00  0.00    -0.285 NA
ATOM     17  C   UNL     1      -2.094   5.038  -2.019  0.00  0.00    +0.106 C 
BRANCH  16  18
ATOM     18  C   UNL     1      -2.559   3.864   0.047  0.00  0.00    +0.121 C 
BRANCH  18  19
ATOM     19  C   UNL     1      -1.241   3.133   0.031  0.00  0.00    -0.030 A 
ATOM     20  C   UNL     1      -1.219   1.751   0.017  0.00  0.00    +0.009 A 
ATOM     21  C   UNL     1      -0.013   1.076   0.008  0.00  0.00    +0.050 A 
ATOM     22  C   UNL     1       1.178   1.785   0.000  0.00  0.00    +0.168 A 
ATOM     23  C   UNL     1       1.155   3.176   0.008  0.00  0.00    +0.162 A 
ATOM     24  C   UNL     1      -0.057   3.846   0.023  0.00  0.00    +0.054 A 
BRANCH  23  25
ATOM     25  O   UNL     1       2.321   3.877   0.001  0.00  0.00    -0.491 OA
ATOM     26  C   UNL     1       2.222   5.302   0.010  0.00  0.00    +0.277 C 
ENDBRANCH  23  25
BRANCH  22  27
ATOM     27  O   UNL     1       2.365   1.123  -0.015  0.00  0.00    -0.431 OA
BRANCH  27  28
ATOM     28  C   UNL     1       2.312  -0.305  -0.023  0.00  0.00    +0.541 C 
ATOM     29  F   UNL     1       1.647  -0.753   1.124  0.00  0.00    -0.166 F 
ATOM     30  F   UNL     1       1.624  -0.740  -1.161  0.00  0.00    -0.166 F 
ENDBRANCH  27  28
ENDBRANCH  22  27
ENDBRANCH  18  19
ENDBRANCH  16  18
ENDBRANCH   1  16
TORSDOF 7
