REMARK  Name = ZINC38653473
REMARK  10 active torsions:
REMARK  status: ('A' for Active; 'I' for Inactive)
REMARK    1  A    between atoms: C_1  and  C_2
REMARK    2  A    between atoms: C_2  and  O_4
REMARK    3  A    between atoms: O_4  and  C_5
REMARK    4  A    between atoms: C_5  and  C_6
REMARK    5  A    between atoms: C_6  and  C_8
REMARK    6  A    between atoms: C_14  and  C_35
REMARK    7  A    between atoms: C_16  and  O_34
REMARK    8  A    between atoms: C_31  and  C_32
REMARK    9  A    between atoms: C_37  and  C_39
REMARK   10  A    between atoms: C_37  and  C_40
REMARK                            x       y       z     vdW  Elec       q    Type
REMARK                         _______ _______ _______ _____ _____    ______ ____
ROOT
ATOM      1  C   UNL     1      -2.516  -4.832  -1.213  0.00  0.00    +0.165 C 
ATOM      2  C   UNL     1      -2.513  -5.356   0.272  0.00  0.00    +0.162 C 
ATOM      3  C   UNL     1      -3.835  -4.968   0.836  0.00  0.00    +0.039 C 
ATOM      4  C   UNL     1      -4.714  -5.495  -0.338  0.00  0.00    +0.004 C 
ATOM      5  C   UNL     1      -3.957  -4.905  -1.581  0.00  0.00    +0.012 C 
ATOM      6  C   UNL     1      -4.471  -5.703  -2.758  0.00  0.00    +0.042 C 
ATOM      7  C   UNL     1      -5.875  -5.140  -3.033  0.00  0.00    +0.119 C 
ATOM      8  C   UNL     1      -6.588  -4.627  -1.818  0.00  0.00    +0.031 C 
ATOM      9  C   UNL     1      -6.120  -5.022  -0.420  0.00  0.00    +0.002 C 
ATOM     10  C   UNL     1      -6.644  -4.108   0.663  0.00  0.00    +0.045 C 
ATOM     11  C   UNL     1      -8.185  -4.195   0.672  0.00  0.00    +0.193 C 
ATOM     12  C   UNL     1      -8.671  -3.979  -0.753  0.00  0.00    -0.027 C 
ATOM     13  C   UNL     1      -9.511  -2.991  -1.007  0.00  0.00    +0.049 C 
ATOM     14  C   UNL     1      -9.904  -2.693  -2.389  0.00  0.00    +0.156 C 
ATOM     15  O   UNL     1     -10.928  -2.103  -2.664  0.00  0.00    -0.293 OA
ATOM     16  C   UNL     1      -8.931  -3.179  -3.452  0.00  0.00    +0.080 C 
ATOM     17  C   UNL     1      -8.704  -4.666  -3.190  0.00  0.00    +0.019 C 
ATOM     18  C   UNL     1      -8.110  -4.910  -1.836  0.00  0.00    -0.002 C 
ATOM     19  C   UNL     1      -8.383  -6.351  -1.402  0.00  0.00    +0.016 C 
ATOM     20  F   UNL     1      -8.586  -5.457   1.124  0.00  0.00    -0.241 F 
ATOM     21  C   UNL     1      -4.459  -3.470  -1.760  0.00  0.00    +0.015 C 
ATOM     22  O   UNL     1      -1.188  -5.363   0.588  0.00  0.00    -0.343 OA
ATOM     23  C   UNL     1      -0.597  -5.927  -0.629  0.00  0.00    +0.166 C 
ATOM     24  O   UNL     1      -1.527  -5.706  -1.740  0.00  0.00    -0.332 OA
ATOM     25  C   UNL     1       0.733  -5.233  -0.926  0.00  0.00    +0.074 C 
ATOM     26  C   UNL     1      -0.365  -7.428  -0.442  0.00  0.00    +0.074 C 
ENDROOT
BRANCH   1  27
ATOM     27  C   UNL     1      -2.034  -3.405  -1.267  0.00  0.00    +0.205 C 
ATOM     28  O   UNL     1      -2.105  -2.707  -0.284  0.00  0.00    -0.291 OA
BRANCH  27  29
ATOM     29  C   UNL     1      -1.465  -2.850  -2.547  0.00  0.00    +0.309 C 
BRANCH  29  30
ATOM     30  O   UNL     1      -1.192  -1.457  -2.381  0.00  0.00    -0.457 OA
BRANCH  30  32
ATOM     31  C   UNL     1      -0.362   0.663  -3.337  0.00  0.00    +0.136 C 
ATOM     32  C   UNL     1      -0.677  -0.808  -3.437  0.00  0.00    +0.304 C 
ATOM     33  O   UNL     1      -0.465  -1.402  -4.468  0.00  0.00    -0.251 OA
ENDBRANCH  30  32
ENDBRANCH  29  30
ENDBRANCH  27  29
ENDBRANCH   1  27
BRANCH   7  34
ATOM     34  O   UNL     1      -5.757  -4.069  -3.972  0.00  0.00    -0.391 OA
ATOM     35  H   UNL     1      -5.373  -4.330  -4.821  0.00  0.00    +0.210 HD
ENDBRANCH   7  34
TORSDOF 5
