REMARK  Name = ZINC20504220
REMARK  7 active torsions:
REMARK  status: ('A' for Active; 'I' for Inactive)
REMARK    1  A    between atoms: C_1  and  C_2
REMARK    2  A    between atoms: C_5  and  N_9
REMARK    3  A    between atoms: C_10  and  C_12
REMARK    4  A    between atoms: C_12  and  C_14
REMARK    5  A    between atoms: C_12  and  N_17
REMARK    6  A    between atoms: C_14  and  C_15
REMARK    7  A    between atoms: C_14  and  C_16
REMARK                            x       y       z     vdW  Elec       q    Type
REMARK                         _______ _______ _______ _____ _____    ______ ____
ROOT
ATOM      1  N   UNL     1      -2.457   3.825   0.044  0.00  0.00    -0.285 N 
ATOM      2  C   UNL     1      -3.586   3.201  -0.348  0.00  0.00    +0.203 C 
ATOM      3  O   UNL     1      -3.561   2.021  -0.627  0.00  0.00    -0.277 OA
ATOM      4  H   UNL     1      -2.496   4.871   0.380  0.00  0.00    +0.155 HD
ENDROOT
BRANCH   1   9
ATOM      5  C   UNL     1       2.493   1.051  -0.037  0.00  0.00    +0.044 C 
ATOM      6  C   UNL     1       1.178   1.787  -0.015  0.00  0.00    -0.048 A 
ATOM      7  C   UNL     1       0.804   2.562  -1.098  0.00  0.00    +0.020 A 
ATOM      8  C   UNL     1      -0.399   3.243  -1.079  0.00  0.00    +0.040 A 
ATOM      9  C   UNL     1      -1.236   3.140   0.024  0.00  0.00    +0.062 A 
ATOM     10  C   UNL     1      -0.857   2.361   1.110  0.00  0.00    +0.040 A 
ATOM     11  C   UNL     1       0.349   1.687   1.087  0.00  0.00    +0.020 A 
ATOM     12 BR   UNL     1      -1.990   2.223   2.618  0.00  0.00    -0.048 Br
ATOM     13 BR   UNL     1      -0.906   4.307  -2.558  0.00  0.00    -0.048 Br
ENDBRANCH   1   9
BRANCH   2  14
ATOM     14  C   UNL     1      -4.879   3.970  -0.440  0.00  0.00    +0.016 C 
BRANCH  14  15
ATOM     15  N   UNL     1      -5.816   3.249  -1.312  0.00  0.00    +0.386 N 
ATOM     16  H   UNL     1      -6.760   3.810  -1.379  0.00  0.00    -0.089 HD
ATOM     17  H   UNL     1      -6.012   2.251  -0.894  0.00  0.00    -0.089 HD
ATOM     18  H   UNL     1      -5.378   3.147  -2.316  0.00  0.00    -0.089 HD
ENDBRANCH  14  15
BRANCH  14  19
ATOM     19  C   UNL     1      -5.488   4.111   0.957  0.00  0.00    -0.023 C 
ATOM     20  C   UNL     1      -4.512   4.862   1.865  0.00  0.00    +0.006 C 
ATOM     21  C   UNL     1      -6.801   4.892   0.863  0.00  0.00    +0.006 C 
ENDBRANCH  14  19
ENDBRANCH   2  14
TORSDOF 4
