REMARK  Name = ZINC09348942
REMARK  10 active torsions:
REMARK  status: ('A' for Active; 'I' for Inactive)
REMARK    1  A    between atoms: C_1  and  C_2
REMARK    2  A    between atoms: C_2  and  C_3
REMARK    3  A    between atoms: C_2  and  C_4
REMARK    4  A    between atoms: C_2  and  C_5
REMARK    5  A    between atoms: C_8  and  C_11
REMARK    6  A    between atoms: N_13  and  C_14
REMARK    7  A    between atoms: C_14  and  C_15
REMARK    8  A    between atoms: N_17  and  N_18
REMARK    9  A    between atoms: N_26  and  C_29
REMARK   10  A    between atoms: C_29  and  C_30
REMARK                            x       y       z     vdW  Elec       q    Type
REMARK                         _______ _______ _______ _____ _____    ______ ____
ROOT
ATOM      1  N   UNL     1       8.224  -1.308  -7.192  0.00  0.00    -0.174 NA
ATOM      2  C   UNL     1       9.026  -1.609  -8.184  0.00  0.00    +0.153 C 
ATOM      3  C   UNL     1      10.440  -1.201  -8.357  0.00  0.00    +0.028 A 
ATOM      4  C   UNL     1      11.309  -0.430  -7.593  0.00  0.00    +0.012 A 
ATOM      5  C   UNL     1      12.602  -0.221  -8.028  0.00  0.00    +0.001 A 
ATOM      6  C   UNL     1      13.031  -0.778  -9.221  0.00  0.00    +0.002 A 
ATOM      7  C   UNL     1      12.176  -1.545  -9.986  0.00  0.00    +0.024 A 
ATOM      8  C   UNL     1      10.870  -1.766  -9.565  0.00  0.00    +0.046 A 
ATOM      9  N   UNL     1       9.824  -2.485 -10.134  0.00  0.00    -0.261 N 
ATOM     10  C   UNL     1       8.720  -2.436  -9.370  0.00  0.00    +0.272 C 
ATOM     11  O   UNL     1       7.656  -2.974  -9.612  0.00  0.00    -0.268 OA
ENDROOT
BRANCH   1  14
ATOM     12  C   UNL     1       6.083  -1.477  -6.166  0.00  0.00    +0.249 C 
ATOM     13  O   UNL     1       6.480  -0.783  -5.255  0.00  0.00    -0.272 OA
ATOM     14  N   UNL     1       6.908  -1.787  -7.186  0.00  0.00    -0.205 N 
ATOM     15  H   UNL     1       6.590  -2.343  -7.915  0.00  0.00    +0.177 HD
BRANCH  12  16
ATOM     16  C   UNL     1       4.667  -1.994  -6.158  0.00  0.00    +0.202 C 
BRANCH  16  19
ATOM     17  C   UNL     1       2.696  -1.860  -4.732  0.00  0.00    +0.244 C 
ATOM     18  O   UNL     1       2.106  -2.559  -5.533  0.00  0.00    -0.270 OA
ATOM     19  N   UNL     1       3.981  -1.521  -4.953  0.00  0.00    -0.303 N 
ATOM     20  H   UNL     1       4.452  -0.963  -4.314  0.00  0.00    +0.150 HD
BRANCH  17  24
ATOM     21  C   UNL     1       0.707  -0.490  -1.238  0.00  0.00    -0.042 A 
ATOM     22  C   UNL     1       0.033  -1.285  -2.147  0.00  0.00    +0.005 A 
ATOM     23  C   UNL     1       0.672  -1.733  -3.284  0.00  0.00    +0.013 A 
ATOM     24  C   UNL     1       2.004  -1.383  -3.516  0.00  0.00    +0.037 A 
ATOM     25  C   UNL     1       2.679  -0.581  -2.595  0.00  0.00    +0.013 A 
ATOM     26  C   UNL     1       2.025  -0.135  -1.464  0.00  0.00    +0.005 A 
BRANCH  21  28
ATOM     27  C   UNL     1      -0.019   1.526   0.010  0.00  0.00    +0.015 C 
ATOM     28  C   UNL     1       0.002  -0.004   0.002  0.00  0.00    -0.013 C 
ATOM     29  C   UNL     1       0.742  -0.511   1.242  0.00  0.00    +0.015 C 
ATOM     30  C   UNL     1      -1.433  -0.534   0.013  0.00  0.00    +0.015 C 
ENDBRANCH  21  28
ENDBRANCH  17  24
ENDBRANCH  16  19
ENDBRANCH  12  16
ENDBRANCH   1  14
BRANCH   9  31
ATOM     31  C   UNL     1       9.917  -3.209 -11.404  0.00  0.00    +0.149 C 
BRANCH  31  32
ATOM     32  C   UNL     1      10.370  -4.622 -11.144  0.00  0.00    -0.026 A 
ATOM     33  C   UNL     1      11.720  -4.923 -11.133  0.00  0.00    +0.009 A 
ATOM     34  C   UNL     1      12.141  -6.218 -10.895  0.00  0.00    +0.050 A 
ATOM     35  C   UNL     1      11.210  -7.218 -10.666  0.00  0.00    +0.166 A 
ATOM     36  C   UNL     1       9.851  -6.916 -10.677  0.00  0.00    +0.167 A 
ATOM     37  C   UNL     1       9.436  -5.615 -10.911  0.00  0.00    +0.054 A 
ATOM     38  O   UNL     1       9.147  -8.059 -10.429  0.00  0.00    -0.453 OA
ATOM     39  C   UNL     1      10.069  -9.138 -10.671  0.00  0.00    +0.466 C 
ATOM     40  O   UNL     1      11.358  -8.551 -10.411  0.00  0.00    -0.453 OA
ENDBRANCH  31  32
ENDBRANCH   9  31
TORSDOF 7
