REMARK  Name = ZINC00671853
REMARK  7 active torsions:
REMARK  status: ('A' for Active; 'I' for Inactive)
REMARK    1  A    between atoms: C_1  and  C_2
REMARK    2  A    between atoms: C_9  and  N_14
REMARK    3  A    between atoms: C_10  and  C_11
REMARK    4  A    between atoms: C_15  and  C_17
REMARK    5  A    between atoms: C_17  and  C_19
REMARK    6  A    between atoms: C_17  and  O_20
REMARK    7  A    between atoms: O_20  and  C_21
REMARK                            x       y       z     vdW  Elec       q    Type
REMARK                         _______ _______ _______ _____ _____    ______ ____
ROOT
ATOM      1  C   UNL     1      -0.627   1.854  -0.212  0.00  0.00    +0.008 C 
ATOM      2  C   UNL     1      -0.511   0.337  -0.060  0.00  0.00    -0.009 C 
ATOM      3  C   UNL     1       0.079   0.002   1.313  0.00  0.00    +0.008 C 
ATOM      4  C   UNL     1       0.428  -1.486   1.381  0.00  0.00    +0.037 C 
ATOM      5  C   UNL     1      -0.795  -2.295   0.970  0.00  0.00    -0.023 A 
ATOM      6  C   UNL     1      -1.808  -1.725   0.283  0.00  0.00    -0.004 A 
ATOM      7  S   UNL     1      -2.980  -3.029   0.037  0.00  0.00    -0.077 S 
ATOM      8  C   UNL     1      -2.137  -4.316   0.836  0.00  0.00    +0.084 A 
ATOM      9  C   UNL     1      -0.970  -3.706   1.273  0.00  0.00    +0.068 A 
ATOM     10  C   UNL     1      -1.904  -0.300  -0.168  0.00  0.00    +0.046 C 
ENDROOT
BRANCH   9  11
ATOM     11  C   UNL     1       0.049  -4.456   2.014  0.00  0.00    +0.244 C 
ATOM     12  O   UNL     1      -0.001  -4.515   3.228  0.00  0.00    -0.270 OA
ATOM     13  N   UNL     1       1.041  -5.082   1.349  0.00  0.00    -0.325 N 
ATOM     14  H   UNL     1       1.081  -5.036   0.381  0.00  0.00    +0.145 HD
ATOM     15  H   UNL     1       1.715  -5.579   1.839  0.00  0.00    +0.145 HD
ENDBRANCH   9  11
BRANCH   8  16
ATOM     16  N   UNL     1      -2.533  -5.635   0.997  0.00  0.00    -0.276 N 
ATOM     17  C   UNL     1      -3.714  -6.050   0.498  0.00  0.00    +0.258 C 
ATOM     18  O   UNL     1      -4.431  -5.270  -0.092  0.00  0.00    -0.271 OA
ATOM     19  H   UNL     1      -1.959  -6.259   1.469  0.00  0.00    +0.155 HD
BRANCH  17  20
ATOM     20  C   UNL     1      -4.144  -7.484   0.674  0.00  0.00    +0.256 C 
ATOM     21  C   UNL     1      -3.187  -8.401  -0.091  0.00  0.00    +0.062 C 
BRANCH  20  22
ATOM     22  O   UNL     1      -5.469  -7.649   0.167  0.00  0.00    -0.480 OA
BRANCH  22  23
ATOM     23  C   UNL     1      -6.204  -8.670   0.681  0.00  0.00    +0.123 A 
ATOM     24  C   UNL     1      -5.625  -9.564   1.571  0.00  0.00    +0.046 A 
ATOM     25  C   UNL     1      -6.373 -10.600   2.093  0.00  0.00    +0.005 A 
ATOM     26  C   UNL     1      -7.699 -10.749   1.731  0.00  0.00    +0.020 A 
ATOM     27  C   UNL     1      -8.280  -9.860   0.844  0.00  0.00    +0.044 A 
ATOM     28  C   UNL     1      -7.536  -8.817   0.323  0.00  0.00    +0.065 A 
ATOM     29 CL   UNL     1      -9.945 -10.048   0.391  0.00  0.00    -0.083 Cl
ENDBRANCH  22  23
ENDBRANCH  20  22
ENDBRANCH  17  20
ENDBRANCH   8  16
TORSDOF 5
