REMARK  Name = ZINC02838054
REMARK  10 active torsions:
REMARK  status: ('A' for Active; 'I' for Inactive)
REMARK    1  A    between atoms: C_1  and  C_2
REMARK    2  A    between atoms: C_2  and  N_3
REMARK    3  A    between atoms: C_4  and  C_21
REMARK    4  A    between atoms: C_7  and  S_8
REMARK    5  A    between atoms: S_8  and  C_9
REMARK    6  A    between atoms: C_9  and  C_10
REMARK    7  A    between atoms: N_12  and  C_13
REMARK    8  A    between atoms: C_21  and  N_22
REMARK    9  A    between atoms: C_23  and  C_25
REMARK   10  A    between atoms: C_29  and  N_31
REMARK                            x       y       z     vdW  Elec       q    Type
REMARK                         _______ _______ _______ _____ _____    ______ ____
ROOT
ATOM      1  N   UNL     1       3.268   8.237   1.115  0.00  0.00    -0.305 N 
ATOM      2  C   UNL     1       2.501   7.948   0.020  0.00  0.00    +0.151 A 
ATOM      3  N   UNL     1       3.213   8.224  -1.036  0.00  0.00    -0.132 NA
ATOM      4  N   UNL     1       4.370   8.659  -0.686  0.00  0.00    -0.122 NA
ATOM      5  C   UNL     1       4.460   8.685   0.624  0.00  0.00    +0.192 A 
ENDROOT
BRANCH   1   7
ATOM      6  C   UNL     1       3.267   6.692   3.011  0.00  0.00    +0.027 C 
ATOM      7  C   UNL     1       2.889   8.092   2.522  0.00  0.00    +0.122 C 
ENDBRANCH   1   7
BRANCH   5   8
ATOM      8  S   UNL     1       5.853   9.206   1.568  0.00  0.00    -0.077 S 
BRANCH   8   9
ATOM      9  C   UNL     1       6.993   9.644   0.232  0.00  0.00    +0.173 C 
BRANCH   9  10
ATOM     10  C   UNL     1       8.292  10.131   0.820  0.00  0.00    +0.228 C 
ATOM     11  O   UNL     1       8.433  10.178   2.024  0.00  0.00    -0.275 OA
ATOM     12  N   UNL     1       9.297  10.516   0.008  0.00  0.00    -0.284 N 
ATOM     13  H   UNL     1       9.209  10.418  -0.953  0.00  0.00    +0.155 HD
BRANCH  12  14
ATOM     14  C   UNL     1      10.468  11.056   0.552  0.00  0.00    +0.053 A 
ATOM     15  C   UNL     1      10.948  10.593   1.770  0.00  0.00    +0.025 A 
ATOM     16  C   UNL     1      12.104  11.128   2.304  0.00  0.00    +0.003 A 
ATOM     17  C   UNL     1      12.785  12.124   1.628  0.00  0.00    +0.021 A 
ATOM     18  C   UNL     1      12.310  12.588   0.414  0.00  0.00    +0.061 A 
ATOM     19  C   UNL     1      11.156  12.053  -0.129  0.00  0.00    +0.080 A 
ATOM     20 CL   UNL     1      10.564  12.631  -1.655  0.00  0.00    -0.080 Cl
ATOM     21 CL   UNL     1      13.167  13.839  -0.431  0.00  0.00    -0.082 Cl
ENDBRANCH  12  14
ENDBRANCH   9  10
ENDBRANCH   8   9
ENDBRANCH   5   8
BRANCH   2  22
ATOM     22  C   UNL     1       1.091   7.416   0.032  0.00  0.00    +0.181 C 
BRANCH  22  23
ATOM     23  N   UNL     1       1.122   5.951   0.028  0.00  0.00    -0.304 N 
ATOM     24  C   UNL     1      -0.031   5.253   0.037  0.00  0.00    +0.244 C 
ATOM     25  O   UNL     1      -1.096   5.838   0.049  0.00  0.00    -0.270 OA
ATOM     26  H   UNL     1       1.972   5.484   0.019  0.00  0.00    +0.149 HD
BRANCH  24  27
ATOM     27  C   UNL     1       0.001   3.775   0.033  0.00  0.00    +0.039 A 
ATOM     28  C   UNL     1       1.222   3.099   0.020  0.00  0.00    +0.013 A 
ATOM     29  C   UNL     1       1.244   1.720   0.016  0.00  0.00    +0.003 A 
ATOM     30  C   UNL     1       0.059   1.006   0.025  0.00  0.00    +0.033 A 
ATOM     31  C   UNL     1      -1.155   1.669   0.032  0.00  0.00    +0.127 A 
ATOM     32  C   UNL     1      -1.191   3.048   0.042  0.00  0.00    +0.045 A 
BRANCH  31  33
ATOM     33  N   UNL     1      -2.418   0.897   0.034  0.00  0.00    +0.056 N 
ATOM     34  O   UNL     1      -2.388  -0.320   0.030  0.00  0.00    -0.126 OA
ATOM     35  O   UNL     1      -3.488   1.480   0.041  0.00  0.00    -0.126 OA
ENDBRANCH  31  33
ENDBRANCH  24  27
ENDBRANCH  22  23
ENDBRANCH   2  22
TORSDOF 9
