REMARK  Name = ZINC08968957
REMARK  6 active torsions:
REMARK  status: ('A' for Active; 'I' for Inactive)
REMARK    1  A    between atoms: C_1  and  C_2
REMARK    2  A    between atoms: C_5  and  C_33
REMARK    3  A    between atoms: C_9  and  C_10
REMARK    4  A    between atoms: C_9  and  N_57
REMARK    5  A    between atoms: C_11  and  O_32
REMARK    6  A    between atoms: C_20  and  C_21
REMARK                            x       y       z     vdW  Elec       q    Type
REMARK                         _______ _______ _______ _____ _____    ______ ____
ROOT
ATOM      1  C   UNL     1       1.144  -2.090  -0.021  0.00  0.00    +0.020 A 
ATOM      2  C   UNL     1       2.340  -2.789  -0.037  0.00  0.00    +0.122 A 
ATOM      3  C   UNL     1       3.556  -2.111  -0.045  0.00  0.00    +0.046 A 
ATOM      4  C   UNL     1       3.585  -0.745  -0.037  0.00  0.00    +0.016 A 
ATOM      5  C   UNL     1       2.389  -0.026  -0.021  0.00  0.00    +0.026 A 
ATOM      6  C   UNL     1       1.157  -0.703  -0.013  0.00  0.00    +0.144 A 
ATOM      7  O   UNL     1       0.002  -0.004   0.002  0.00  0.00    -0.422 OA
ATOM      8  C   UNL     1      -0.016   1.338   0.009  0.00  0.00    +0.338 A 
ATOM      9  O   UNL     1      -1.089   1.916   0.018  0.00  0.00    -0.245 OA
ATOM     10  C   UNL     1       1.165   2.095   0.002  0.00  0.00    +0.101 A 
ATOM     11  C   UNL     1       2.390   1.448  -0.013  0.00  0.00    +0.006 A 
ENDROOT
BRANCH  11  12
ATOM     12  C   UNL     1       3.653   2.208  -0.020  0.00  0.00    +0.068 A 
ATOM     13  C   UNL     1       4.007   2.996   1.060  0.00  0.00    +0.027 A 
ATOM     14  C   UNL     1       5.231   3.711   1.010  0.00  0.00    +0.018 A 
ATOM     15  C   UNL     1       5.620   4.519   2.089  0.00  0.00    +0.011 A 
ATOM     16  C   UNL     1       6.800   5.204   2.034  0.00  0.00    +0.001 A 
ATOM     17  C   UNL     1       7.619   5.107   0.918  0.00  0.00    +0.004 A 
ATOM     18  C   UNL     1       7.257   4.318  -0.152  0.00  0.00    +0.047 A 
ATOM     19  C   UNL     1       6.060   3.610  -0.121  0.00  0.00    +0.139 A 
ATOM     20  O   UNL     1       5.707   2.839  -1.171  0.00  0.00    -0.422 OA
ATOM     21  C   UNL     1       4.561   2.138  -1.172  0.00  0.00    +0.345 A 
ATOM     22  O   UNL     1       4.272   1.447  -2.131  0.00  0.00    -0.245 OA
ENDBRANCH  11  12
BRANCH   2  23
ATOM     23  O   UNL     1       2.326  -4.147  -0.044  0.00  0.00    -0.506 OA
ATOM     24  H   UNL     1       2.331  -4.545   0.837  0.00  0.00    +0.292 HD
ENDBRANCH   2  23
BRANCH   1  25
ATOM     25  C   UNL     1      -0.166  -2.833  -0.012  0.00  0.00    -0.036 C 
BRANCH  25  33
ATOM     26  C   UNL     1      -3.446  -5.071  -2.915  0.00  0.00    +0.005 C 
ATOM     27  C   UNL     1      -2.269  -4.095  -2.870  0.00  0.00    -0.031 C 
ATOM     28  C   UNL     1      -1.147  -4.603  -3.779  0.00  0.00    +0.003 C 
ATOM     29  C   UNL     1       0.049  -3.652  -3.681  0.00  0.00    -0.031 C 
ATOM     30  C   UNL     1       0.503  -3.559  -2.223  0.00  0.00    -0.075 C 
ATOM     31  C   UNL     1      -1.748  -3.989  -1.435  0.00  0.00    -0.075 C 
ATOM     32  C   UNL     1       1.197  -4.185  -4.541  0.00  0.00    +0.005 C 
ATOM     33  N   UNL     1      -0.615  -3.040  -1.405  0.00  0.00    +0.383 N 
ATOM     34  H   UNL     1      -0.922  -2.141  -1.793  0.00  0.00    -0.081 HD
ENDBRANCH  25  33
ENDBRANCH   1  25
TORSDOF 4
