REMARK  Name = ZINC14536096
REMARK  8 active torsions:
REMARK  status: ('A' for Active; 'I' for Inactive)
REMARK    1  A    between atoms: C_1  and  C_2
REMARK    2  A    between atoms: C_2  and  N_3
REMARK    3  A    between atoms: C_6  and  C_8
REMARK    4  A    between atoms: C_16  and  N_76
REMARK    5  A    between atoms: C_18  and  N_78
REMARK    6  A    between atoms: C_22  and  C_23
REMARK    7  A    between atoms: C_22  and  N_78
REMARK    8  A    between atoms: C_23  and  C_29
REMARK                            x       y       z     vdW  Elec       q    Type
REMARK                         _______ _______ _______ _____ _____    ______ ____
ROOT
ATOM      1  N   UNL     1      -0.797   5.122  -2.721  0.00  0.00    -0.268 N 
ATOM      2  C   UNL     1      -1.955   5.788  -2.861  0.00  0.00    +0.043 A 
ATOM      3  C   UNL     1      -2.946   4.961  -2.445  0.00  0.00    +0.004 A 
ATOM      4  C   UNL     1      -2.314   3.774  -2.040  0.00  0.00    +0.151 A 
ATOM      5  N   UNL     1      -1.018   3.948  -2.240  0.00  0.00    -0.166 NA
ATOM      6  C   UNL     1      -4.408   5.312  -2.446  0.00  0.00    +0.023 C 
ATOM      7  C   UNL     1      -4.609   6.537  -3.348  0.00  0.00    -0.067 C 
ATOM      8  C   UNL     1      -3.598   7.623  -2.969  0.00  0.00    -0.009 C 
ATOM      9  C   UNL     1      -2.188   7.185  -3.378  0.00  0.00    +0.054 C 
ENDROOT
BRANCH   4  10
ATOM     10  C   UNL     1      -2.969   2.564  -1.502  0.00  0.00    +0.267 C 
ATOM     11  O   UNL     1      -4.182   2.491  -1.475  0.00  0.00    -0.268 OA
ATOM     12  N   UNL     1      -2.222   1.542  -1.040  0.00  0.00    -0.298 N 
ATOM     13  C   UNL     1      -0.782   1.634  -1.148  0.00  0.00    +0.106 C 
ATOM     14  C   UNL     1      -0.322   1.010  -2.489  0.00  0.00    +0.000 C 
ATOM     15  C   UNL     1      -0.520  -0.452  -2.452  0.00  0.00    -0.078 C 
ATOM     16  C   UNL     1      -2.267  -0.949  -0.894  0.00  0.00    -0.060 C 
ATOM     17  C   UNL     1      -2.909   0.377  -0.445  0.00  0.00    +0.089 C 
ATOM     18  C   UNL     1      -2.158  -2.146  -2.976  0.00  0.00    -0.096 C 
ATOM     19  N   UNL     1      -1.927  -0.849  -2.306  0.00  0.00    +0.379 N 
ATOM     20  H   UNL     1      -2.523  -0.136  -2.744  0.00  0.00    -0.082 HD
ENDBRANCH   4  10
BRANCH   7  21
ATOM     21  N   UNL     1      -5.979   7.054  -3.165  0.00  0.00    +0.382 N 
ATOM     22  H   UNL     1      -5.997   7.684  -2.354  0.00  0.00    -0.085 HD
ATOM     23  H   UNL     1      -6.618   6.268  -3.002  0.00  0.00    -0.085 HD
BRANCH  21  24
ATOM     24  C   UNL     1      -6.412   7.793  -4.365  0.00  0.00    -0.071 C 
BRANCH  24  25
ATOM     25  C   UNL     1      -7.833   8.317  -4.146  0.00  0.00    -0.019 C 
ATOM     26  C   UNL     1      -8.777   7.139  -3.898  0.00  0.00    +0.010 C 
ATOM     27  C   UNL     1      -8.759   6.207  -5.111  0.00  0.00    +0.001 C 
ATOM     28  C   UNL     1      -9.216   6.975  -6.353  0.00  0.00    +0.000 C 
ATOM     29  C   UNL     1      -8.272   8.153  -6.600  0.00  0.00    +0.001 C 
ATOM     30  C   UNL     1      -8.290   9.085  -5.388  0.00  0.00    +0.010 C 
BRANCH  25  31
ATOM     31  C   UNL     1      -7.851   9.236  -2.952  0.00  0.00    -0.043 A 
ATOM     32  C   UNL     1      -8.239  10.554  -3.100  0.00  0.00    +0.004 A 
ATOM     33  C   UNL     1      -8.260  11.395  -2.003  0.00  0.00    +0.000 A 
ATOM     34  C   UNL     1      -7.884  10.921  -0.760  0.00  0.00    +0.000 A 
ATOM     35  C   UNL     1      -7.491   9.604  -0.614  0.00  0.00    +0.000 A 
ATOM     36  C   UNL     1      -7.474   8.761  -1.709  0.00  0.00    +0.004 A 
ENDBRANCH  25  31
ENDBRANCH  24  25
ENDBRANCH  21  24
ENDBRANCH   7  21
BRANCH   1  38
ATOM     37  C   UNL     1       0.846   5.317  -4.521  0.00  0.00    +0.029 C 
ATOM     38  C   UNL     1       0.524   5.654  -3.064  0.00  0.00    +0.140 C 
ENDBRANCH   1  38
TORSDOF 6
