REMARK  Name = ZINC09430597
REMARK  7 active torsions:
REMARK  status: ('A' for Active; 'I' for Inactive)
REMARK    1  A    between atoms: C_1  and  C_2
REMARK    2  A    between atoms: C_7  and  S_15
REMARK    3  A    between atoms: C_12  and  C_14
REMARK    4  A    between atoms: S_15  and  N_18
REMARK    5  A    between atoms: N_18  and  C_19
REMARK    6  A    between atoms: C_19  and  C_20
REMARK    7  A    between atoms: C_23  and  C_26
REMARK                            x       y       z     vdW  Elec       q    Type
REMARK                         _______ _______ _______ _____ _____    ______ ____
ROOT
ATOM      1  N   UNL     1      -1.866   2.017  -1.228  0.00  0.00    -0.190 NA
ATOM      2  H   UNL     1      -2.454   1.468  -1.770  0.00  0.00    +0.148 HD
ENDROOT
BRANCH   1   3
ATOM      3  S   UNL     1      -1.204   1.403   0.160  0.00  0.00    +0.058 S 
ATOM      4  O   UNL     1      -1.702   0.079   0.295  0.00  0.00    -0.153 OA
ATOM      5  O   UNL     1       0.186   1.692   0.109  0.00  0.00    -0.153 OA
BRANCH   3  11
ATOM      6  C   UNL     1      -1.595   5.709   6.151  0.00  0.00    +0.029 C 
ATOM      7  C   UNL     1      -2.266   5.739   4.777  0.00  0.00    +0.083 C 
ATOM      8  C   UNL     1      -1.234   5.456   3.673  0.00  0.00    +0.059 C 
ATOM      9  C   UNL     1      -1.730   4.195   3.002  0.00  0.00    -0.022 A 
ATOM     10  C   UNL     1      -1.212   3.465   1.949  0.00  0.00    +0.034 A 
ATOM     11  C   UNL     1      -1.863   2.329   1.506  0.00  0.00    +0.106 A 
ATOM     12  C   UNL     1      -3.029   1.918   2.125  0.00  0.00    +0.030 A 
ATOM     13  C   UNL     1      -3.547   2.641   3.178  0.00  0.00    +0.026 A 
ATOM     14  C   UNL     1      -2.898   3.793   3.628  0.00  0.00    +0.040 A 
ATOM     15  N   UNL     1      -3.251   4.660   4.668  0.00  0.00    -0.268 N 
ATOM     16  C   UNL     1      -4.337   4.522   5.454  0.00  0.00    +0.217 C 
ATOM     17  O   UNL     1      -5.133   3.634   5.237  0.00  0.00    -0.276 OA
ATOM     18  C   UNL     1      -4.561   5.472   6.602  0.00  0.00    +0.109 C 
ENDBRANCH   3  11
ENDBRANCH   1   3
BRANCH   1  19
ATOM     19  C   UNL     1      -1.563   3.391  -1.638  0.00  0.00    +0.109 C 
BRANCH  19  20
ATOM     20  C   UNL     1      -1.973   3.589  -3.099  0.00  0.00    +0.005 C 
ATOM     21  C   UNL     1      -1.111   2.699  -3.996  0.00  0.00    +0.005 C 
ATOM     22  C   UNL     1      -1.521   2.898  -5.457  0.00  0.00    +0.013 C 
ATOM     23  C   UNL     1      -1.321   4.363  -5.848  0.00  0.00    +0.076 C 
ATOM     24  C   UNL     1      -2.183   5.253  -4.951  0.00  0.00    +0.013 C 
ATOM     25  C   UNL     1      -1.773   5.055  -3.490  0.00  0.00    +0.005 C 
BRANCH  23  26
ATOM     26  C   UNL     1      -1.725   4.559  -7.287  0.00  0.00    +0.223 C 
ATOM     27  O   UNL     1      -2.833   4.971  -7.555  0.00  0.00    -0.275 OA
ATOM     28  N   UNL     1      -0.854   4.275  -8.276  0.00  0.00    -0.271 N 
ATOM     29  C   UNL     1       0.469   3.674  -8.084  0.00  0.00    +0.118 C 
ATOM     30  C   UNL     1       1.066   3.554  -9.496  0.00  0.00    +0.056 C 
ATOM     31  C   UNL     1      -0.001   4.114 -10.409  0.00  0.00    -0.024 A 
ATOM     32  C   UNL     1      -1.082   4.507  -9.636  0.00  0.00    +0.039 A 
ATOM     33  C   UNL     1      -2.197   5.065 -10.263  0.00  0.00    +0.024 A 
ATOM     34  C   UNL     1      -2.222   5.213 -11.634  0.00  0.00    +0.002 A 
ATOM     35  C   UNL     1      -1.140   4.814 -12.397  0.00  0.00    +0.000 A 
ATOM     36  C   UNL     1      -0.030   4.264 -11.782  0.00  0.00    +0.005 A 
ENDBRANCH  23  26
ENDBRANCH  19  20
ENDBRANCH   1  19
TORSDOF 5
