REMARK  Name = ZINC65034938
REMARK  8 active torsions:
REMARK  status: ('A' for Active; 'I' for Inactive)
REMARK    1  A    between atoms: C_1  and  C_2
REMARK    2  A    between atoms: C_4  and  C_31
REMARK    3  A    between atoms: N_13  and  C_18
REMARK    4  A    between atoms: C_18  and  C_19
REMARK    5  A    between atoms: N_21  and  C_22
REMARK    6  A    between atoms: C_22  and  C_23
REMARK    7  A    between atoms: C_26  and  O_29
REMARK    8  A    between atoms: O_29  and  C_30
REMARK                            x       y       z     vdW  Elec       q    Type
REMARK                         _______ _______ _______ _____ _____    ______ ____
ROOT
ATOM      1  C   UNL     1      -0.018   1.503   0.010  0.00  0.00    +0.044 C 
ATOM      2  C   UNL     1       0.002  -0.004   0.002  0.00  0.00    -0.049 A 
ATOM      3  C   UNL     1       0.006  -0.686  -1.207  0.00  0.00    +0.008 A 
ATOM      4  C   UNL     1       0.025  -2.063  -1.238  0.00  0.00    -0.026 A 
ATOM      5  C   UNL     1       0.041  -2.780  -0.045  0.00  0.00    +0.053 A 
ATOM      6  C   UNL     1       0.037  -2.083   1.176  0.00  0.00    +0.046 A 
ATOM      7  C   UNL     1       0.023  -0.688   1.185  0.00  0.00    +0.017 A 
ATOM      8  C   UNL     1       0.053  -2.865   2.421  0.00  0.00    +0.191 A 
ATOM      9  O   UNL     1       0.051  -2.311   3.508  0.00  0.00    -0.287 OA
ATOM     10  C   UNL     1       0.071  -4.282   2.328  0.00  0.00    +0.002 A 
ATOM     11  H   UNL     1       0.067  -4.625  -0.883  0.00  0.00    +0.166 HD
ATOM     12  C   UNL     1       0.096  -5.066   3.613  0.00  0.00    -0.037 C 
ATOM     13  N   UNL     1      -0.319  -6.452   3.386  0.00  0.00    +0.388 N 
ATOM     14  C   UNL     1       0.507  -7.021   2.309  0.00  0.00    -0.072 C 
ATOM     15  C   UNL     1       0.082  -6.383   0.988  0.00  0.00    +0.035 C 
ATOM     16  C   UNL     1       0.072  -4.877   1.119  0.00  0.00    +0.020 A 
ATOM     17  N   UNL     1       0.061  -4.153  -0.036  0.00  0.00    -0.357 N 
ATOM     18  C   UNL     1       0.028  -2.790  -2.558  0.00  0.00    +0.046 C 
ATOM     19  H   UNL     1      -1.291  -6.475   3.115  0.00  0.00    -0.081 HD
ENDROOT
BRANCH  13  20
ATOM     20  C   UNL     1      -0.129  -7.232   4.617  0.00  0.00    +0.019 C 
BRANCH  20  21
ATOM     21  C   UNL     1      -1.052  -6.711   5.689  0.00  0.00    +0.197 C 
ATOM     22  O   UNL     1      -1.796  -5.783   5.450  0.00  0.00    -0.278 OA
ATOM     23  N   UNL     1      -1.052  -7.278   6.912  0.00  0.00    -0.313 N 
ATOM     24  H   UNL     1      -0.458  -8.020   7.102  0.00  0.00    +0.149 HD
BRANCH  23  25
ATOM     25  C   UNL     1      -1.950  -6.772   7.953  0.00  0.00    +0.139 C 
BRANCH  25  26
ATOM     26  C   UNL     1      -1.755  -7.571   9.216  0.00  0.00    -0.030 A 
ATOM     27  C   UNL     1      -2.509  -8.709   9.435  0.00  0.00    +0.009 A 
ATOM     28  C   UNL     1      -2.332  -9.443  10.592  0.00  0.00    +0.046 A 
ATOM     29  C   UNL     1      -1.397  -9.038  11.534  0.00  0.00    +0.120 A 
ATOM     30  C   UNL     1      -0.642  -7.896  11.311  0.00  0.00    +0.046 A 
ATOM     31  C   UNL     1      -0.819  -7.168  10.150  0.00  0.00    +0.009 A 
BRANCH  29  32
ATOM     32  O   UNL     1      -1.222  -9.758  12.673  0.00  0.00    -0.495 OA
ATOM     33  C   UNL     1      -0.242  -9.282  13.598  0.00  0.00    +0.277 C 
ENDBRANCH  29  32
ENDBRANCH  25  26
ENDBRANCH  23  25
ENDBRANCH  20  21
ENDBRANCH  13  20
TORSDOF 5
