REMARK  Name = ZINC62873724
REMARK  9 active torsions:
REMARK  status: ('A' for Active; 'I' for Inactive)
REMARK    1  A    between atoms: C_1  and  C_2
REMARK    2  A    between atoms: C_2  and  C_3
REMARK    3  A    between atoms: C_3  and  C_19
REMARK    4  A    between atoms: N_11  and  C_12
REMARK    5  A    between atoms: C_12  and  C_14
REMARK    6  A    between atoms: C_12  and  C_15
REMARK    7  A    between atoms: C_15  and  C_16
REMARK    8  A    between atoms: C_16  and  C_17
REMARK    9  A    between atoms: C_16  and  C_18
REMARK                            x       y       z     vdW  Elec       q    Type
REMARK                         _______ _______ _______ _____ _____    ______ ____
ROOT
ATOM      1  C   UNL     1      -1.438  -0.530   0.013  0.00  0.00    +0.087 C 
ATOM      2  C   UNL     1      -1.414  -2.061   0.006  0.00  0.00    +0.021 C 
ATOM      3  C   UNL     1      -0.641  -2.565   1.227  0.00  0.00    +0.020 C 
ATOM      4  C   UNL     1      -1.348  -2.098   2.503  0.00  0.00    +0.109 C 
ATOM      5  N   UNL     1      -1.506  -0.638   2.450  0.00  0.00    -0.285 N 
ATOM      6  C   UNL     1      -2.155  -0.040   1.275  0.00  0.00    +0.127 C 
ATOM      7  C   UNL     1      -1.063   0.138   3.459  0.00  0.00    +0.302 C 
ATOM      8  O   UNL     1      -1.113   1.349   3.362  0.00  0.00    -0.253 OA
ATOM      9  N   UNL     1      -0.566  -0.429   4.576  0.00  0.00    -0.297 N 
ATOM     10  H   UNL     1      -0.459  -1.392   4.625  0.00  0.00    +0.151 HD
ENDROOT
BRANCH   1  11
ATOM     11  C   UNL     1      -2.171  -0.033  -1.207  0.00  0.00    +0.364 C 
ATOM     12  O   UNL     1      -1.600   0.682  -2.012  0.00  0.00    -0.246 OA
ATOM     13  O   UNL     1      -3.336  -0.346  -1.388  0.00  0.00    -0.246 OA
ENDBRANCH   1  11
BRANCH   1  15
ATOM     14  C   UNL     1      -0.030   1.533   0.010  0.00  0.00    +0.005 C 
ATOM     15  C   UNL     1      -0.004   0.004  -0.000  0.00  0.00    +0.016 C 
ENDBRANCH   1  15
BRANCH   9  16
ATOM     16  C   UNL     1      -0.186   0.409   5.716  0.00  0.00    +0.072 C 
ATOM     17  C   UNL     1      -1.419   0.683   6.580  0.00  0.00    +0.028 C 
BRANCH  16  18
ATOM     18  C   UNL     1       0.872  -0.314   6.551  0.00  0.00    +0.025 C 
BRANCH  18  19
ATOM     19  C   UNL     1       2.150  -0.477   5.726  0.00  0.00    -0.015 C 
ATOM     20  C   UNL     1       2.743   0.901   5.427  0.00  0.00    +0.007 C 
ATOM     21  C   UNL     1       3.164  -1.309   6.514  0.00  0.00    +0.007 C 
ENDBRANCH  18  19
ENDBRANCH  16  18
ENDBRANCH   9  16
TORSDOF 5
