REMARK  Name = ZINC46017410
REMARK  10 active torsions:
REMARK  status: ('A' for Active; 'I' for Inactive)
REMARK    1  A    between atoms: C_1  and  N_2
REMARK    2  A    between atoms: C_8  and  S_9
REMARK    3  A    between atoms: S_9  and  C_10
REMARK    4  A    between atoms: C_10  and  C_11
REMARK    5  A    between atoms: C_18  and  C_24
REMARK    6  A    between atoms: C_28  and  O_34
REMARK    7  A    between atoms: C_29  and  O_30
REMARK    8  A    between atoms: O_30  and  C_31
REMARK    9  A    between atoms: C_31  and  C_32
REMARK   10  A    between atoms: O_34  and  C_35
REMARK                            x       y       z     vdW  Elec       q    Type
REMARK                         _______ _______ _______ _____ _____    ______ ____
ROOT
ATOM      1  C   UNL     1      -0.296   1.570  -0.140  0.00  0.00    +0.152 C 
ATOM      2  N   UNL     1      -0.205   0.108  -0.123  0.00  0.00    -0.311 N 
ATOM      3  C   UNL     1      -1.347  -0.648  -0.087  0.00  0.00    +0.116 A 
ATOM      4  C   UNL     1      -1.242  -2.004  -0.072  0.00  0.00    +0.065 A 
ATOM      5  C   UNL     1       0.038  -2.595  -0.095  0.00  0.00    +0.279 A 
ATOM      6  O   UNL     1       0.155  -3.811  -0.083  0.00  0.00    -0.265 OA
ATOM      7  N   UNL     1       1.127  -1.810  -0.130  0.00  0.00    -0.185 NA
ATOM      8  C   UNL     1       1.015  -0.498  -0.149  0.00  0.00    +0.174 A 
ATOM      9  C   UNL     1      -2.478  -2.862  -0.031  0.00  0.00    +0.070 C 
ATOM     10  C   UNL     1      -3.601  -2.175  -0.812  0.00  0.00    +0.109 C 
ATOM     11  C   UNL     1      -3.693  -0.730  -0.398  0.00  0.00    +0.219 C 
ATOM     12  O   UNL     1      -4.774  -0.182  -0.363  0.00  0.00    -0.275 OA
ATOM     13  N   UNL     1      -2.585  -0.042  -0.066  0.00  0.00    -0.271 N 
ATOM     14  H   UNL     1      -2.659   0.891   0.192  0.00  0.00    +0.156 HD
ENDROOT
BRANCH   9  15
ATOM     15  C   UNL     1      -2.908  -3.056   1.400  0.00  0.00    +0.006 A 
ATOM     16  C   UNL     1      -3.095  -1.960   2.221  0.00  0.00    +0.008 A 
ATOM     17  C   UNL     1      -3.489  -2.135   3.534  0.00  0.00    +0.004 A 
ATOM     18  C   UNL     1      -3.697  -3.408   4.033  0.00  0.00    +0.049 A 
ATOM     19  C   UNL     1      -3.511  -4.511   3.216  0.00  0.00    +0.162 A 
ATOM     20  C   UNL     1      -3.120  -4.334   1.892  0.00  0.00    +0.166 A 
BRANCH  19  21
ATOM     21  O   UNL     1      -3.715  -5.763   3.705  0.00  0.00    -0.491 OA
ATOM     22  C   UNL     1      -4.120  -5.868   5.071  0.00  0.00    +0.277 C 
ENDBRANCH  19  21
BRANCH  20  23
ATOM     23  O   UNL     1      -2.941  -5.413   1.084  0.00  0.00    -0.484 OA
BRANCH  23  24
ATOM     24  C   UNL     1      -1.680  -6.081   1.163  0.00  0.00    +0.256 C 
BRANCH  24  25
ATOM     25  C   UNL     1      -1.618  -7.162   0.114  0.00  0.00    +0.006 C 
ATOM     26  C   UNL     1      -0.542  -7.301  -0.619  0.00  0.00    +0.007 C 
ENDBRANCH  24  25
ENDBRANCH  23  24
ENDBRANCH  20  23
ENDBRANCH   9  15
BRANCH   8  27
ATOM     27  S   UNL     1       2.471   0.493  -0.202  0.00  0.00    -0.083 S 
BRANCH  27  28
ATOM     28  C   UNL     1       3.824  -0.716  -0.224  0.00  0.00    +0.112 C 
BRANCH  28  29
ATOM     29  C   UNL     1       5.144   0.009  -0.270  0.00  0.00    -0.037 A 
ATOM     30  C   UNL     1       5.714   0.330  -1.488  0.00  0.00    +0.006 A 
ATOM     31  C   UNL     1       6.925   0.995  -1.531  0.00  0.00    +0.020 A 
ATOM     32  C   UNL     1       7.567   1.338  -0.355  0.00  0.00    +0.041 A 
ATOM     33  C   UNL     1       6.997   1.016   0.864  0.00  0.00    +0.020 A 
ATOM     34  C   UNL     1       5.783   0.356   0.905  0.00  0.00    +0.006 A 
ATOM     35 CL   UNL     1       9.089   2.172  -0.408  0.00  0.00    -0.084 Cl
ENDBRANCH  28  29
ENDBRANCH  27  28
ENDBRANCH   8  27
TORSDOF 8
