REMARK  Name = ZINC31040099
REMARK  11 active torsions:
REMARK  status: ('A' for Active; 'I' for Inactive)
REMARK    1  A    between atoms: C_1  and  C_2
REMARK    2  A    between atoms: C_2  and  C_4
REMARK    3  A    between atoms: C_2  and  N_19
REMARK    4  A    between atoms: C_6  and  C_9
REMARK    5  A    between atoms: C_13  and  C_15
REMARK    6  A    between atoms: N_19  and  C_20
REMARK    7  A    between atoms: N_19  and  C_21
REMARK    8  A    between atoms: C_21  and  C_22
REMARK    9  A    between atoms: N_24  and  C_25
REMARK   10  A    between atoms: C_30  and  S_31
REMARK   11  A    between atoms: S_31  and  C_32
REMARK                            x       y       z     vdW  Elec       q    Type
REMARK                         _______ _______ _______ _____ _____    ______ ____
ROOT
ATOM      1  C   UNL     1      -0.025   1.551   0.035  0.00  0.00    -0.003 C 
ATOM      2  C   UNL     1      -0.006   0.021   0.015  0.00  0.00    +0.019 C 
ENDROOT
BRANCH   2   3
ATOM      3  C   UNL     1      -1.421  -0.499   0.026  0.00  0.00    +0.214 A 
ATOM      4  N   UNL     1      -2.052  -1.010  -0.992  0.00  0.00    -0.193 NA
ATOM      5  C   UNL     1      -3.296  -1.371  -0.629  0.00  0.00    +0.202 A 
ATOM      6  N   UNL     1      -3.461  -1.087   0.639  0.00  0.00    -0.056 NA
ATOM      7  O   UNL     1      -2.239  -0.518   1.086  0.00  0.00    -0.339 OA
BRANCH   5   8
ATOM      8  C   UNL     1      -4.312  -1.988  -1.518  0.00  0.00    +0.023 A 
ATOM      9  C   UNL     1      -4.009  -2.246  -2.853  0.00  0.00    +0.012 A 
ATOM     10  C   UNL     1      -4.958  -2.820  -3.675  0.00  0.00    +0.001 A 
ATOM     11  C   UNL     1      -6.207  -3.139  -3.174  0.00  0.00    +0.012 A 
ATOM     12  C   UNL     1      -6.513  -2.886  -1.850  0.00  0.00    +0.055 A 
ATOM     13  C   UNL     1      -5.570  -2.317  -1.018  0.00  0.00    +0.024 A 
BRANCH  12  14
ATOM     14  C   UNL     1      -7.877  -3.237  -1.312  0.00  0.00    +0.417 C 
ATOM     15  F   UNL     1      -8.649  -3.801  -2.333  0.00  0.00    -0.166 F 
ATOM     16  F   UNL     1      -7.743  -4.156  -0.266  0.00  0.00    -0.166 F 
ATOM     17  F   UNL     1      -8.503  -2.079  -0.838  0.00  0.00    -0.166 F 
ENDBRANCH  12  14
ENDBRANCH   5   8
ENDBRANCH   2   3
BRANCH   2  18
ATOM     18  N   UNL     1       0.707  -0.475   1.199  0.00  0.00    +0.391 N 
ATOM     19  C   UNL     1       0.725  -1.944   1.180  0.00  0.00    -0.094 C 
ATOM     20  H   UNL     1       0.238  -0.155   2.033  0.00  0.00    -0.080 HD
BRANCH  18  21
ATOM     21  C   UNL     1       2.086   0.031   1.188  0.00  0.00    +0.020 C 
BRANCH  21  22
ATOM     22  C   UNL     1       2.781  -0.375   2.462  0.00  0.00    +0.201 C 
ATOM     23  O   UNL     1       2.186  -1.024   3.297  0.00  0.00    -0.278 OA
ATOM     24  N   UNL     1       4.063  -0.019   2.674  0.00  0.00    -0.286 N 
ATOM     25  H   UNL     1       4.564   0.429   1.974  0.00  0.00    +0.155 HD
BRANCH  24  26
ATOM     26  C   UNL     1       4.674  -0.296   3.905  0.00  0.00    +0.047 A 
ATOM     27  C   UNL     1       3.901  -0.444   5.046  0.00  0.00    +0.024 A 
ATOM     28  C   UNL     1       4.505  -0.717   6.259  0.00  0.00    +0.002 A 
ATOM     29  C   UNL     1       5.880  -0.843   6.339  0.00  0.00    +0.001 A 
ATOM     30  C   UNL     1       6.658  -0.697   5.207  0.00  0.00    +0.016 A 
ATOM     31  C   UNL     1       6.060  -0.429   3.984  0.00  0.00    +0.029 A 
BRANCH  31  32
ATOM     32  S   UNL     1       7.049  -0.249   2.537  0.00  0.00    -0.127 S 
ATOM     33  C   UNL     1       8.745  -0.503   3.130  0.00  0.00    +0.090 C 
ENDBRANCH  31  32
ENDBRANCH  24  26
ENDBRANCH  21  22
ENDBRANCH  18  21
ENDBRANCH   2  18
TORSDOF 8
