REMARK  Name = ZINC12468080
REMARK  9 active torsions:
REMARK  status: ('A' for Active; 'I' for Inactive)
REMARK    1  A    between atoms: C_1  and  C_2
REMARK    2  A    between atoms: C_5  and  C_8
REMARK    3  A    between atoms: C_11  and  C_32
REMARK    4  A    between atoms: C_16  and  C_18
REMARK    5  A    between atoms: N_20  and  C_21
REMARK    6  A    between atoms: C_21  and  C_22
REMARK    7  A    between atoms: C_23  and  C_29
REMARK    8  A    between atoms: N_25  and  C_28
REMARK    9  A    between atoms: C_26  and  C_27
REMARK                            x       y       z     vdW  Elec       q    Type
REMARK                         _______ _______ _______ _____ _____    ______ ____
ROOT
ATOM      1  C   UNL     1       0.059  -4.275  -0.021  0.00  0.00    +0.104 C 
ATOM      2  C   UNL     1      -1.352  -4.810   0.243  0.00  0.00    +0.063 C 
ATOM      3  C   UNL     1      -1.354  -6.341   0.168  0.00  0.00    +0.215 C 
ATOM      4  N   UNL     1      -0.267  -6.858   1.003  0.00  0.00    -0.237 N 
ATOM      5  C   UNL     1       0.803  -6.109   1.406  0.00  0.00    +0.137 A 
ATOM      6  C   UNL     1       1.603  -6.889   2.158  0.00  0.00    +0.112 A 
ATOM      7  C   UNL     1       1.011  -8.171   2.224  0.00  0.00    +0.167 A 
ATOM      8  N   UNL     1      -0.112  -8.142   1.526  0.00  0.00    -0.163 NA
ATOM      9 CL   UNL     1       3.092  -6.408   2.910  0.00  0.00    -0.078 Cl
ATOM     10  N   UNL     1       0.959  -4.765   1.042  0.00  0.00    -0.321 N 
ATOM     11  H   UNL     1       1.615  -4.190   1.465  0.00  0.00    +0.148 HD
ENDROOT
BRANCH   1  16
ATOM     12  C   UNL     1      -0.018   1.503   0.010  0.00  0.00    +0.044 C 
ATOM     13  C   UNL     1       0.002  -0.004   0.002  0.00  0.00    -0.050 A 
ATOM     14  C   UNL     1       0.006  -0.689  -1.199  0.00  0.00    +0.004 A 
ATOM     15  C   UNL     1       0.025  -2.071  -1.206  0.00  0.00    +0.006 A 
ATOM     16  C   UNL     1       0.040  -2.768  -0.013  0.00  0.00    -0.027 A 
ATOM     17  C   UNL     1       0.037  -2.084   1.188  0.00  0.00    +0.006 A 
ATOM     18  C   UNL     1       0.023  -0.702   1.195  0.00  0.00    +0.004 A 
ENDBRANCH   1  16
BRANCH   7  19
ATOM     19  C   UNL     1       1.552  -9.340   2.945  0.00  0.00    +0.266 C 
ATOM     20  O   UNL     1       2.600  -9.247   3.555  0.00  0.00    -0.268 OA
ATOM     21  N   UNL     1       0.885 -10.511   2.928  0.00  0.00    -0.306 N 
ATOM     22  H   UNL     1       0.049 -10.586   2.441  0.00  0.00    +0.149 HD
BRANCH  21  23
ATOM     23  C   UNL     1       1.422 -11.671   3.644  0.00  0.00    +0.143 C 
BRANCH  23  24
ATOM     24  C   UNL     1       0.493 -12.845   3.467  0.00  0.00    +0.013 A 
ATOM     25  C   UNL     1      -0.585 -13.172   4.295  0.00  0.00    +0.065 A 
ATOM     26  N   UNL     1      -1.151 -14.253   3.821  0.00  0.00    -0.176 NA
ATOM     27  N   UNL     1      -0.449 -14.648   2.675  0.00  0.00    -0.271 N 
ATOM     28  C   UNL     1       0.552 -13.764   2.476  0.00  0.00    +0.041 A 
ATOM     29  C   UNL     1       1.557 -13.798   1.354  0.00  0.00    +0.065 C 
ATOM     30  C   UNL     1      -0.751 -15.810   1.837  0.00  0.00    +0.172 C 
ATOM     31  C   UNL     1      -1.021 -12.412   5.521  0.00  0.00    +0.068 C 
ENDBRANCH  23  24
ENDBRANCH  21  23
ENDBRANCH   7  19
BRANCH   3  32
ATOM     32  C   UNL     1      -2.694  -6.878   0.676  0.00  0.00    +0.412 C 
ATOM     33  F   UNL     1      -3.729  -6.371  -0.117  0.00  0.00    -0.168 F 
ATOM     34  F   UNL     1      -2.693  -8.275   0.606  0.00  0.00    -0.168 F 
ATOM     35  F   UNL     1      -2.883  -6.477   2.003  0.00  0.00    -0.168 F 
ENDBRANCH   3  32
TORSDOF 5
