REMARK  Name = ZINC59157200
REMARK  9 active torsions:
REMARK  status: ('A' for Active; 'I' for Inactive)
REMARK    1  A    between atoms: C_1  and  C_2
REMARK    2  A    between atoms: C_2  and  C_3
REMARK    3  A    between atoms: C_2  and  C_4
REMARK    4  A    between atoms: C_4  and  C_5
REMARK    5  A    between atoms: C_5  and  C_7
REMARK    6  A    between atoms: C_5  and  N_30
REMARK    7  A    between atoms: N_9  and  N_10
REMARK    8  A    between atoms: N_18  and  C_21
REMARK    9  A    between atoms: C_21  and  C_22
REMARK                            x       y       z     vdW  Elec       q    Type
REMARK                         _______ _______ _______ _____ _____    ______ ____
ROOT
ATOM      1  N   UNL     1      -4.648  -2.930  -2.263  0.00  0.00    -0.175 NA
ATOM      2  C   UNL     1      -4.694  -4.207  -2.554  0.00  0.00    +0.153 C 
ATOM      3  C   UNL     1      -5.891  -5.016  -2.881  0.00  0.00    +0.029 A 
ATOM      4  C   UNL     1      -7.245  -4.715  -2.981  0.00  0.00    +0.027 A 
ATOM      5  C   UNL     1      -8.145  -5.709  -3.314  0.00  0.00    +0.019 A 
ATOM      6  C   UNL     1      -7.698  -6.999  -3.547  0.00  0.00    +0.017 A 
ATOM      7  C   UNL     1      -6.356  -7.307  -3.449  0.00  0.00    +0.025 A 
ATOM      8  C   UNL     1      -5.436  -6.319  -3.116  0.00  0.00    +0.046 A 
ATOM      9  N   UNL     1      -4.055  -6.361  -2.955  0.00  0.00    -0.261 N 
ATOM     10  C   UNL     1      -3.562  -5.153  -2.632  0.00  0.00    +0.272 C 
ATOM     11  O   UNL     1      -2.391  -4.887  -2.434  0.00  0.00    -0.268 OA
ATOM     12 BR   UNL     1      -9.988  -5.307  -3.451  0.00  0.00    -0.050 Br
ENDROOT
BRANCH   1  15
ATOM     13  C   UNL     1      -3.372  -1.006  -1.683  0.00  0.00    +0.218 C 
ATOM     14  O   UNL     1      -4.394  -0.353  -1.658  0.00  0.00    -0.276 OA
ATOM     15  N   UNL     1      -3.419  -2.319  -1.982  0.00  0.00    -0.208 N 
ATOM     16  H   UNL     1      -2.602  -2.841  -2.002  0.00  0.00    +0.177 HD
BRANCH  13  17
ATOM     17  C   UNL     1      -2.050  -0.348  -1.381  0.00  0.00    +0.015 C 
BRANCH  17  18
ATOM     18  N   UNL     1      -2.174   1.105  -1.559  0.00  0.00    +0.386 N 
ATOM     19  H   UNL     1      -2.804   1.477  -0.865  0.00  0.00    -0.089 HD
ATOM     20  H   UNL     1      -1.267   1.534  -1.455  0.00  0.00    -0.089 HD
ATOM     21  H   UNL     1      -2.534   1.301  -2.481  0.00  0.00    -0.089 HD
ENDBRANCH  17  18
BRANCH  17  22
ATOM     22  C   UNL     1      -1.649  -0.652   0.064  0.00  0.00    -0.004 C 
BRANCH  22  24
ATOM     23  C   UNL     1       0.097  -0.274   1.811  0.00  0.00    +0.007 C 
ATOM     24  C   UNL     1      -0.247  -0.099   0.331  0.00  0.00    -0.018 C 
ATOM     25  C   UNL     1       0.771  -0.858  -0.522  0.00  0.00    +0.007 C 
ENDBRANCH  22  24
ENDBRANCH  17  22
ENDBRANCH  13  17
ENDBRANCH   1  15
BRANCH   9  26
ATOM     26  C   UNL     1      -3.240  -7.566  -3.123  0.00  0.00    +0.149 C 
BRANCH  26  27
ATOM     27  C   UNL     1      -2.791  -7.674  -4.557  0.00  0.00    -0.030 A 
ATOM     28  C   UNL     1      -3.573  -8.347  -5.478  0.00  0.00    +0.008 A 
ATOM     29  C   UNL     1      -3.162  -8.445  -6.793  0.00  0.00    +0.038 A 
ATOM     30  C   UNL     1      -1.967  -7.869  -7.190  0.00  0.00    +0.123 A 
ATOM     31  C   UNL     1      -1.185  -7.195  -6.268  0.00  0.00    +0.038 A 
ATOM     32  C   UNL     1      -1.600  -7.094  -4.953  0.00  0.00    +0.008 A 
ATOM     33  F   UNL     1      -1.565  -7.965  -8.476  0.00  0.00    -0.205 F 
ENDBRANCH  26  27
ENDBRANCH   9  26
TORSDOF 7
