REMARK  Name = ZINC19327538
REMARK  12 active torsions:
REMARK  status: ('A' for Active; 'I' for Inactive)
REMARK    1  A    between atoms: C_1  and  C_2
REMARK    2  A    between atoms: C_5  and  O_32
REMARK    3  A    between atoms: C_6  and  C_8
REMARK    4  A    between atoms: C_8  and  N_9
REMARK    5  A    between atoms: N_12  and  C_23
REMARK    6  A    between atoms: C_13  and  C_14
REMARK    7  A    between atoms: C_17  and  N_20
REMARK    8  A    between atoms: N_20  and  C_21
REMARK    9  A    between atoms: N_20  and  C_22
REMARK   10  A    between atoms: C_23  and  C_24
REMARK   11  A    between atoms: C_26  and  C_31
REMARK   12  A    between atoms: C_29  and  O_30
REMARK                            x       y       z     vdW  Elec       q    Type
REMARK                         _______ _______ _______ _____ _____    ______ ____
ROOT
ATOM      1  N   UNL     1      -1.420  -3.073   3.175  0.00  0.00    +0.376 N 
ATOM      2  C   UNL     1      -2.513  -2.361   3.878  0.00  0.00    -0.099 C 
ATOM      3  C   UNL     1      -3.275  -3.496   4.606  0.00  0.00    -0.099 C 
ATOM      4  N   UNL     1      -2.171  -4.408   5.007  0.00  0.00    +0.376 N 
ATOM      5  C   UNL     1      -1.214  -4.352   3.880  0.00  0.00    -0.099 C 
ATOM      6  H   UNL     1      -1.681  -3.247   2.216  0.00  0.00    -0.083 HD
ATOM      7  H   UNL     1      -1.734  -4.081   5.855  0.00  0.00    -0.083 HD
ENDROOT
BRANCH   5   8
ATOM      8  C   UNL     1       0.197  -4.425   4.404  0.00  0.00    -0.077 A 
ATOM      9  C   UNL     1       0.577  -3.633   5.473  0.00  0.00    +0.002 A 
ATOM     10  C   UNL     1       1.869  -3.697   5.955  0.00  0.00    +0.023 A 
ATOM     11  C   UNL     1       2.788  -4.557   5.367  0.00  0.00    +0.029 A 
ATOM     12  C   UNL     1       2.402  -5.351   4.294  0.00  0.00    +0.023 A 
ATOM     13  C   UNL     1       1.107  -5.286   3.820  0.00  0.00    +0.002 A 
BRANCH  11  14
ATOM     14  N   UNL     1       4.095  -4.624   5.853  0.00  0.00    -0.336 N 
ATOM     15  C   UNL     1       4.500  -3.786   6.984  0.00  0.00    +0.129 C 
ATOM     16  C   UNL     1       5.062  -5.532   5.231  0.00  0.00    +0.129 C 
ENDBRANCH  11  14
ENDBRANCH   5   8
BRANCH   1  17
ATOM     17  C   UNL     1      -0.189  -2.272   3.221  0.00  0.00    -0.041 C 
BRANCH  17  23
ATOM     18  C   UNL     1      -0.931   2.661   2.832  0.00  0.00    +0.044 C 
ATOM     19  C   UNL     1      -0.713   1.319   2.181  0.00  0.00    -0.050 A 
ATOM     20  C   UNL     1      -0.668   1.220   0.802  0.00  0.00    +0.007 A 
ATOM     21  C   UNL     1      -0.468  -0.008   0.203  0.00  0.00    +0.046 A 
ATOM     22  C   UNL     1      -0.312  -1.143   0.986  0.00  0.00    +0.118 A 
ATOM     23  C   UNL     1      -0.358  -1.041   2.368  0.00  0.00    -0.022 A 
ATOM     24  C   UNL     1      -0.553   0.191   2.963  0.00  0.00    +0.008 A 
BRANCH  22  25
ATOM     25  O   UNL     1      -0.116  -2.353   0.399  0.00  0.00    -0.507 OA
ATOM     26  H   UNL     1       0.814  -2.571   0.248  0.00  0.00    +0.292 HD
ENDBRANCH  22  25
ENDBRANCH  17  23
ENDBRANCH   1  17
BRANCH   4  27
ATOM     27  C   UNL     1      -2.675  -5.777   5.183  0.00  0.00    -0.041 C 
BRANCH  27  28
ATOM     28  C   UNL     1      -3.617  -5.818   6.358  0.00  0.00    -0.022 A 
ATOM     29  C   UNL     1      -4.979  -5.909   6.150  0.00  0.00    +0.008 A 
ATOM     30  C   UNL     1      -5.844  -5.946   7.228  0.00  0.00    -0.050 A 
ATOM     31  C   UNL     1      -5.348  -5.893   8.517  0.00  0.00    +0.007 A 
ATOM     32  C   UNL     1      -3.986  -5.802   8.731  0.00  0.00    +0.046 A 
ATOM     33  C   UNL     1      -3.116  -5.770   7.651  0.00  0.00    +0.118 A 
ATOM     34  C   UNL     1      -7.330  -6.045   6.997  0.00  0.00    +0.044 C 
BRANCH  33  35
ATOM     35  O   UNL     1      -1.776  -5.686   7.859  0.00  0.00    -0.507 OA
ATOM     36  H   UNL     1      -1.441  -4.780   7.907  0.00  0.00    +0.292 HD
ENDBRANCH  33  35
ENDBRANCH  27  28
ENDBRANCH   4  27
TORSDOF 8
