REMARK  Name = ZINC13096779
REMARK  10 active torsions:
REMARK  status: ('A' for Active; 'I' for Inactive)
REMARK    1  A    between atoms: C_1  and  C_2
REMARK    2  A    between atoms: N_5  and  C_8
REMARK    3  A    between atoms: C_11  and  C_17
REMARK    4  A    between atoms: C_13  and  N_14
REMARK    5  A    between atoms: N_19  and  C_20
REMARK    6  A    between atoms: C_20  and  C_21
REMARK    7  A    between atoms: C_21  and  C_23
REMARK    8  A    between atoms: C_21  and  N_60
REMARK    9  A    between atoms: C_29  and  N_60
REMARK   10  A    between atoms: C_30  and  N_60
REMARK                            x       y       z     vdW  Elec       q    Type
REMARK                         _______ _______ _______ _____ _____    ______ ____
ROOT
ATOM      1  C   UNL     1       1.235   1.434   0.845  0.00  0.00    +0.060 A 
ATOM      2  C   UNL     1       0.030   0.852   0.461  0.00  0.00    +0.026 A 
ATOM      3  C   UNL     1      -1.137   1.579   0.522  0.00  0.00    +0.015 A 
ATOM      4  C   UNL     1      -1.113   2.899   0.982  0.00  0.00    +0.039 A 
ATOM      5  C   UNL     1       0.098   3.480   1.367  0.00  0.00    +0.047 A 
ATOM      6  C   UNL     1       1.263   2.750   1.298  0.00  0.00    +0.148 A 
ENDROOT
BRANCH   1  11
ATOM      7  C   UNL     1       5.470  -2.230   0.185  0.00  0.00    +0.007 C 
ATOM      8  C   UNL     1       4.085  -1.578   0.179  0.00  0.00    -0.011 C 
ATOM      9  C   UNL     1       4.127  -0.299  -0.661  0.00  0.00    +0.022 C 
ATOM     10  C   UNL     1       2.756   0.381  -0.615  0.00  0.00    +0.105 C 
ATOM     11  N   UNL     1       2.414   0.699   0.777  0.00  0.00    -0.328 N 
ATOM     12  C   UNL     1       2.322  -0.519   1.593  0.00  0.00    +0.105 C 
ATOM     13  C   UNL     1       3.679  -1.225   1.612  0.00  0.00    +0.022 C 
ENDBRANCH   1  11
BRANCH   4  14
ATOM     14  C   UNL     1      -2.363   3.679   1.054  0.00  0.00    +0.244 C 
ATOM     15  O   UNL     1      -2.341   4.828   1.450  0.00  0.00    -0.270 OA
ATOM     16  N   UNL     1      -3.531   3.117   0.682  0.00  0.00    -0.313 N 
ATOM     17  H   UNL     1      -3.549   2.200   0.367  0.00  0.00    +0.149 HD
BRANCH  16  18
ATOM     18  C   UNL     1      -4.772   3.891   0.755  0.00  0.00    +0.094 C 
BRANCH  18  19
ATOM     19  C   UNL     1      -5.956   2.991   0.395  0.00  0.00    -0.021 C 
BRANCH  19  20
ATOM     20  C   UNL     1      -7.228   3.800   0.420  0.00  0.00    -0.059 A 
ATOM     21  C   UNL     1      -7.558   4.535   1.543  0.00  0.00    +0.002 A 
ATOM     22  C   UNL     1      -8.722   5.280   1.564  0.00  0.00    +0.000 A 
ATOM     23  C   UNL     1      -9.560   5.283   0.465  0.00  0.00    +0.000 A 
ATOM     24  C   UNL     1      -9.232   4.544  -0.657  0.00  0.00    +0.000 A 
ATOM     25  C   UNL     1      -8.066   3.802  -0.679  0.00  0.00    +0.002 A 
ENDBRANCH  19  20
BRANCH  19  28
ATOM     26  C   UNL     1      -5.643   2.345   2.708  0.00  0.00    -0.096 C 
ATOM     27  C   UNL     1      -7.410   1.334   1.398  0.00  0.00    -0.096 C 
ATOM     28  N   UNL     1      -6.035   1.876   1.363  0.00  0.00    +0.382 N 
ATOM     29  H   UNL     1      -5.391   1.133   1.068  0.00  0.00    -0.082 HD
ENDBRANCH  19  28
ENDBRANCH  18  19
ENDBRANCH  16  18
ENDBRANCH   4  14
BRANCH   6  30
ATOM     30  N   UNL     1       2.546   3.365   1.705  0.00  0.00    +0.058 N 
ATOM     31  O   UNL     1       2.559   4.481   2.193  0.00  0.00    -0.126 OA
ATOM     32  O   UNL     1       3.589   2.755   1.553  0.00  0.00    -0.126 OA
ENDBRANCH   6  30
TORSDOF 7
