REMARK  Name = ZINC36366551
REMARK  4 active torsions:
REMARK  status: ('A' for Active; 'I' for Inactive)
REMARK    1  A    between atoms: C_5  and  N_7
REMARK    2  A    between atoms: C_13  and  O_24
REMARK    3  A    between atoms: C_15  and  C_17
REMARK    4  A    between atoms: C_20  and  O_23
REMARK                            x       y       z     vdW  Elec       q    Type
REMARK                         _______ _______ _______ _____ _____    ______ ____
ROOT
ATOM      1  N   UNL     1       1.236  -2.083  -0.021  0.00  0.00    -0.281 N 
ATOM      2  C   UNL     1       0.780  -2.899  -1.017  0.00  0.00    +0.206 A 
ATOM      3  N   UNL     1       0.967  -4.147  -0.664  0.00  0.00    -0.237 NA
ATOM      4  C   UNL     1       1.532  -4.186   0.536  0.00  0.00    +0.094 A 
ATOM      5  C   UNL     1       1.721  -2.895   0.962  0.00  0.00    +0.165 A 
ATOM      6  N   UNL     1       2.300  -2.609   2.163  0.00  0.00    -0.197 NA
ATOM      7  C   UNL     1       2.393  -3.549   3.057  0.00  0.00    +0.190 C 
ATOM      8  C   UNL     1       1.858  -4.936   2.852  0.00  0.00    +0.110 C 
ATOM      9  C   UNL     1       1.942  -5.362   1.386  0.00  0.00    +0.080 C 
ENDROOT
BRANCH   1  14
ATOM     10  C   UNL     1      -0.017   1.377   0.010  0.00  0.00    +0.002 A 
ATOM     11  C   UNL     1       1.170   2.087   0.002  0.00  0.00    +0.003 A 
ATOM     12  C   UNL     1       2.380   1.418  -0.013  0.00  0.00    +0.040 A 
ATOM     13  C   UNL     1       2.406   0.035  -0.021  0.00  0.00    +0.147 A 
ATOM     14  C   UNL     1       1.214  -0.681  -0.013  0.00  0.00    +0.085 A 
ATOM     15  C   UNL     1       0.002  -0.004   0.002  0.00  0.00    +0.029 A 
ATOM     16  F   UNL     1       3.587  -0.620  -0.037  0.00  0.00    -0.203 F 
ENDBRANCH   1  14
BRANCH   9  17
ATOM     17  C   UNL     1       3.361  -5.755   1.064  0.00  0.00    -0.038 A 
ATOM     18  C   UNL     1       4.387  -4.847   1.249  0.00  0.00    +0.008 A 
ATOM     19  C   UNL     1       5.688  -5.204   0.954  0.00  0.00    +0.045 A 
ATOM     20  C   UNL     1       5.965  -6.475   0.472  0.00  0.00    +0.117 A 
ATOM     21  C   UNL     1       4.934  -7.384   0.288  0.00  0.00    +0.045 A 
ATOM     22  C   UNL     1       3.635  -7.024   0.589  0.00  0.00    +0.008 A 
BRANCH  20  23
ATOM     23  O   UNL     1       7.245  -6.828   0.181  0.00  0.00    -0.507 OA
ATOM     24  H   UNL     1       7.723  -7.221   0.924  0.00  0.00    +0.292 HD
ENDBRANCH  20  23
ENDBRANCH   9  17
BRANCH   7  25
ATOM     25  O   UNL     1       3.000  -3.263   4.228  0.00  0.00    -0.495 OA
ATOM     26  H   UNL     1       3.320  -2.353   4.292  0.00  0.00    +0.293 HD
ENDBRANCH   7  25
TORSDOF 4
