REMARK  Name = ZINC28417845
REMARK  6 active torsions:
REMARK  status: ('A' for Active; 'I' for Inactive)
REMARK    1  A    between atoms: C_1  and  C_2
REMARK    2  A    between atoms: C_6  and  N_9
REMARK    3  A    between atoms: C_7  and  C_8
REMARK    4  A    between atoms: C_13  and  S_15
REMARK    5  A    between atoms: S_15  and  C_16
REMARK    6  A    between atoms: C_16  and  C_17
REMARK                            x       y       z     vdW  Elec       q    Type
REMARK                         _______ _______ _______ _____ _____    ______ ____
ROOT
ATOM      1  N   UNL     1       0.050  -2.797   2.390  0.00  0.00    -0.292 N 
ATOM      2  C   UNL     1      -0.037  -4.185   2.383  0.00  0.00    +0.187 A 
ATOM      3  N   UNL     1      -0.044  -5.016   1.359  0.00  0.00    -0.125 NA
ATOM      4  N   UNL     1      -0.139  -6.371   1.578  0.00  0.00    -0.133 NA
ATOM      5  C   UNL     1      -0.222  -6.832   2.811  0.00  0.00    +0.160 A 
ATOM      6  S   UNL     1      -0.161  -5.319   3.757  0.00  0.00    -0.024 S 
ATOM      7  H   UNL     1       0.114  -2.320   3.232  0.00  0.00    +0.154 HD
ENDROOT
BRANCH   1  13
ATOM      8  C   UNL     1       0.501   1.465  -0.015  0.00  0.00    +0.044 C 
ATOM      9  C   UNL     1       0.262  -0.023  -0.011  0.00  0.00    -0.046 A 
ATOM     10  C   UNL     1       0.039  -0.690  -1.202  0.00  0.00    +0.004 A 
ATOM     11  C   UNL     1      -0.180  -2.055  -1.202  0.00  0.00    +0.002 A 
ATOM     12  C   UNL     1      -0.177  -2.757  -0.012  0.00  0.00    +0.023 A 
ATOM     13  C   UNL     1       0.047  -2.090   1.185  0.00  0.00    +0.036 A 
ATOM     14  C   UNL     1       0.273  -0.719   1.181  0.00  0.00    -0.026 A 
ATOM     15  C   UNL     1       0.522   0.008   2.478  0.00  0.00    +0.046 C 
ENDBRANCH   1  13
BRANCH   5  16
ATOM     16  S   UNL     1      -0.353  -8.497   3.374  0.00  0.00    -0.088 S 
BRANCH  16  17
ATOM     17  C   UNL     1      -0.347  -9.478   1.848  0.00  0.00    +0.172 C 
BRANCH  17  18
ATOM     18  C   UNL     1      -0.456 -10.941   2.192  0.00  0.00    +0.229 C 
ATOM     19  O   UNL     1      -0.529 -11.288   3.351  0.00  0.00    -0.275 OA
ATOM     20  N   UNL     1      -0.471 -11.864   1.210  0.00  0.00    -0.264 N 
ATOM     21  C   UNL     1      -0.570 -13.214   1.526  0.00  0.00    +0.164 A 
ATOM     22  N   UNL     1      -0.664 -13.770   2.715  0.00  0.00    -0.233 NA
ATOM     23  C   UNL     1      -0.752 -15.080   2.850  0.00  0.00    +0.120 A 
ATOM     24  C   UNL     1      -0.742 -15.819   1.714  0.00  0.00    +0.068 A 
ATOM     25  S   UNL     1      -0.608 -14.533   0.482  0.00  0.00    -0.061 S 
ATOM     26  H   UNL     1      -0.412 -11.587   0.282  0.00  0.00    +0.157 HD
ENDBRANCH  17  18
ENDBRANCH  16  17
ENDBRANCH   5  16
TORSDOF 4
