REMARK  Name = ZINC47029705
REMARK  7 active torsions:
REMARK  status: ('A' for Active; 'I' for Inactive)
REMARK    1  A    between atoms: C_6  and  C_7
REMARK    2  A    between atoms: C_7  and  C_12
REMARK    3  A    between atoms: C_12  and  N_13
REMARK    4  A    between atoms: N_16  and  N_17
REMARK    5  A    between atoms: N_17  and  C_18
REMARK    6  A    between atoms: C_18  and  N_20
REMARK    7  A    between atoms: N_20  and  C_21
REMARK                            x       y       z     vdW  Elec       q    Type
REMARK                         _______ _______ _______ _____ _____    ______ ____
ROOT
ATOM      1  N   UNL     1      -2.438   0.913   1.360  0.00  0.00    -0.297 N 
ATOM      2  C   UNL     1      -3.035   1.410   2.461  0.00  0.00    +0.316 C 
ATOM      3  O   UNL     1      -3.257   0.685   3.411  0.00  0.00    -0.251 OA
ATOM      4  N   UNL     1      -3.385   2.711   2.510  0.00  0.00    -0.219 N 
ATOM      5  H   UNL     1      -2.260   1.492   0.602  0.00  0.00    +0.150 HD
ATOM      6  H   UNL     1      -3.814   3.068   3.303  0.00  0.00    +0.174 HD
ENDROOT
BRANCH   4   7
ATOM      7  N   UNL     1      -3.128   3.546   1.415  0.00  0.00    -0.245 N 
ATOM      8  H   UNL     1      -2.699   3.189   0.622  0.00  0.00    +0.172 HD
BRANCH   7   9
ATOM      9  C   UNL     1      -3.478   4.847   1.463  0.00  0.00    +0.147 C 
ATOM     10  S   UNL     1      -3.165   5.868   0.126  0.00  0.00    -0.017 S 
BRANCH   9  11
ATOM     11  N   UNL     1      -4.075   5.344   2.565  0.00  0.00    -0.323 N 
ATOM     12  H   UNL     1      -4.253   4.765   3.323  0.00  0.00    +0.148 HD
BRANCH  11  13
ATOM     13  C   UNL     1      -4.456   6.757   2.618  0.00  0.00    +0.072 C 
ATOM     14  C   UNL     1      -5.870   6.946   2.031  0.00  0.00    +0.022 C 
ATOM     15  C   UNL     1      -6.800   6.929   3.270  0.00  0.00    +0.002 C 
ATOM     16  C   UNL     1      -5.970   7.693   4.331  0.00  0.00    +0.002 C 
ATOM     17  C   UNL     1      -4.519   7.232   4.080  0.00  0.00    +0.022 C 
ENDBRANCH  11  13
ENDBRANCH   9  11
ENDBRANCH   7   9
ENDBRANCH   4   7
BRANCH   1  18
ATOM     18  C   UNL     1      -2.057  -0.500   1.307  0.00  0.00    +0.117 C 
BRANCH  18  19
ATOM     19  C   UNL     1      -1.465  -0.818  -0.068  0.00  0.00    +0.011 C 
ATOM     20  C   UNL     1      -2.477  -0.466  -1.173  0.00  0.00    +0.013 C 
ATOM     21  C   UNL     1      -2.781  -1.777  -1.926  0.00  0.00    +0.001 C 
ATOM     22  C   UNL     1      -2.448  -2.890  -0.901  0.00  0.00    +0.001 C 
ATOM     23  C   UNL     1      -1.191  -2.332  -0.188  0.00  0.00    +0.013 C 
BRANCH  19  29
ATOM     24  C   UNL     1       0.442  -0.061  -1.501  0.00  0.00    +0.007 A 
ATOM     25  C   UNL     1       1.613   0.648  -1.688  0.00  0.00    +0.038 A 
ATOM     26  C   UNL     1       2.156   1.375  -0.643  0.00  0.00    +0.123 A 
ATOM     27  C   UNL     1       1.524   1.392   0.589  0.00  0.00    +0.038 A 
ATOM     28  C   UNL     1       0.353   0.682   0.774  0.00  0.00    +0.007 A 
ATOM     29  C   UNL     1      -0.188  -0.044  -0.271  0.00  0.00    -0.040 A 
ATOM     30  F   UNL     1       3.301   2.069  -0.825  0.00  0.00    -0.205 F 
ENDBRANCH  19  29
ENDBRANCH  18  19
ENDBRANCH   1  18
TORSDOF 7
