REMARK  Name = ZINC33557720
REMARK  6 active torsions:
REMARK  status: ('A' for Active; 'I' for Inactive)
REMARK    1  A    between atoms: C_3  and  N_31
REMARK    2  A    between atoms: C_4  and  C_21
REMARK    3  A    between atoms: C_6  and  N_7
REMARK    4  A    between atoms: N_10  and  C_11
REMARK    5  A    between atoms: N_23  and  C_24
REMARK    6  A    between atoms: C_24  and  C_25
REMARK                            x       y       z     vdW  Elec       q    Type
REMARK                         _______ _______ _______ _____ _____    ______ ____
ROOT
ATOM      1  C   UNL     1       1.233   3.276  -0.160  0.00  0.00    +0.025 A 
ATOM      2  C   UNL     1       0.060   4.002  -0.191  0.00  0.00    +0.026 A 
ATOM      3  C   UNL     1      -1.164   3.352  -0.095  0.00  0.00    +0.042 A 
ATOM      4  C   UNL     1      -1.204   1.955   0.026  0.00  0.00    +0.059 A 
ATOM      5  C   UNL     1      -0.011   1.230   0.062  0.00  0.00    +0.038 A 
ATOM      6  C   UNL     1       1.201   1.891  -0.034  0.00  0.00    +0.036 A 
ENDROOT
BRANCH   6   7
ATOM      7  N   UNL     1       2.399   1.164  -0.005  0.00  0.00    -0.269 N 
ATOM      8  C   UNL     1       3.448   1.563  -0.750  0.00  0.00    +0.304 C 
ATOM      9  O   UNL     1       3.386   2.600  -1.382  0.00  0.00    -0.252 OA
ATOM     10  N   UNL     1       4.567   0.813  -0.795  0.00  0.00    -0.294 N 
ATOM     11  H   UNL     1       2.483   0.267   0.627  0.00  0.00    +0.156 HD
ATOM     12  H   UNL     1       4.624  -0.125  -0.223  0.00  0.00    +0.151 HD
BRANCH  10  13
ATOM     13  C   UNL     1       5.708   1.247  -1.605  0.00  0.00    +0.037 C 
ATOM     14  C   UNL     1       5.280   1.360  -3.070  0.00  0.00    +0.029 C 
ATOM     15  C   UNL     1       6.471   1.814  -3.916  0.00  0.00    -0.008 C 
ATOM     16  C   UNL     1       7.602   0.791  -3.793  0.00  0.00    +0.007 C 
ATOM     17  C   UNL     1       8.031   0.678  -2.329  0.00  0.00    -0.008 C 
ATOM     18  C   UNL     1       6.840   0.225  -1.482  0.00  0.00    +0.029 C 
ATOM     19  C   UNL     1       8.519   2.041  -1.834  0.00  0.00    +0.007 C 
ATOM     20  C   UNL     1       7.387   3.064  -1.957  0.00  0.00    -0.008 C 
ATOM     21  C   UNL     1       6.959   3.176  -3.421  0.00  0.00    +0.007 C 
ATOM     22  C   UNL     1       6.196   2.610  -1.110  0.00  0.00    +0.029 C 
ENDBRANCH  10  13
ENDBRANCH   6   7
BRANCH   3  23
ATOM     23  N   UNL     1      -2.346   4.084  -0.126  0.00  0.00    -0.329 N 
ATOM     24  C   UNL     1      -2.329   5.165   0.893  0.00  0.00    +0.105 C 
ATOM     25  C   UNL     1      -3.409   6.152   0.380  0.00  0.00    +0.020 C 
ATOM     26  C   UNL     1      -3.223   6.101  -1.153  0.00  0.00    +0.020 C 
ATOM     27  C   UNL     1      -2.517   4.761  -1.429  0.00  0.00    +0.105 C 
ENDBRANCH   3  23
BRANCH   4  28
ATOM     28  C   UNL     1      -2.499   1.256   0.122  0.00  0.00    +0.246 C 
ATOM     29  O   UNL     1      -3.531   1.895   0.188  0.00  0.00    -0.270 OA
ATOM     30  N   UNL     1      -2.538  -0.091   0.137  0.00  0.00    -0.309 N 
ATOM     31  H   UNL     1      -1.604  -0.669   0.077  0.00  0.00    +0.149 HD
BRANCH  30  32
ATOM     32  C   UNL     1      -3.825  -0.785   0.232  0.00  0.00    +0.136 C 
BRANCH  32  33
ATOM     33  C   UNL     1      -3.590  -2.297   0.229  0.00  0.00    +0.135 C 
ATOM     34  C   UNL     1      -4.938  -3.037   0.329  0.00  0.00    +0.035 C 
ATOM     35  C   UNL     1      -4.983  -3.917  -0.944  0.00  0.00    +0.031 C 
ATOM     36  C   UNL     1      -3.484  -4.006  -1.330  0.00  0.00    +0.160 C 
ATOM     37  O   UNL     1      -2.975  -2.694  -1.008  0.00  0.00    -0.375 OA
ENDBRANCH  32  33
ENDBRANCH  30  32
ENDBRANCH   4  28
TORSDOF 6
