REMARK  Name = ZINC59368931
REMARK  7 active torsions:
REMARK  status: ('A' for Active; 'I' for Inactive)
REMARK    1  A    between atoms: C_1  and  C_2
REMARK    2  A    between atoms: C_5  and  C_9
REMARK    3  A    between atoms: C_6  and  C_8
REMARK    4  A    between atoms: C_15  and  C_17
REMARK    5  A    between atoms: C_17  and  N_18
REMARK    6  A    between atoms: N_18  and  C_19
REMARK    7  A    between atoms: C_20  and  C_22
REMARK                            x       y       z     vdW  Elec       q    Type
REMARK                         _______ _______ _______ _____ _____    ______ ____
ROOT
ATOM      1  C   UNL     1       0.154  -4.340   0.011  0.00  0.00    +0.080 A 
ATOM      2  C   UNL     1      -0.082  -4.962  -1.184  0.00  0.00    +0.076 A 
ATOM      3  S   UNL     1       0.027  -6.677  -0.692  0.00  0.00    -0.060 S 
ATOM      4  C   UNL     1       0.372  -6.392   1.039  0.00  0.00    +0.165 A 
ATOM      5  N   UNL     1       0.380  -5.073   1.091  0.00  0.00    -0.225 NA
ATOM      6  N   UNL     1       0.582  -7.314   2.057  0.00  0.00    -0.263 N 
ATOM      7  C   UNL     1       0.537  -8.634   1.791  0.00  0.00    +0.236 C 
ATOM      8  O   UNL     1       0.313  -9.018   0.662  0.00  0.00    -0.274 OA
ATOM      9  H   UNL     1       0.760  -7.007   2.960  0.00  0.00    +0.157 HD
ENDROOT
BRANCH   1  14
ATOM     10  C   UNL     1       0.184   1.409   0.340  0.00  0.00    +0.044 C 
ATOM     11  C   UNL     1       0.176  -0.095   0.254  0.00  0.00    -0.050 A 
ATOM     12  C   UNL     1       0.899  -0.733  -0.739  0.00  0.00    +0.004 A 
ATOM     13  C   UNL     1       0.896  -2.110  -0.822  0.00  0.00    +0.010 A 
ATOM     14  C   UNL     1       0.162  -2.860   0.096  0.00  0.00    +0.004 A 
ATOM     15  C   UNL     1      -0.565  -2.212   1.094  0.00  0.00    -0.041 A 
ATOM     16  C   UNL     1      -0.550  -0.834   1.171  0.00  0.00    +0.007 A 
ATOM     17  C   UNL     1      -1.361  -3.015   2.089  0.00  0.00    +0.044 C 
ENDBRANCH   1  14
BRANCH   7  18
ATOM     18  C   UNL     1       0.764  -9.634   2.895  0.00  0.00    +0.203 C 
BRANCH  18  19
ATOM     19  N   UNL     1       0.664 -10.991   2.353  0.00  0.00    -0.291 N 
ATOM     20  C   UNL     1       1.858 -11.662   1.833  0.00  0.00    +0.133 C 
ATOM     21  C   UNL     1      -0.526 -11.623   2.333  0.00  0.00    +0.253 C 
ATOM     22  O   UNL     1      -1.508 -11.086   2.811  0.00  0.00    -0.269 OA
BRANCH  21  23
ATOM     23  C   UNL     1      -0.638 -12.956   1.736  0.00  0.00    +0.075 A 
ATOM     24  C   UNL     1      -1.775 -13.711   1.491  0.00  0.00    +0.022 A 
ATOM     25  C   UNL     1      -1.563 -14.940   0.913  0.00  0.00    +0.024 A 
ATOM     26  C   UNL     1      -0.292 -15.323   0.629  0.00  0.00    +0.056 A 
ATOM     27  S   UNL     1       0.651 -14.027   1.129  0.00  0.00    -0.077 S 
ATOM     28 BR   UNL     1       0.283 -16.944  -0.159  0.00  0.00    -0.043 Br
ENDBRANCH  21  23
ENDBRANCH  18  19
ENDBRANCH   7  18
TORSDOF 4
