REMARK  Name = ZINC36638402
REMARK  6 active torsions:
REMARK  status: ('A' for Active; 'I' for Inactive)
REMARK    1  A    between atoms: C_1  and  C_2
REMARK    2  A    between atoms: N_11  and  C_15
REMARK    3  A    between atoms: C_15  and  C_16
REMARK    4  A    between atoms: N_18  and  C_19
REMARK    5  A    between atoms: C_24  and  C_25
REMARK    6  A    between atoms: N_27  and  C_28
REMARK                            x       y       z     vdW  Elec       q    Type
REMARK                         _______ _______ _______ _____ _____    ______ ____
ROOT
ATOM      1  C   UNL     1       3.278   2.955   2.390  0.00  0.00    +0.235 C 
ATOM      2  O   UNL     1       2.359   3.290   1.674  0.00  0.00    -0.274 OA
ATOM      3  N   UNL     1       4.256   3.834   2.688  0.00  0.00    -0.284 N 
ATOM      4  H   UNL     1       4.956   3.587   3.312  0.00  0.00    +0.155 HD
ENDROOT
BRANCH   3   5
ATOM      5  C   UNL     1       4.261   5.096   2.098  0.00  0.00    +0.046 A 
ATOM      6  C   UNL     1       3.064   5.748   1.836  0.00  0.00    +0.024 A 
ATOM      7  C   UNL     1       3.071   6.998   1.251  0.00  0.00    +0.002 A 
ATOM      8  C   UNL     1       4.269   7.611   0.921  0.00  0.00    +0.001 A 
ATOM      9  C   UNL     1       5.467   6.979   1.174  0.00  0.00    +0.015 A 
ATOM     10  C   UNL     1       5.476   5.715   1.770  0.00  0.00    +0.058 A 
BRANCH  10  11
ATOM     11  C   UNL     1       6.755   5.035   2.049  0.00  0.00    +0.246 C 
ATOM     12  O   UNL     1       6.758   3.896   2.474  0.00  0.00    -0.270 OA
ATOM     13  N   UNL     1       7.920   5.677   1.833  0.00  0.00    -0.308 N 
ATOM     14  H   UNL     1       7.918   6.586   1.495  0.00  0.00    +0.149 HD
BRANCH  13  15
ATOM     15  C   UNL     1       9.191   5.001   2.111  0.00  0.00    +0.073 C 
ATOM     16  C   UNL     1       9.595   5.218   3.583  0.00  0.00    +0.022 C 
ATOM     17  C   UNL     1      11.135   5.373   3.536  0.00  0.00    +0.002 C 
ATOM     18  C   UNL     1      11.357   6.182   2.234  0.00  0.00    +0.002 C 
ATOM     19  C   UNL     1      10.312   5.614   1.252  0.00  0.00    +0.022 C 
ENDBRANCH  13  15
ENDBRANCH  10  11
ENDBRANCH   3   5
BRANCH   1  20
ATOM     20  C   UNL     1       3.327   1.556   2.949  0.00  0.00    +0.214 C 
BRANCH  20  30
ATOM     21  C   UNL     1      -0.004   1.507   0.023  0.00  0.00    +0.010 C 
ATOM     22  C   UNL     1       0.014  -0.023   0.033  0.00  0.00    +0.018 C 
ATOM     23  C   UNL     1       0.737  -0.531  -1.217  0.00  0.00    +0.006 C 
ATOM     24  C   UNL     1       0.773  -2.061  -1.196  0.00  0.00    +0.000 C 
ATOM     25  C   UNL     1       1.527  -2.538   0.047  0.00  0.00    +0.003 C 
ATOM     26  C   UNL     1       0.808  -2.037   1.302  0.00  0.00    +0.035 C 
ATOM     27  C   UNL     1       0.742  -0.514   1.279  0.00  0.00    +0.115 C 
ATOM     28  C   UNL     1       2.132   0.076   1.346  0.00  0.00    +0.247 C 
ATOM     29  O   UNL     1       3.031  -0.072   0.547  0.00  0.00    -0.273 OA
ATOM     30  N   UNL     1       2.160   0.803   2.482  0.00  0.00    -0.215 N 
ATOM     31  C   UNL     1       0.991   0.750   3.131  0.00  0.00    +0.310 C 
ATOM     32  O   UNL     1       0.773   1.325   4.180  0.00  0.00    -0.252 OA
ATOM     33  N   UNL     1       0.082  -0.011   2.491  0.00  0.00    -0.285 N 
ATOM     34  H   UNL     1      -0.828  -0.191   2.775  0.00  0.00    +0.151 HD
ENDBRANCH  20  30
ENDBRANCH   1  20
TORSDOF 5
