REMARK  Name = ZINC39521871
REMARK  4 active torsions:
REMARK  status: ('A' for Active; 'I' for Inactive)
REMARK    1  A    between atoms: C_1  and  O_2
REMARK    2  A    between atoms: O_2  and  N_3
REMARK    3  A    between atoms: C_13  and  C_16
REMARK    4  A    between atoms: C_21  and  O_22
REMARK                            x       y       z     vdW  Elec       q    Type
REMARK                         _______ _______ _______ _____ _____    ______ ____
ROOT
ATOM      1  N   UNL     1       0.689  -0.596   1.150  0.00  0.00    -0.164 NA
ATOM      2  C   UNL     1      -0.262  -1.272   2.042  0.00  0.00    +0.176 C 
ATOM      3  C   UNL     1       0.467  -1.751   3.299  0.00  0.00    +0.037 C 
ATOM      4  C   UNL     1       1.589  -2.712   2.896  0.00  0.00    +0.005 C 
ATOM      5  C   UNL     1       2.539  -1.999   1.930  0.00  0.00    +0.025 C 
ATOM      6  C   UNL     1       1.751  -1.512   0.713  0.00  0.00    +0.049 C 
ATOM      7  C   UNL     1       1.128  -2.712  -0.004  0.00  0.00    +0.025 C 
ATOM      8  C   UNL     1       0.343  -2.227  -1.224  0.00  0.00    +0.002 C 
ATOM      9  C   UNL     1       1.287  -1.496  -2.181  0.00  0.00    +0.008 C 
ATOM     10  C   UNL     1       1.909  -0.295  -1.464  0.00  0.00    +0.024 C 
ATOM     11  C   UNL     1       2.694  -0.780  -0.244  0.00  0.00    +0.033 C 
ATOM     12 CL   UNL     1      -1.569  -0.121   2.508  0.00  0.00    -0.102 Cl
ENDROOT
BRANCH  10  13
ATOM     13  C   UNL     1       2.838   0.426  -2.406  0.00  0.00    -0.003 A 
ATOM     14  C   UNL     1       3.919  -0.238  -2.954  0.00  0.00    +0.007 A 
ATOM     15  C   UNL     1       4.772   0.423  -3.818  0.00  0.00    +0.001 A 
ATOM     16  C   UNL     1       4.546   1.750  -4.136  0.00  0.00    +0.004 A 
ATOM     17  C   UNL     1       3.467   2.417  -3.592  0.00  0.00    +0.046 A 
ATOM     18  C   UNL     1       2.606   1.755  -2.729  0.00  0.00    +0.120 A 
BRANCH  18  19
ATOM     19  O   UNL     1       1.540   2.408  -2.196  0.00  0.00    -0.506 OA
ATOM     20  H   UNL     1       1.729   2.850  -1.357  0.00  0.00    +0.292 HD
ENDBRANCH  18  19
ENDBRANCH  10  13
BRANCH   1  22
ATOM     21  C   UNL     1      -0.154   1.414   0.086  0.00  0.00    +0.221 C 
ATOM     22  O   UNL     1       0.002  -0.004   0.002  0.00  0.00    -0.298 OA
ENDBRANCH   1  22
TORSDOF 3
