REMARK  Name = ZINC06549799
REMARK  10 active torsions:
REMARK  status: ('A' for Active; 'I' for Inactive)
REMARK    1  A    between atoms: C_1  and  C_2
REMARK    2  A    between atoms: C_2  and  C_4
REMARK    3  A    between atoms: C_2  and  N_24
REMARK    4  A    between atoms: C_4  and  C_6
REMARK    5  A    between atoms: C_4  and  N_61
REMARK    6  A    between atoms: N_13  and  C_16
REMARK    7  A    between atoms: C_21  and  O_22
REMARK    8  A    between atoms: O_22  and  C_23
REMARK    9  A    between atoms: N_24  and  S_25
REMARK   10  A    between atoms: S_25  and  C_28
REMARK                            x       y       z     vdW  Elec       q    Type
REMARK                         _______ _______ _______ _____ _____    ______ ____
ROOT
ATOM      1  C   UNL     1       4.157  -0.202  -3.856  0.00  0.00    -0.012 C 
ENDROOT
BRANCH   1   7
ATOM      2  C   UNL     1       3.620   2.123  -4.269  0.00  0.00    -0.059 C 
ATOM      3  C   UNL     1       3.878   3.301  -5.211  0.00  0.00    +0.086 C 
ATOM      4  N   UNL     1       3.411   2.955  -6.561  0.00  0.00    -0.331 N 
ATOM      5  C   UNL     1       4.108   1.765  -7.068  0.00  0.00    +0.086 C 
ATOM      6  C   UNL     1       3.851   0.587  -6.125  0.00  0.00    -0.059 C 
ATOM      7  N   UNL     1       4.345   0.939  -4.777  0.00  0.00    +0.388 N 
ATOM      8  H   UNL     1       5.346   1.160  -4.835  0.00  0.00    -0.081 HD
BRANCH   4   9
ATOM      9  C   UNL     1       3.564   4.037  -7.437  0.00  0.00    +0.072 A 
ATOM     10  C   UNL     1       4.284   5.155  -7.042  0.00  0.00    +0.027 A 
ATOM     11  C   UNL     1       4.437   6.220  -7.910  0.00  0.00    +0.002 A 
ATOM     12  C   UNL     1       3.868   6.177  -9.169  0.00  0.00    +0.004 A 
ATOM     13  C   UNL     1       3.145   5.067  -9.568  0.00  0.00    +0.047 A 
ATOM     14  C   UNL     1       2.990   3.995  -8.706  0.00  0.00    +0.141 A 
BRANCH  14  15
ATOM     15  O   UNL     1       2.279   2.903  -9.096  0.00  0.00    -0.493 OA
ATOM     16  C   UNL     1       1.718   2.930 -10.411  0.00  0.00    +0.277 C 
ENDBRANCH  14  15
ENDBRANCH   4   9
ENDBRANCH   1   7
BRANCH   1  17
ATOM     17  C   UNL     1       2.720  -0.656  -3.865  0.00  0.00    -0.022 A 
ATOM     18  C   UNL     1       2.222  -1.910  -3.989  0.00  0.00    +0.009 A 
ATOM     19  C   UNL     1       0.852  -2.093  -3.966  0.00  0.00    +0.008 A 
ATOM     20  C   UNL     1       0.047  -1.011  -3.830  0.00  0.00    +0.045 A 
ATOM     21  S   UNL     1       1.232   0.320  -3.721  0.00  0.00    -0.103 S 
ENDBRANCH   1  17
BRANCH   1  23
ATOM     22  C   UNL     1       6.006   0.689  -2.432  0.00  0.00    +0.024 C 
ATOM     23  C   UNL     1       4.547   0.229  -2.441  0.00  0.00    +0.065 C 
BRANCH  23  24
ATOM     24  N   UNL     1       4.387  -0.903  -1.524  0.00  0.00    -0.188 NA
ATOM     25  H   UNL     1       4.576  -1.804  -1.829  0.00  0.00    +0.148 HD
BRANCH  24  26
ATOM     26  S   UNL     1       3.883  -0.643   0.032  0.00  0.00    +0.059 S 
ATOM     27  O   UNL     1       4.690   0.404   0.551  0.00  0.00    -0.153 OA
ATOM     28  O   UNL     1       3.801  -1.920   0.650  0.00  0.00    -0.153 OA
BRANCH  26  29
ATOM     29  C   UNL     1       2.238  -0.018  -0.051  0.00  0.00    +0.105 A 
ATOM     30  C   UNL     1       1.165  -0.889  -0.036  0.00  0.00    +0.028 A 
ATOM     31  C   UNL     1      -0.126  -0.398  -0.101  0.00  0.00    +0.002 A 
ATOM     32  C   UNL     1      -0.344   0.965  -0.182  0.00  0.00    +0.000 A 
ATOM     33  C   UNL     1       0.729   1.836  -0.197  0.00  0.00    +0.002 A 
ATOM     34  C   UNL     1       2.020   1.345  -0.131  0.00  0.00    +0.028 A 
ENDBRANCH  26  29
ENDBRANCH  24  26
ENDBRANCH  23  24
ENDBRANCH   1  23
TORSDOF 8
