REMARK  Name = ZINC39067100
REMARK  3 active torsions:
REMARK  status: ('A' for Active; 'I' for Inactive)
REMARK    1  A    between atoms: C_1  and  C_2
REMARK    2  A    between atoms: C_2  and  C_4
REMARK    3  A    between atoms: C_8  and  N_9
REMARK                            x       y       z     vdW  Elec       q    Type
REMARK                         _______ _______ _______ _____ _____    ______ ____
ROOT
ATOM      1  C   UNL     1      -0.890   2.963  -1.426  0.00  0.00    +0.012 C 
ATOM      2  C   UNL     1      -0.475   4.209  -0.686  0.00  0.00    +0.046 C 
ATOM      3  C   UNL     1      -1.130   5.066  -1.772  0.00  0.00    +0.055 C 
ATOM      4  C   UNL     1      -1.463   3.730  -2.386  0.00  0.00    +0.008 C 
ENDROOT
BRANCH   1   6
ATOM      5  C   UNL     1      -0.013   1.086   0.008  0.00  0.00    +0.091 C 
ATOM      6  C   UNL     1      -0.742   1.585  -1.213  0.00  0.00    +0.158 C 
ATOM      7  O   UNL     1      -1.200   0.793  -2.013  0.00  0.00    -0.293 OA
ENDBRANCH   1   6
BRANCH   4   9
ATOM      8  H   UNL     1      -2.244   2.469  -3.771  0.00  0.00    +0.142 HD
ATOM      9  N   UNL     1      -2.123   3.401  -3.532  0.00  0.00    -0.361 N 
ATOM     10  H   UNL     1      -2.471   4.099  -4.109  0.00  0.00    +0.142 HD
ENDBRANCH   4   9
TORSDOF 2
