REMARK  Name = ZINC35839401
REMARK  14 active torsions:
REMARK  status: ('A' for Active; 'I' for Inactive)
REMARK    1  A    between atoms: C_1  and  C_2
REMARK    2  A    between atoms: C_2  and  C_3
REMARK    3  A    between atoms: C_2  and  C_4
REMARK    4  A    between atoms: C_4  and  O_5
REMARK    5  A    between atoms: O_5  and  C_6
REMARK    6  A    between atoms: C_6  and  C_7
REMARK    7  A    between atoms: C_7  and  C_9
REMARK    8  A    between atoms: C_7  and  O_37
REMARK    9  A    between atoms: C_9  and  N_10
REMARK   10  A    between atoms: N_13  and  C_16
REMARK   11  A    between atoms: C_16  and  C_17
REMARK   12  A    between atoms: C_19  and  C_22
REMARK   13  A    between atoms: N_27  and  C_30
REMARK   14  A    between atoms: C_30  and  C_31
REMARK                            x       y       z     vdW  Elec       q    Type
REMARK                         _______ _______ _______ _____ _____    ______ ____
ROOT
ATOM      1  C   UNL     1      -6.162 -10.701  -0.250  0.00  0.00    +0.179 A 
ATOM      2  N   UNL     1      -6.679 -10.863  -1.431  0.00  0.00    -0.210 NA
ATOM      3  C   UNL     1      -7.918 -11.407  -1.289  0.00  0.00    +0.164 A 
ATOM      4  C   UNL     1      -8.133 -11.569   0.045  0.00  0.00    +0.230 A 
ATOM      5  O   UNL     1      -7.032 -11.131   0.675  0.00  0.00    -0.449 OA
ENDROOT
BRANCH   3   6
ATOM      6  C   UNL     1      -8.852 -11.755  -2.376  0.00  0.00    +0.268 C 
ATOM      7  O   UNL     1      -9.977 -12.132  -2.113  0.00  0.00    -0.268 OA
ATOM      8  N   UNL     1      -8.458 -11.654  -3.661  0.00  0.00    -0.294 N 
ATOM      9  C   UNL     1      -7.127 -11.130  -4.003  0.00  0.00    +0.123 C 
ATOM     10  C   UNL     1      -6.444 -12.120  -4.954  0.00  0.00    +0.103 C 
ATOM     11  N   UNL     1      -7.325 -12.379  -6.101  0.00  0.00    -0.295 NA
ATOM     12  C   UNL     1      -8.578 -13.017  -5.678  0.00  0.00    +0.103 C 
ATOM     13  C   UNL     1      -9.345 -12.070  -4.757  0.00  0.00    +0.123 C 
BRANCH  11  14
ATOM     14  C   UNL     1      -6.640 -13.186  -7.119  0.00  0.00    +0.119 C 
BRANCH  14  15
ATOM     15  C   UNL     1      -7.473 -13.225  -8.374  0.00  0.00    -0.033 A 
ATOM     16  C   UNL     1      -8.418 -14.219  -8.546  0.00  0.00    +0.005 A 
ATOM     17  C   UNL     1      -9.182 -14.254  -9.698  0.00  0.00    +0.000 A 
ATOM     18  C   UNL     1      -9.001 -13.295 -10.677  0.00  0.00    +0.000 A 
ATOM     19  C   UNL     1      -8.056 -12.300 -10.504  0.00  0.00    +0.000 A 
ATOM     20  C   UNL     1      -7.295 -12.263  -9.351  0.00  0.00    +0.005 A 
ENDBRANCH  14  15
ENDBRANCH  11  14
ENDBRANCH   3   6
BRANCH   1  21
ATOM     21  C   UNL     1      -4.798 -10.126   0.035  0.00  0.00    +0.019 C 
BRANCH  21  25
ATOM     22  N   UNL     1      -4.162  -5.996  -0.474  0.00  0.00    -0.303 NA
ATOM     23  C   UNL     1      -3.715  -6.612   0.783  0.00  0.00    +0.066 C 
ATOM     24  C   UNL     1      -3.599  -8.126   0.594  0.00  0.00    -0.063 C 
ATOM     25  N   UNL     1      -4.905  -8.671   0.199  0.00  0.00    +0.387 N 
ATOM     26  C   UNL     1      -5.327  -8.064  -1.071  0.00  0.00    -0.063 C 
ATOM     27  C   UNL     1      -5.456  -6.550  -0.895  0.00  0.00    +0.066 C 
ATOM     28  H   UNL     1      -5.586  -8.462   0.913  0.00  0.00    -0.081 HD
BRANCH  22  29
ATOM     29  C   UNL     1      -4.230  -4.534  -0.349  0.00  0.00    +0.117 C 
BRANCH  29  30
ATOM     30  C   UNL     1      -4.205  -3.901  -1.742  0.00  0.00    +0.154 C 
BRANCH  30  31
ATOM     31  O   UNL     1      -2.969  -4.216  -2.386  0.00  0.00    -0.388 OA
ATOM     32  H   UNL     1      -2.188  -3.897  -1.914  0.00  0.00    +0.210 HD
ENDBRANCH  30  31
BRANCH  30  33
ATOM     33  C   UNL     1      -4.343  -2.383  -1.615  0.00  0.00    +0.192 C 
BRANCH  33  34
ATOM     34  O   UNL     1      -4.437  -1.802  -2.917  0.00  0.00    -0.377 OA
BRANCH  34  35
ATOM     35  C   UNL     1      -4.569  -0.379  -2.911  0.00  0.00    +0.163 C 
BRANCH  35  37
ATOM     36  C   UNL     1      -4.927   1.637  -4.343  0.00  0.00    +0.009 C 
ATOM     37  C   UNL     1      -4.661   0.130  -4.351  0.00  0.00    +0.009 C 
ATOM     38  C   UNL     1      -3.344  -0.151  -5.077  0.00  0.00    +0.009 C 
ENDBRANCH  35  37
ENDBRANCH  34  35
ENDBRANCH  33  34
ENDBRANCH  30  33
ENDBRANCH  29  30
ENDBRANCH  22  29
ENDBRANCH  21  25
ENDBRANCH   1  21
TORSDOF 12
