REMARK  Name = ZINC00507289
REMARK  4 active torsions:
REMARK  status: ('A' for Active; 'I' for Inactive)
REMARK    1  A    between atoms: C_1  and  C_2
REMARK    2  A    between atoms: C_2  and  C_8
REMARK    3  A    between atoms: C_8  and  O_23
REMARK    4  A    between atoms: C_10  and  C_17
REMARK                            x       y       z     vdW  Elec       q    Type
REMARK                         _______ _______ _______ _____ _____    ______ ____
ROOT
ATOM      1  C   UNL     1      -0.407   1.205   0.121  0.00  0.00    +0.157 C 
ATOM      2  C   UNL     1      -1.058   1.770  -1.164  0.00  0.00    +0.082 C 
ATOM      3  C   UNL     1       0.172   1.867  -2.106  0.00  0.00    +0.107 C 
ATOM      4  N   UNL     1       1.258   2.215  -1.153  0.00  0.00    -0.227 NA
ATOM      5  N   UNL     1       1.029   1.501  -0.005  0.00  0.00    -0.189 N 
ATOM      6  C   UNL     1       1.978   1.126   0.876  0.00  0.00    +0.316 C 
ATOM      7  O   UNL     1       1.687   0.408   1.813  0.00  0.00    -0.251 OA
ATOM      8  N   UNL     1       3.248   1.547   0.718  0.00  0.00    -0.312 N 
ATOM      9  H   UNL     1       1.271   3.206  -0.966  0.00  0.00    +0.145 HD
ATOM     10  H   UNL     1       3.480   2.120  -0.029  0.00  0.00    +0.147 HD
ATOM     11  H   UNL     1       3.931   1.277   1.352  0.00  0.00    +0.147 HD
ENDROOT
BRANCH   1  13
ATOM     12  C   UNL     1      -0.405   1.254   2.619  0.00  0.00    +0.016 C 
ATOM     13  C   UNL     1      -0.984   1.897   1.357  0.00  0.00    +0.015 C 
ATOM     14  C   UNL     1      -2.507   1.747   1.362  0.00  0.00    +0.011 C 
ATOM     15  C   UNL     1      -3.084   2.439   2.598  0.00  0.00    +0.001 C 
ATOM     16  C   UNL     1      -2.718   3.925   2.569  0.00  0.00    +0.000 C 
ATOM     17  C   UNL     1      -1.195   4.074   2.564  0.00  0.00    +0.001 C 
ATOM     18  C   UNL     1      -0.618   3.382   1.328  0.00  0.00    +0.011 C 
ENDBRANCH   1  13
BRANCH   3  19
ATOM     19  C   UNL     1      -0.016   2.958  -3.129  0.00  0.00    -0.029 A 
ATOM     20  C   UNL     1       0.082   4.284  -2.752  0.00  0.00    +0.005 A 
ATOM     21  C   UNL     1      -0.086   5.284  -3.691  0.00  0.00    +0.000 A 
ATOM     22  C   UNL     1      -0.362   4.958  -5.006  0.00  0.00    +0.000 A 
ATOM     23  C   UNL     1      -0.465   3.632  -5.382  0.00  0.00    +0.000 A 
ATOM     24  C   UNL     1      -0.292   2.632  -4.444  0.00  0.00    +0.005 A 
ENDBRANCH   3  19
BRANCH   1  25
ATOM     25  O   UNL     1      -0.616  -0.207   0.202  0.00  0.00    -0.370 OA
ATOM     26  H   UNL     1      -0.288  -0.698  -0.563  0.00  0.00    +0.212 HD
ENDBRANCH   1  25
TORSDOF 3
