REMARK  Name = ZINC36648243
REMARK  9 active torsions:
REMARK  status: ('A' for Active; 'I' for Inactive)
REMARK    1  A    between atoms: C_1  and  C_2
REMARK    2  A    between atoms: C_2  and  N_3
REMARK    3  A    between atoms: C_7  and  S_29
REMARK    4  A    between atoms: C_11  and  S_12
REMARK    5  A    between atoms: S_12  and  C_13
REMARK    6  A    between atoms: C_13  and  C_14
REMARK    7  A    between atoms: C_16  and  C_19
REMARK    8  A    between atoms: C_23  and  C_25
REMARK    9  A    between atoms: S_29  and  N_32
REMARK                            x       y       z     vdW  Elec       q    Type
REMARK                         _______ _______ _______ _____ _____    ______ ____
ROOT
ATOM      1  N   UNL     1      -1.372  -0.511   0.012  0.00  0.00    -0.319 N 
ATOM      2  C   UNL     1      -2.135  -0.796   1.134  0.00  0.00    +0.070 A 
ATOM      3  C   UNL     1      -1.904  -0.716   2.498  0.00  0.00    +0.030 A 
ATOM      4  C   UNL     1      -2.895  -1.085   3.385  0.00  0.00    +0.030 A 
ATOM      5  C   UNL     1      -4.121  -1.536   2.921  0.00  0.00    +0.107 A 
ATOM      6  C   UNL     1      -4.367  -1.623   1.569  0.00  0.00    +0.058 A 
ATOM      7  C   UNL     1      -3.375  -1.252   0.657  0.00  0.00    +0.092 A 
ATOM      8  N   UNL     1      -3.317  -1.226  -0.700  0.00  0.00    -0.222 NA
ATOM      9  C   UNL     1      -2.143  -0.785  -1.082  0.00  0.00    +0.170 A 
ENDROOT
BRANCH   5  10
ATOM     10  S   UNL     1      -5.373  -2.003   4.069  0.00  0.00    +0.056 S 
ATOM     11  O   UNL     1      -6.234  -2.905   3.387  0.00  0.00    -0.153 OA
ATOM     12  O   UNL     1      -4.708  -2.349   5.276  0.00  0.00    -0.153 OA
BRANCH  10  13
ATOM     13  N   UNL     1      -6.269  -0.649   4.394  0.00  0.00    -0.204 NA
ATOM     14  H   UNL     1      -6.048   0.194   3.966  0.00  0.00    +0.144 HD
ATOM     15  H   UNL     1      -7.016  -0.698   5.011  0.00  0.00    +0.144 HD
ENDBRANCH  10  13
ENDBRANCH   5  10
BRANCH   1  17
ATOM     16  C   UNL     1      -0.019   1.526   0.010  0.00  0.00    +0.027 C 
ATOM     17  C   UNL     1       0.002  -0.004   0.002  0.00  0.00    +0.121 C 
ENDBRANCH   1  17
BRANCH   9  18
ATOM     18  S   UNL     1      -1.634  -0.582  -2.756  0.00  0.00    -0.078 S 
BRANCH  18  19
ATOM     19  C   UNL     1      -3.078  -1.105  -3.721  0.00  0.00    +0.176 C 
BRANCH  19  20
ATOM     20  C   UNL     1      -2.773  -0.979  -5.191  0.00  0.00    +0.238 A 
ATOM     21  N   UNL     1      -2.257  -1.909  -5.944  0.00  0.00    -0.191 NA
ATOM     22  C   UNL     1      -2.120  -1.457  -7.204  0.00  0.00    +0.202 A 
ATOM     23  N   UNL     1      -2.554  -0.222  -7.256  0.00  0.00    -0.056 NA
ATOM     24  O   UNL     1      -2.991   0.106  -5.945  0.00  0.00    -0.337 OA
BRANCH  22  25
ATOM     25  C   UNL     1      -1.568  -2.230  -8.345  0.00  0.00    +0.023 A 
ATOM     26  C   UNL     1      -1.143  -3.544  -8.159  0.00  0.00    +0.012 A 
ATOM     27  C   UNL     1      -0.631  -4.258  -9.224  0.00  0.00    +0.001 A 
ATOM     28  C   UNL     1      -0.539  -3.671 -10.473  0.00  0.00    +0.012 A 
ATOM     29  C   UNL     1      -0.959  -2.367 -10.663  0.00  0.00    +0.055 A 
ATOM     30  C   UNL     1      -1.479  -1.646  -9.606  0.00  0.00    +0.024 A 
BRANCH  29  31
ATOM     31  C   UNL     1      -0.855  -1.734 -12.027  0.00  0.00    +0.417 C 
ATOM     32  F   UNL     1      -0.308  -2.654 -12.927  0.00  0.00    -0.166 F 
ATOM     33  F   UNL     1      -2.129  -1.355 -12.463  0.00  0.00    -0.166 F 
ATOM     34  F   UNL     1      -0.032  -0.605 -11.955  0.00  0.00    -0.166 F 
ENDBRANCH  29  31
ENDBRANCH  22  25
ENDBRANCH  19  20
ENDBRANCH  18  19
ENDBRANCH   9  18
TORSDOF 8
