REMARK  Name = ZINC42667304
REMARK  9 active torsions:
REMARK  status: ('A' for Active; 'I' for Inactive)
REMARK    1  A    between atoms: C_1  and  C_2
REMARK    2  A    between atoms: C_5  and  N_9
REMARK    3  A    between atoms: C_6  and  C_8
REMARK    4  A    between atoms: C_10  and  C_12
REMARK    5  A    between atoms: C_12  and  C_14
REMARK    6  A    between atoms: C_12  and  N_15
REMARK    7  A    between atoms: N_15  and  C_16
REMARK    8  A    between atoms: C_19  and  N_22
REMARK    9  A    between atoms: N_25  and  C_26
REMARK                            x       y       z     vdW  Elec       q    Type
REMARK                         _______ _______ _______ _____ _____    ______ ____
ROOT
ATOM      1  N   UNL     1      -0.209  -6.842  -2.543  0.00  0.00    -0.333 N 
ATOM      2  H   UNL     1       0.144  -6.303  -3.268  0.00  0.00    +0.147 HD
ENDROOT
BRANCH   1   3
ATOM      3  C   UNL     1      -0.818  -8.072  -2.817  0.00  0.00    +0.028 A 
ATOM      4  C   UNL     1      -1.329  -8.841  -1.779  0.00  0.00    +0.025 A 
ATOM      5  C   UNL     1      -1.930 -10.054  -2.050  0.00  0.00    +0.025 A 
ATOM      6  C   UNL     1      -2.024 -10.505  -3.360  0.00  0.00    +0.035 A 
ATOM      7  C   UNL     1      -1.514  -9.736  -4.397  0.00  0.00    +0.025 A 
ATOM      8  C   UNL     1      -0.918  -8.520  -4.128  0.00  0.00    +0.025 A 
BRANCH   6   9
ATOM      9  N   UNL     1      -2.635 -11.736  -3.635  0.00  0.00    -0.269 N 
ATOM     10  C   UNL     1      -3.686 -12.147  -2.898  0.00  0.00    +0.304 C 
ATOM     11  O   UNL     1      -4.053 -11.489  -1.943  0.00  0.00    -0.253 OA
ATOM     12  N   UNL     1      -4.330 -13.286  -3.219  0.00  0.00    -0.296 N 
ATOM     13  H   UNL     1      -2.300 -12.293  -4.355  0.00  0.00    +0.156 HD
ATOM     14  H   UNL     1      -4.037 -13.811  -3.981  0.00  0.00    +0.151 HD
BRANCH  12  15
ATOM     15  C   UNL     1      -5.473 -13.732  -2.418  0.00  0.00    +0.075 C 
ATOM     16  C   UNL     1      -5.546 -15.217  -2.057  0.00  0.00    +0.024 C 
ATOM     17  C   UNL     1      -6.503 -14.636  -3.099  0.00  0.00    +0.024 C 
ENDBRANCH  12  15
ENDBRANCH   6   9
ENDBRANCH   1   3
BRANCH   1  18
ATOM     18  C   UNL     1      -0.103  -6.369  -1.160  0.00  0.00    +0.154 C 
ATOM     19  C   UNL     1       1.146  -6.967  -0.510  0.00  0.00    +0.038 C 
BRANCH  18  21
ATOM     20  N   UNL     1       0.102  -4.205   0.020  0.00  0.00    -0.284 N 
ATOM     21  C   UNL     1      -0.004  -4.865  -1.150  0.00  0.00    +0.237 C 
ATOM     22  O   UNL     1      -0.020  -4.250  -2.195  0.00  0.00    -0.273 OA
ATOM     23  H   UNL     1       0.181  -4.699   0.850  0.00  0.00    +0.155 HD
BRANCH  20  28
ATOM     24  C   UNL     1       0.086   1.468   0.085  0.00  0.00    +0.044 C 
ATOM     25  C   UNL     1       0.090  -0.039   0.068  0.00  0.00    -0.050 A 
ATOM     26  C   UNL     1       0.682  -0.715  -0.984  0.00  0.00    +0.005 A 
ATOM     27  C   UNL     1       0.688  -2.096  -1.002  0.00  0.00    +0.024 A 
ATOM     28  C   UNL     1       0.099  -2.806   0.036  0.00  0.00    +0.036 A 
ATOM     29  C   UNL     1      -0.494  -2.124   1.090  0.00  0.00    -0.029 A 
ATOM     30  C   UNL     1      -0.492  -0.743   1.106  0.00  0.00    +0.008 A 
ATOM     31  C   UNL     1      -1.135  -2.890   2.219  0.00  0.00    +0.045 C 
ENDBRANCH  20  28
ENDBRANCH  18  21
ENDBRANCH   1  18
TORSDOF 6
