REMARK  Name = ZINC36028064
REMARK  12 active torsions:
REMARK  status: ('A' for Active; 'I' for Inactive)
REMARK    1  A    between atoms: C_1  and  C_2
REMARK    2  A    between atoms: C_2  and  C_3
REMARK    3  A    between atoms: C_3  and  N_4
REMARK    4  A    between atoms: N_4  and  C_5
REMARK    5  A    between atoms: C_5  and  N_7
REMARK    6  A    between atoms: C_14  and  C_32
REMARK    7  A    between atoms: N_18  and  C_19
REMARK    8  A    between atoms: N_22  and  C_25
REMARK    9  A    between atoms: C_25  and  C_26
REMARK   10  A    between atoms: C_32  and  C_34
REMARK   11  A    between atoms: C_32  and  C_35
REMARK   12  A    between atoms: C_35  and  C_36
REMARK                            x       y       z     vdW  Elec       q    Type
REMARK                         _______ _______ _______ _____ _____    ______ ____
ROOT
ATOM      1  N   UNL     1       2.088  -4.393  -3.753  0.00  0.00    -0.313 N 
ATOM      2  C   UNL     1       1.150  -4.526  -2.630  0.00  0.00    +0.107 C 
ATOM      3  C   UNL     1       0.193  -5.686  -2.923  0.00  0.00    +0.025 C 
ATOM      4  C   UNL     1       1.002  -6.945  -3.229  0.00  0.00    +0.006 C 
ATOM      5  C   UNL     1       1.889  -6.722  -4.453  0.00  0.00    +0.025 C 
ATOM      6  C   UNL     1       2.856  -5.572  -4.177  0.00  0.00    +0.107 C 
ATOM      7  N   UNL     1       0.086  -8.079  -3.477  0.00  0.00    +0.401 N 
ATOM      8  C   UNL     1      -0.048  -8.701  -2.138  0.00  0.00    +0.022 C 
ATOM      9  C   UNL     1       1.229  -8.337  -1.413  0.00  0.00    +0.201 C 
ATOM     10  O   UNL     1       1.652  -8.871  -0.410  0.00  0.00    -0.277 OA
ATOM     11  N   UNL     1       1.819  -7.317  -2.071  0.00  0.00    -0.311 N 
ATOM     12  H   UNL     1      -0.809  -7.748  -3.807  0.00  0.00    -0.082 HD
ATOM     13  H   UNL     1       0.492  -8.729  -4.133  0.00  0.00    -0.082 HD
ENDROOT
BRANCH  11  14
ATOM     14  C   UNL     1       3.081  -6.680  -1.688  0.00  0.00    +0.071 C 
ATOM     15  C   UNL     1       4.253  -7.475  -2.270  0.00  0.00    +0.004 C 
ATOM     16  C   UNL     1       5.569  -6.851  -1.800  0.00  0.00    -0.077 C 
ATOM     17  N   UNL     1       5.634  -6.884  -0.334  0.00  0.00    +0.382 N 
ATOM     18  C   UNL     1       4.555  -6.064   0.231  0.00  0.00    -0.077 C 
ATOM     19  C   UNL     1       3.200  -6.658  -0.161  0.00  0.00    +0.004 C 
ATOM     20  H   UNL     1       5.534  -7.835  -0.014  0.00  0.00    -0.081 HD
BRANCH  17  21
ATOM     21  C   UNL     1       6.931  -6.355   0.109  0.00  0.00    -0.043 C 
BRANCH  21  22
ATOM     22  C   UNL     1       7.049  -6.501   1.605  0.00  0.00    -0.064 A 
ATOM     23  C   UNL     1       6.607  -5.487   2.435  0.00  0.00    +0.002 A 
ATOM     24  C   UNL     1       6.715  -5.621   3.806  0.00  0.00    +0.000 A 
ATOM     25  C   UNL     1       7.264  -6.768   4.348  0.00  0.00    +0.000 A 
ATOM     26  C   UNL     1       7.705  -7.782   3.518  0.00  0.00    +0.000 A 
ATOM     27  C   UNL     1       7.593  -7.650   2.147  0.00  0.00    +0.002 A 
ENDBRANCH  21  22
ENDBRANCH  17  21
ENDBRANCH  11  14
BRANCH   1  28
ATOM     28  C   UNL     1       2.238  -3.213  -4.387  0.00  0.00    +0.133 C 
ATOM     29  S   UNL     1       3.225  -3.109  -5.781  0.00  0.00    -0.019 S 
BRANCH  28  30
ATOM     30  N   UNL     1       1.610  -2.114  -3.922  0.00  0.00    -0.326 N 
ATOM     31  H   UNL     1       0.994  -2.187  -3.177  0.00  0.00    +0.148 HD
BRANCH  30  32
ATOM     32  C   UNL     1       1.858  -0.811  -4.544  0.00  0.00    +0.103 C 
BRANCH  32  34
ATOM     33  C   UNL     1       1.286   1.620  -4.482  0.00  0.00    +0.005 C 
ATOM     34  C   UNL     1       1.027   0.259  -3.833  0.00  0.00    +0.015 C 
ENDBRANCH  32  34
ENDBRANCH  30  32
ENDBRANCH  28  30
ENDBRANCH   1  28
BRANCH   8  35
ATOM     35  C   UNL     1      -1.262  -8.129  -1.403  0.00  0.00    -0.020 C 
ATOM     36  C   UNL     1      -1.313  -8.695   0.017  0.00  0.00    +0.006 C 
BRANCH  35  37
ATOM     37  C   UNL     1      -2.540  -8.514  -2.152  0.00  0.00    -0.001 C 
ATOM     38  C   UNL     1      -3.742  -7.839  -1.489  0.00  0.00    +0.004 C 
ENDBRANCH  35  37
ENDBRANCH   8  35
TORSDOF 9
