REMARK  Name = ZINC13778885
REMARK  2 active torsions:
REMARK  status: ('A' for Active; 'I' for Inactive)
REMARK    1  A    between atoms: C_3  and  C_8
REMARK    2  A    between atoms: N_14  and  C_15
REMARK                            x       y       z     vdW  Elec       q    Type
REMARK                         _______ _______ _______ _____ _____    ______ ____
ROOT
ATOM      1  C   UNL     1       3.819   2.117  -1.035  0.00  0.00    +0.028 C 
ATOM      2  C   UNL     1       4.963   1.464  -0.713  0.00  0.00    +0.078 C 
ATOM      3  C   UNL     1       6.335   1.991  -0.569  0.00  0.00    +0.256 C 
ATOM      4  O   UNL     1       6.585   3.169  -0.742  0.00  0.00    -0.269 OA
ATOM      5  N   UNL     1       7.278   1.124  -0.242  0.00  0.00    -0.260 N 
ATOM      6  C   UNL     1       6.974  -0.206  -0.051  0.00  0.00    +0.166 C 
ATOM      7  N   UNL     1       7.782  -1.190   0.274  0.00  0.00    -0.224 NA
ATOM      8  S   UNL     1       5.214  -0.266  -0.341  0.00  0.00    -0.049 S 
ATOM      9  H   UNL     1       8.194   1.427  -0.137  0.00  0.00    +0.157 HD
ENDROOT
BRANCH   7  10
ATOM     10  C   UNL     1       9.111  -0.942   0.487  0.00  0.00    +0.085 A 
ATOM     11  C   UNL     1       9.504   0.109   1.319  0.00  0.00    +0.031 A 
ATOM     12  C   UNL     1      10.845   0.353   1.530  0.00  0.00    +0.022 A 
ATOM     13  C   UNL     1      11.802  -0.440   0.920  0.00  0.00    +0.042 A 
ATOM     14  C   UNL     1      11.420  -1.484   0.094  0.00  0.00    +0.042 A 
ATOM     15  C   UNL     1      10.081  -1.743  -0.122  0.00  0.00    +0.068 A 
ATOM     16 CL   UNL     1       9.604  -3.056  -1.151  0.00  0.00    -0.081 Cl
ATOM     17 CL   UNL     1      13.487  -0.124   1.190  0.00  0.00    -0.083 Cl
ENDBRANCH   7  10
BRANCH   1  20
ATOM     18  C   UNL     1       0.245   1.293  -1.820  0.00  0.00    +0.003 A 
ATOM     19  C   UNL     1       1.379   2.013  -1.506  0.00  0.00    +0.008 A 
ATOM     20  C   UNL     1       2.606   1.356  -1.369  0.00  0.00    -0.021 A 
ATOM     21  C   UNL     1       2.674  -0.029  -1.554  0.00  0.00    +0.046 A 
ATOM     22  C   UNL     1       1.531  -0.737  -1.868  0.00  0.00    +0.124 A 
ATOM     23  C   UNL     1       0.319  -0.076  -2.001  0.00  0.00    +0.038 A 
ATOM     24  F   UNL     1       1.593  -2.074  -2.047  0.00  0.00    -0.205 F 
ENDBRANCH   1  20
TORSDOF 2
