REMARK  Name = ZINC20721239
REMARK  5 active torsions:
REMARK  status: ('A' for Active; 'I' for Inactive)
REMARK    1  A    between atoms: C_1  and  O_2
REMARK    2  A    between atoms: O_2  and  C_3
REMARK    3  A    between atoms: C_3  and  C_5
REMARK    4  A    between atoms: C_8  and  N_11
REMARK    5  A    between atoms: C_23  and  C_25
REMARK                            x       y       z     vdW  Elec       q    Type
REMARK                         _______ _______ _______ _____ _____    ______ ____
ROOT
ATOM      1  N   UNL     1       0.651  -6.844  -0.863  0.00  0.00    -0.269 N 
ATOM      2  C   UNL     1       1.149  -7.174  -2.071  0.00  0.00    +0.307 C 
ATOM      3  O   UNL     1       1.461  -6.303  -2.859  0.00  0.00    -0.252 OA
ATOM      4  N   UNL     1       1.300  -8.471  -2.407  0.00  0.00    -0.272 N 
ATOM      5  C   UNL     1       0.818  -9.539  -1.518  0.00  0.00    +0.116 C 
ATOM      6  C   UNL     1       2.017 -10.358  -1.021  0.00  0.00    +0.074 C 
ATOM      7  C   UNL     1       2.924 -10.646  -2.188  0.00  0.00    +0.040 A 
ATOM      8  C   UNL     1       2.905  -9.982  -3.364  0.00  0.00    +0.062 A 
ATOM      9  N   UNL     1       3.846 -10.506  -4.152  0.00  0.00    -0.348 N 
ATOM     10  C   UNL     1       4.450 -11.474  -3.513  0.00  0.00    +0.171 A 
ATOM     11  N   UNL     1       3.900 -11.592  -2.282  0.00  0.00    -0.349 N 
ATOM     12  H   UNL     1       4.153 -12.230  -1.597  0.00  0.00    +0.166 HD
ATOM     13  C   UNL     1       1.946  -8.853  -3.675  0.00  0.00    +0.159 C 
ATOM     14  H   UNL     1       0.481  -7.535  -0.204  0.00  0.00    +0.156 HD
ATOM     15  H   UNL     1       4.050 -10.214  -5.054  0.00  0.00    +0.167 HD
ENDROOT
BRANCH  13  16
ATOM     16  C   UNL     1       0.905  -9.315  -4.662  0.00  0.00    +0.017 A 
ATOM     17  C   UNL     1       0.644 -10.665  -4.808  0.00  0.00    +0.011 A 
ATOM     18  C   UNL     1      -0.310 -11.092  -5.712  0.00  0.00    +0.042 A 
ATOM     19  C   UNL     1      -1.006 -10.169  -6.474  0.00  0.00    +0.161 A 
ATOM     20  C   UNL     1      -0.745  -8.815  -6.329  0.00  0.00    +0.194 A 
ATOM     21  C   UNL     1       0.208  -8.389  -5.418  0.00  0.00    +0.167 A 
ATOM     22  F   UNL     1       0.460  -7.070  -5.270  0.00  0.00    -0.202 F 
ATOM     23  F   UNL     1      -1.422  -7.913  -7.072  0.00  0.00    -0.199 F 
ATOM     24  F   UNL     1      -1.938 -10.587  -7.358  0.00  0.00    -0.202 F 
ENDBRANCH  13  16
BRANCH   1  28
ATOM     25  C   UNL     1      -0.153  -2.858   0.039  0.00  0.00    +0.059 A 
ATOM     26  C   UNL     1      -0.979  -3.870   0.538  0.00  0.00    +0.017 A 
ATOM     27  C   UNL     1      -0.710  -5.186   0.238  0.00  0.00    +0.024 A 
ATOM     28  C   UNL     1       0.382  -5.510  -0.561  0.00  0.00    +0.035 A 
ATOM     29  C   UNL     1       1.206  -4.506  -1.059  0.00  0.00    +0.024 A 
ATOM     30  C   UNL     1       0.940  -3.187  -0.768  0.00  0.00    +0.017 A 
BRANCH  25  31
ATOM     31  C   UNL     1      -0.438  -1.447   0.358  0.00  0.00    +0.339 C 
ATOM     32  O   UNL     1       0.278  -0.569  -0.081  0.00  0.00    -0.245 OA
BRANCH  31  34
ATOM     33  C   UNL     1      -1.709   0.255   1.404  0.00  0.00    +0.280 C 
ATOM     34  O   UNL     1      -1.492  -1.132   1.136  0.00  0.00    -0.464 OA
ENDBRANCH  31  34
ENDBRANCH  25  31
ENDBRANCH   1  28
TORSDOF 4
