REMARK  Name = ZINC48342913
REMARK  2 active torsions:
REMARK  status: ('A' for Active; 'I' for Inactive)
REMARK    1  A    between atoms: C_6  and  C_7
REMARK    2  A    between atoms: N_14  and  C_15
REMARK                            x       y       z     vdW  Elec       q    Type
REMARK                         _______ _______ _______ _____ _____    ______ ____
ROOT
ATOM      1  C   UNL     1      -1.258  -0.758   0.009  0.00  0.00    +0.028 C 
ATOM      2  C   UNL     1      -2.440  -0.103   0.125  0.00  0.00    +0.079 C 
ATOM      3  C   UNL     1      -2.721   1.352   0.151  0.00  0.00    +0.276 C 
ATOM      4  O   UNL     1      -1.830   2.181   0.062  0.00  0.00    -0.267 OA
ATOM      5  N   UNL     1      -3.983   1.700   0.276  0.00  0.00    -0.154 NA
ATOM      6  C   UNL     1      -4.958   0.811   0.373  0.00  0.00    +0.152 C 
ATOM      7  S   UNL     1      -4.099  -0.752   0.281  0.00  0.00    -0.052 S 
ATOM      8  N   UNL     1      -6.303   1.036   0.505  0.00  0.00    -0.322 N 
ATOM      9  H   UNL     1      -6.916   0.286   0.567  0.00  0.00    +0.148 HD
ENDROOT
BRANCH   1  15
ATOM     10  C   UNL     1       0.141   1.059   0.968  0.00  0.00    +0.012 A 
ATOM     11  C   UNL     1       1.327   1.757   1.028  0.00  0.00    +0.050 A 
ATOM     12  C   UNL     1       2.391   1.402   0.207  0.00  0.00    +0.162 A 
ATOM     13  C   UNL     1       2.264   0.336  -0.681  0.00  0.00    +0.163 A 
ATOM     14  C   UNL     1       1.078  -0.369  -0.749  0.00  0.00    +0.057 A 
ATOM     15  C   UNL     1       0.005  -0.012   0.077  0.00  0.00    -0.020 A 
ATOM     16  O   UNL     1       3.301  -0.027  -1.485  0.00  0.00    -0.485 OA
ATOM     17  C   UNL     1       4.349   0.933  -1.657  0.00  0.00    +0.270 C 
ATOM     18  C   UNL     1       4.717   1.495  -0.277  0.00  0.00    +0.270 C 
ATOM     19  O   UNL     1       3.551   2.109   0.282  0.00  0.00    -0.485 OA
ENDBRANCH   1  15
BRANCH   8  20
ATOM     20  C   UNL     1      -6.815   2.407   0.554  0.00  0.00    +0.072 C 
ATOM     21  C   UNL     1      -6.735   2.931   1.990  0.00  0.00    +0.022 C 
ATOM     22  C   UNL     1      -7.270   4.363   2.041  0.00  0.00    +0.002 C 
ATOM     23  C   UNL     1      -8.726   4.381   1.572  0.00  0.00    +0.000 C 
ATOM     24  C   UNL     1      -8.806   3.857   0.137  0.00  0.00    +0.002 C 
ATOM     25  C   UNL     1      -8.271   2.425   0.086  0.00  0.00    +0.022 C 
ENDBRANCH   8  20
TORSDOF 2
