REMARK  Name = ZINC36491334
REMARK  8 active torsions:
REMARK  status: ('A' for Active; 'I' for Inactive)
REMARK    1  A    between atoms: C_1  and  C_2
REMARK    2  A    between atoms: C_2  and  C_4
REMARK    3  A    between atoms: N_6  and  C_7
REMARK    4  A    between atoms: N_6  and  C_13
REMARK    5  A    between atoms: C_13  and  C_15
REMARK    6  A    between atoms: C_13  and  C_25
REMARK    7  A    between atoms: C_17  and  N_22
REMARK    8  A    between atoms: N_27  and  C_28
REMARK                            x       y       z     vdW  Elec       q    Type
REMARK                         _______ _______ _______ _____ _____    ______ ____
ROOT
ATOM      1  C   UNL     1      -0.285   0.993  -1.708  0.00  0.00    +0.194 C 
ENDROOT
BRANCH   1   2
ATOM      2  C   UNL     1      -1.671   1.565  -1.564  0.00  0.00    +0.002 A 
ATOM      3  C   UNL     1      -2.683   0.798  -1.018  0.00  0.00    +0.040 A 
ATOM      4  C   UNL     1      -3.955   1.322  -0.886  0.00  0.00    +0.127 A 
ATOM      5  C   UNL     1      -4.216   2.615  -1.301  0.00  0.00    +0.034 A 
ATOM      6  C   UNL     1      -3.206   3.384  -1.846  0.00  0.00    +0.022 A 
ATOM      7  C   UNL     1      -1.931   2.861  -1.973  0.00  0.00    +0.047 A 
ATOM      8 CL   UNL     1      -0.659   3.829  -2.652  0.00  0.00    -0.083 Cl
BRANCH   4   9
ATOM      9  N   UNL     1      -5.038   0.500  -0.302  0.00  0.00    +0.056 N 
ATOM     10  O   UNL     1      -4.809  -0.631   0.060  0.00  0.00    -0.126 OA
ATOM     11  O   UNL     1      -6.150   0.958  -0.187  0.00  0.00    -0.126 OA
ENDBRANCH   4   9
ENDBRANCH   1   2
BRANCH   1  12
ATOM     12  C   UNL     1       0.633   1.643  -0.705  0.00  0.00    +0.238 C 
ATOM     13  O   UNL     1       1.740   1.186  -0.512  0.00  0.00    -0.273 OA
ATOM     14  N   UNL     1       0.225   2.731  -0.023  0.00  0.00    -0.311 N 
ATOM     15  H   UNL     1      -0.661   3.096  -0.178  0.00  0.00    +0.149 HD
BRANCH  14  16
ATOM     16  C   UNL     1       1.117   3.362   0.952  0.00  0.00    +0.073 C 
ATOM     17  C   UNL     1       0.987   2.649   2.299  0.00  0.00    +0.022 C 
ATOM     18  C   UNL     1       1.919   3.309   3.318  0.00  0.00    +0.002 C 
ATOM     19  C   UNL     1       1.537   4.781   3.481  0.00  0.00    +0.000 C 
ATOM     20  C   UNL     1       1.667   5.494   2.133  0.00  0.00    +0.002 C 
ATOM     21  C   UNL     1       0.735   4.835   1.115  0.00  0.00    +0.022 C 
ENDBRANCH  14  16
ENDBRANCH   1  12
BRANCH   1  24
ATOM     22  C   UNL     1      -0.828  -1.276  -2.409  0.00  0.00    +0.243 C 
ATOM     23  O   UNL     1      -0.991  -2.455  -2.160  0.00  0.00    -0.270 OA
ATOM     24  N   UNL     1      -0.326  -0.452  -1.469  0.00  0.00    -0.279 N 
BRANCH  24  25
ATOM     25  C   UNL     1       0.179  -1.000  -0.208  0.00  0.00    +0.077 C 
ATOM     26  C   UNL     1       0.522  -2.479  -0.396  0.00  0.00    +0.022 C 
ATOM     27  C   UNL     1       1.050  -3.052   0.921  0.00  0.00    +0.002 C 
ATOM     28  C   UNL     1      -0.022  -2.910   2.004  0.00  0.00    +0.000 C 
ATOM     29  C   UNL     1      -0.364  -1.431   2.192  0.00  0.00    +0.002 C 
ATOM     30  C   UNL     1      -0.892  -0.858   0.875  0.00  0.00    +0.022 C 
ENDBRANCH  24  25
BRANCH  22  32
ATOM     31  C   UNL     1      -0.182   0.078  -4.507  0.00  0.00    +0.048 C 
ATOM     32  C   UNL     1      -1.179  -0.751  -3.738  0.00  0.00    +0.004 C 
ATOM     33  C   UNL     1      -2.375  -1.007  -4.260  0.00  0.00    +0.017 C 
ENDBRANCH  22  32
ENDBRANCH   1  24
TORSDOF 7
