REMARK  Name = ZINC59223971
REMARK  9 active torsions:
REMARK  status: ('A' for Active; 'I' for Inactive)
REMARK    1  A    between atoms: C_1  and  C_2
REMARK    2  A    between atoms: C_2  and  O_3
REMARK    3  A    between atoms: O_3  and  C_4
REMARK    4  A    between atoms: C_6  and  C_12
REMARK    5  A    between atoms: C_9  and  O_10
REMARK    6  A    between atoms: O_10  and  C_11
REMARK    7  A    between atoms: N_18  and  C_19
REMARK    8  A    between atoms: C_22  and  C_26
REMARK    9  A    between atoms: C_23  and  C_25
REMARK                            x       y       z     vdW  Elec       q    Type
REMARK                         _______ _______ _______ _____ _____    ______ ____
ROOT
ATOM      1  C   UNL     1      -0.208  -4.963   0.442  0.00  0.00    +0.028 C 
ATOM      2  C   UNL     1      -0.190  -6.303   0.225  0.00  0.00    +0.078 C 
ATOM      3  C   UNL     1      -0.783  -7.389   1.029  0.00  0.00    +0.256 C 
ATOM      4  O   UNL     1      -1.399  -7.159   2.053  0.00  0.00    -0.269 OA
ATOM      5  N   UNL     1      -0.616  -8.623   0.585  0.00  0.00    -0.260 N 
ATOM      6  C   UNL     1       0.085  -8.863  -0.577  0.00  0.00    +0.166 C 
ATOM      7  N   UNL     1       0.342 -10.016  -1.153  0.00  0.00    -0.226 NA
ATOM      8  S   UNL     1       0.552  -7.225  -1.113  0.00  0.00    -0.049 S 
ATOM      9  H   UNL     1      -0.989  -9.367   1.083  0.00  0.00    +0.157 HD
ENDROOT
BRANCH   7  10
ATOM     10  C   UNL     1      -0.110 -11.178  -0.590  0.00  0.00    +0.067 A 
ATOM     11  C   UNL     1       0.021 -11.389   0.785  0.00  0.00    +0.028 A 
ATOM     12  C   UNL     1      -0.437 -12.562   1.346  0.00  0.00    +0.006 A 
ATOM     13  C   UNL     1      -1.026 -13.530   0.551  0.00  0.00    -0.047 A 
ATOM     14  C   UNL     1      -1.159 -13.328  -0.811  0.00  0.00    -0.046 A 
ATOM     15  C   UNL     1      -0.710 -12.157  -1.385  0.00  0.00    +0.031 A 
ATOM     16  C   UNL     1      -1.801 -14.388  -1.669  0.00  0.00    +0.044 C 
ATOM     17  C   UNL     1      -1.524 -14.810   1.171  0.00  0.00    +0.044 C 
ENDBRANCH   7  10
BRANCH   1  20
ATOM     18  C   UNL     1       1.061  -1.865  -1.248  0.00  0.00    +0.162 A 
ATOM     19  C   UNL     1       0.309  -2.699  -0.444  0.00  0.00    +0.057 A 
ATOM     20  C   UNL     1       0.587  -4.071  -0.412  0.00  0.00    -0.020 A 
ATOM     21  C   UNL     1       1.624  -4.589  -1.196  0.00  0.00    +0.012 A 
ATOM     22  C   UNL     1       2.368  -3.749  -1.996  0.00  0.00    +0.050 A 
ATOM     23  C   UNL     1       2.089  -2.390  -2.031  0.00  0.00    +0.162 A 
BRANCH  23  24
ATOM     24  O   UNL     1       2.823  -1.568  -2.825  0.00  0.00    -0.491 OA
ATOM     25  C   UNL     1       3.860  -2.171  -3.600  0.00  0.00    +0.277 C 
ENDBRANCH  23  24
BRANCH  18  26
ATOM     26  O   UNL     1       0.794  -0.531  -1.282  0.00  0.00    -0.489 OA
BRANCH  26  28
ATOM     27  C   UNL     1      -0.422   1.451  -0.626  0.00  0.00    +0.048 C 
ATOM     28  C   UNL     1      -0.273  -0.062  -0.456  0.00  0.00    +0.226 C 
ENDBRANCH  26  28
ENDBRANCH  18  26
ENDBRANCH   1  20
TORSDOF 5
