REMARK  Name = ZINC32727451
REMARK  10 active torsions:
REMARK  status: ('A' for Active; 'I' for Inactive)
REMARK    1  A    between atoms: C_1  and  C_2
REMARK    2  A    between atoms: C_2  and  C_3
REMARK    3  A    between atoms: C_2  and  C_4
REMARK    4  A    between atoms: C_7  and  C_10
REMARK    5  A    between atoms: C_10  and  C_33
REMARK    6  A    between atoms: N_13  and  C_17
REMARK    7  A    between atoms: C_17  and  C_18
REMARK    8  A    between atoms: C_18  and  C_20
REMARK    9  A    between atoms: N_28  and  S_29
REMARK   10  A    between atoms: S_29  and  C_32
REMARK                            x       y       z     vdW  Elec       q    Type
REMARK                         _______ _______ _______ _____ _____    ______ ____
ROOT
ATOM      1  C   UNL     1      -8.861   6.306  -2.308  0.00  0.00    +0.135 C 
ATOM      2  C   UNL     1      -8.165   5.254  -1.467  0.00  0.00    +0.251 C 
ATOM      3  O   UNL     1      -8.548   4.126  -1.240  0.00  0.00    -0.272 OA
ATOM      4  N   UNL     1      -7.032   5.833  -1.024  0.00  0.00    -0.216 N 
ATOM      5  C   UNL     1      -6.918   7.093  -1.460  0.00  0.00    +0.310 C 
ATOM      6  O   UNL     1      -5.983   7.820  -1.189  0.00  0.00    -0.252 OA
ATOM      7  N   UNL     1      -7.954   7.464  -2.235  0.00  0.00    -0.281 N 
ATOM      8  C   UNL     1     -10.227   6.653  -1.713  0.00  0.00    +0.047 C 
ATOM      9  H   UNL     1      -8.205   8.394  -2.766  0.00  0.00    +0.152 HD
ENDROOT
BRANCH   1  13
ATOM     10  C   UNL     1      -9.271   4.971  -6.345  0.00  0.00    -0.045 A 
ATOM     11  C   UNL     1      -9.146   6.321  -6.073  0.00  0.00    +0.004 A 
ATOM     12  C   UNL     1      -9.013   6.753  -4.766  0.00  0.00    +0.006 A 
ATOM     13  C   UNL     1      -9.006   5.835  -3.732  0.00  0.00    -0.015 A 
ATOM     14  C   UNL     1      -9.126   4.485  -4.005  0.00  0.00    +0.006 A 
ATOM     15  C   UNL     1      -9.263   4.054  -5.311  0.00  0.00    +0.004 A 
BRANCH  10  17
ATOM     16  C   UNL     1      -8.258   3.563  -8.117  0.00  0.00    +0.012 C 
ATOM     17  C   UNL     1      -9.416   4.500  -7.770  0.00  0.00    +0.013 C 
ATOM     18  C   UNL     1     -10.742   3.754  -7.928  0.00  0.00    +0.012 C 
ENDBRANCH  10  17
ENDBRANCH   1  13
BRANCH   4  19
ATOM     19  C   UNL     1      -6.048   5.168  -0.167  0.00  0.00    +0.197 C 
BRANCH  19  20
ATOM     20  C   UNL     1      -5.022   4.473  -1.024  0.00  0.00    +0.181 C 
ATOM     21  O   UNL     1      -5.105   4.528  -2.233  0.00  0.00    -0.290 OA
BRANCH  20  22
ATOM     22  C   UNL     1      -3.924   3.729  -0.397  0.00  0.00    +0.019 A 
ATOM     23  C   UNL     1      -3.823   3.661   0.999  0.00  0.00    +0.013 A 
ATOM     24  C   UNL     1      -2.801   2.971   1.577  0.00  0.00    +0.026 A 
ATOM     25  C   UNL     1      -1.843   2.323   0.786  0.00  0.00    +0.054 A 
ATOM     26  C   UNL     1      -1.946   2.392  -0.599  0.00  0.00    -0.023 A 
ATOM     27  C   UNL     1      -2.967   3.081  -1.189  0.00  0.00    +0.017 A 
ATOM     28  C   UNL     1      -0.797   1.615  -1.204  0.00  0.00    +0.058 C 
ATOM     29  C   UNL     1      -0.013   1.086   0.008  0.00  0.00    +0.136 C 
ATOM     30  N   UNL     1      -0.738   1.578   1.182  0.00  0.00    -0.207 N 
BRANCH  30  31
ATOM     31  S   UNL     1      -0.303   1.287   2.753  0.00  0.00    +0.043 S 
ATOM     32  O   UNL     1      -1.516   1.380   3.488  0.00  0.00    -0.155 OA
ATOM     33  O   UNL     1       0.425   0.067   2.708  0.00  0.00    -0.155 OA
ATOM     34  C   UNL     1       0.801   2.657   3.193  0.00  0.00    +0.218 C 
ENDBRANCH  30  31
ENDBRANCH  20  22
ENDBRANCH  19  20
ENDBRANCH   4  19
TORSDOF 6
