REMARK  Name = ZINC32169163
REMARK  4 active torsions:
REMARK  status: ('A' for Active; 'I' for Inactive)
REMARK    1  A    between atoms: C_9  and  S_11
REMARK    2  A    between atoms: S_11  and  C_12
REMARK    3  A    between atoms: C_12  and  C_13
REMARK    4  A    between atoms: C_16  and  C_18
REMARK                            x       y       z     vdW  Elec       q    Type
REMARK                         _______ _______ _______ _____ _____    ______ ____
ROOT
ATOM      1  C   UNL     1       5.242   4.449  -0.023  0.00  0.00    +0.136 C 
ENDROOT
BRANCH   1   2
ATOM      2  C   UNL     1       6.716   4.763  -0.035  0.00  0.00    +0.090 A 
ATOM      3  C   UNL     1       7.500   4.928   1.046  0.00  0.00    +0.221 A 
ATOM      4  O   UNL     1       8.745   5.192   0.602  0.00  0.00    -0.443 OA
ATOM      5  C   UNL     1       8.707   5.194  -0.742  0.00  0.00    +0.227 A 
ATOM      6  N   UNL     1       7.479   4.934  -1.125  0.00  0.00    -0.213 NA
BRANCH   5   7
ATOM      7  C   UNL     1       9.855   5.446  -1.637  0.00  0.00    +0.037 A 
ATOM      8  C   UNL     1       9.684   5.413  -3.022  0.00  0.00    +0.014 A 
ATOM      9  C   UNL     1      10.759   5.654  -3.853  0.00  0.00    +0.021 A 
ATOM     10  C   UNL     1      12.008   5.918  -3.315  0.00  0.00    +0.041 A 
ATOM     11  C   UNL     1      12.184   5.946  -1.942  0.00  0.00    +0.021 A 
ATOM     12  C   UNL     1      11.116   5.712  -1.101  0.00  0.00    +0.014 A 
ATOM     13 CL   UNL     1      13.357   6.214  -4.367  0.00  0.00    -0.084 Cl
ENDBRANCH   5   7
ENDBRANCH   1   2
BRANCH   1  14
ATOM     14  S   UNL     1       5.008   2.654  -0.030  0.00  0.00    -0.082 S 
BRANCH  14  23
ATOM     15  C   UNL     1      -1.216   1.751   0.017  0.00  0.00    +0.002 A 
ATOM     16  C   UNL     1      -1.243   3.138   0.030  0.00  0.00    +0.002 A 
ATOM     17  C   UNL     1      -0.071   3.860   0.023  0.00  0.00    +0.030 A 
ATOM     18  C   UNL     1       1.156   3.191   0.008  0.00  0.00    +0.090 A 
ATOM     19  C   UNL     1       1.178   1.787   0.000  0.00  0.00    +0.067 A 
ATOM     20  C   UNL     1      -0.013   1.076   0.008  0.00  0.00    +0.028 A 
ATOM     21  N   UNL     1       2.514   1.422  -0.014  0.00  0.00    -0.333 N 
ATOM     22  H   UNL     1       2.794   0.358  -0.022  0.00  0.00    +0.168 HD
ATOM     23  C   UNL     1       3.248   2.575  -0.015  0.00  0.00    +0.168 A 
ATOM     24  N   UNL     1       2.448   3.612  -0.001  0.00  0.00    -0.222 NA
ENDBRANCH  14  23
ENDBRANCH   1  14
TORSDOF 4
