REMARK  Name = ZINC02974322
REMARK  11 active torsions:
REMARK  status: ('A' for Active; 'I' for Inactive)
REMARK    1  A    between atoms: C_1  and  C_2
REMARK    2  A    between atoms: C_2  and  C_3
REMARK    3  A    between atoms: C_3  and  C_5
REMARK    4  A    between atoms: C_3  and  S_16
REMARK    5  A    between atoms: N_7  and  C_8
REMARK    6  A    between atoms: C_8  and  C_9
REMARK    7  A    between atoms: C_12  and  C_15
REMARK    8  A    between atoms: S_16  and  C_17
REMARK    9  A    between atoms: N_27  and  C_28
REMARK   10  A    between atoms: C_28  and  C_29
REMARK   11  A    between atoms: C_29  and  C_30
REMARK                            x       y       z     vdW  Elec       q    Type
REMARK                         _______ _______ _______ _____ _____    ______ ____
ROOT
ATOM      1  C   UNL     1       5.203   4.447   0.542  0.00  0.00    +0.173 A 
ATOM      2  N   UNL     1       3.946   4.267   0.865  0.00  0.00    -0.223 NA
ATOM      3  C   UNL     1       3.359   3.049   0.779  0.00  0.00    +0.083 A 
ATOM      4  C   UNL     1       2.020   2.860   1.124  0.00  0.00    +0.078 A 
ATOM      5  C   UNL     1       1.455   1.603   1.024  0.00  0.00    +0.168 A 
ATOM      6  C   UNL     1       2.216   0.514   0.580  0.00  0.00    +0.167 A 
ATOM      7  C   UNL     1       3.540   0.682   0.235  0.00  0.00    +0.065 A 
ATOM      8  C   UNL     1       4.124   1.947   0.330  0.00  0.00    +0.069 A 
ATOM      9  C   UNL     1       5.529   2.178  -0.026  0.00  0.00    +0.263 A 
ATOM     10  O   UNL     1       6.237   1.269  -0.419  0.00  0.00    -0.267 OA
ATOM     11  N   UNL     1       6.009   3.437   0.099  0.00  0.00    -0.287 N 
ATOM     12  O   UNL     1       1.422  -0.598   0.579  0.00  0.00    -0.453 OA
ATOM     13  C   UNL     1       0.295  -0.266   1.411  0.00  0.00    +0.466 C 
ATOM     14  O   UNL     1       0.192   1.166   1.296  0.00  0.00    -0.453 OA
ENDROOT
BRANCH   1  15
ATOM     15  S   UNL     1       5.885   6.065   0.684  0.00  0.00    -0.075 S 
BRANCH  15  16
ATOM     16  C   UNL     1       4.398   6.994   1.133  0.00  0.00    +0.140 C 
BRANCH  16  17
ATOM     17  C   UNL     1       3.451   7.024  -0.039  0.00  0.00    +0.227 C 
ATOM     18  O   UNL     1       3.865   6.809  -1.159  0.00  0.00    -0.275 OA
ATOM     19  N   UNL     1       2.145   7.291   0.156  0.00  0.00    -0.310 N 
ATOM     20  H   UNL     1       1.814   7.463   1.052  0.00  0.00    +0.149 HD
BRANCH  19  21
ATOM     21  C   UNL     1       1.225   7.320  -0.984  0.00  0.00    +0.139 C 
BRANCH  21  22
ATOM     22  C   UNL     1      -0.166   7.638  -0.498  0.00  0.00    -0.030 A 
ATOM     23  C   UNL     1      -1.023   6.615  -0.136  0.00  0.00    +0.005 A 
ATOM     24  C   UNL     1      -2.297   6.907   0.313  0.00  0.00    +0.003 A 
ATOM     25  C   UNL     1      -2.718   8.222   0.391  0.00  0.00    -0.050 A 
ATOM     26  C   UNL     1      -1.863   9.244   0.025  0.00  0.00    +0.003 A 
ATOM     27  C   UNL     1      -0.587   8.952  -0.420  0.00  0.00    +0.005 A 
ATOM     28  C   UNL     1      -4.109   8.540   0.877  0.00  0.00    +0.044 C 
ENDBRANCH  21  22
ENDBRANCH  19  21
ENDBRANCH  16  17
BRANCH  16  30
ATOM     29  C   UNL     1       5.629   8.403   2.789  0.00  0.00    +0.005 C 
ATOM     30  C   UNL     1       4.786   8.425   1.512  0.00  0.00    +0.020 C 
ENDBRANCH  16  30
ENDBRANCH  15  16
ENDBRANCH   1  15
BRANCH  11  31
ATOM     31  C   UNL     1       7.405   3.719  -0.244  0.00  0.00    +0.131 C 
BRANCH  31  32
ATOM     32  C   UNL     1       8.282   3.532   0.996  0.00  0.00    +0.052 C 
BRANCH  32  33
ATOM     33  C   UNL     1       9.718   3.822   0.644  0.00  0.00    -0.072 C 
ATOM     34  C   UNL     1      10.169   5.014   0.869  0.00  0.00    -0.028 C 
ATOM     35  C   UNL     1      11.571   5.455   0.563  0.00  0.00    +0.027 C 
ATOM     36  C   UNL     1      12.475   4.236   0.364  0.00  0.00    +0.004 C 
ATOM     37  C   UNL     1      11.789   3.278  -0.618  0.00  0.00    +0.005 C 
ATOM     38  C   UNL     1      10.538   2.710   0.059  0.00  0.00    +0.030 C 
ENDBRANCH  32  33
ENDBRANCH  31  32
ENDBRANCH  11  31
TORSDOF 9
