REMARK  Name = ZINC13064518
REMARK  13 active torsions:
REMARK  status: ('A' for Active; 'I' for Inactive)
REMARK    1  A    between atoms: C_1  and  C_2
REMARK    2  A    between atoms: C_2  and  C_3
REMARK    3  A    between atoms: C_3  and  C_5
REMARK    4  A    between atoms: C_3  and  N_74
REMARK    5  A    between atoms: N_9  and  C_10
REMARK    6  A    between atoms: C_10  and  C_11
REMARK    7  A    between atoms: C_18  and  C_19
REMARK    8  A    between atoms: C_18  and  N_74
REMARK    9  A    between atoms: C_23  and  O_33
REMARK   10  A    between atoms: C_24  and  O_31
REMARK   11  A    between atoms: O_31  and  C_32
REMARK   12  A    between atoms: O_33  and  C_34
REMARK   13  A    between atoms: C_35  and  N_74
REMARK                            x       y       z     vdW  Elec       q    Type
REMARK                         _______ _______ _______ _____ _____    ______ ____
ROOT
ATOM      1  N   UNL     1      -5.317   4.290  -1.016  0.00  0.00    +0.391 N 
ATOM      2  H   UNL     1      -4.502   4.629  -1.540  0.00  0.00    -0.080 HD
ENDROOT
BRANCH   1   3
ATOM      3  C   UNL     1      -5.448   2.832  -1.222  0.00  0.00    -0.067 C 
ATOM      4  C   UNL     1      -6.352   2.219  -0.150  0.00  0.00    -0.015 C 
ATOM      5  C   UNL     1      -6.465   0.711  -0.380  0.00  0.00    -0.002 C 
ATOM      6  C   UNL     1      -5.075   0.077  -0.298  0.00  0.00    -0.000 C 
ATOM      7  C   UNL     1      -4.171   0.690  -1.369  0.00  0.00    -0.002 C 
ATOM      8  C   UNL     1      -4.058   2.198  -1.140  0.00  0.00    -0.015 C 
ENDBRANCH   1   3
BRANCH   1   9
ATOM      9  C   UNL     1      -6.527   4.981  -1.511  0.00  0.00    +0.003 C 
BRANCH   9  10
ATOM     10  C   UNL     1      -7.718   4.640  -0.652  0.00  0.00    +0.138 A 
ATOM     11  N   UNL     1      -7.697   4.283   0.609  0.00  0.00    -0.115 NA
ATOM     12  N   UNL     1      -8.912   4.079   0.985  0.00  0.00    -0.023 NA
ATOM     13  N   UNL     1      -9.708   4.296  -0.004  0.00  0.00    -0.044 NA
ATOM     14  N   UNL     1      -9.009   4.650  -1.030  0.00  0.00    -0.226 N 
BRANCH  14  15
ATOM     15  C   UNL     1      -9.526   4.993  -2.357  0.00  0.00    +0.182 C 
BRANCH  15  16
ATOM     16  C   UNL     1      -9.598   3.750  -3.205  0.00  0.00    -0.026 A 
ATOM     17  C   UNL     1      -8.515   3.380  -3.982  0.00  0.00    +0.008 A 
ATOM     18  C   UNL     1      -8.579   2.237  -4.756  0.00  0.00    +0.038 A 
ATOM     19  C   UNL     1      -9.730   1.468  -4.763  0.00  0.00    +0.123 A 
ATOM     20  C   UNL     1     -10.815   1.843  -3.988  0.00  0.00    +0.038 A 
ATOM     21  C   UNL     1     -10.748   2.983  -3.211  0.00  0.00    +0.008 A 
ATOM     22  F   UNL     1      -9.795   0.354  -5.523  0.00  0.00    -0.205 F 
ENDBRANCH  15  16
ENDBRANCH  14  15
ENDBRANCH   9  10
BRANCH   9  24
ATOM     23  C   UNL     1      -5.123   6.845  -2.402  0.00  0.00    +0.002 C 
ATOM     24  C   UNL     1      -6.284   6.491  -1.471  0.00  0.00    -0.011 C 
ENDBRANCH   9  24
ENDBRANCH   1   9
BRANCH   1  25
ATOM     25  C   UNL     1      -5.120   4.582   0.420  0.00  0.00    -0.036 C 
BRANCH  25  26
ATOM     26  C   UNL     1      -4.226   5.788   0.545  0.00  0.00    +0.001 A 
ATOM     27  C   UNL     1      -4.631   6.857   1.277  0.00  0.00    +0.017 A 
ATOM     28  C   UNL     1      -3.740   8.012   1.379  0.00  0.00    +0.002 A 
ATOM     29  C   UNL     1      -4.106   9.143   2.121  0.00  0.00    +0.059 A 
ATOM     30  C   UNL     1      -3.245  10.215   2.198  0.00  0.00    +0.162 A 
ATOM     31  C   UNL     1      -2.011  10.177   1.542  0.00  0.00    +0.163 A 
ATOM     32  C   UNL     1      -1.640   9.066   0.807  0.00  0.00    +0.075 A 
ATOM     33  C   UNL     1      -2.499   7.978   0.714  0.00  0.00    +0.053 A 
ATOM     34  N   UNL     1      -2.144   6.857  -0.009  0.00  0.00    -0.322 N 
ATOM     35  H   UNL     1      -1.288   6.833  -0.464  0.00  0.00    +0.169 HD
ATOM     36  C   UNL     1      -2.971   5.801  -0.098  0.00  0.00    +0.251 A 
ATOM     37  O   UNL     1      -2.627   4.830  -0.750  0.00  0.00    -0.268 OA
BRANCH  31  38
ATOM     38  O   UNL     1      -1.170  11.240   1.626  0.00  0.00    -0.491 OA
ATOM     39  C   UNL     1       0.075  11.139   0.932  0.00  0.00    +0.277 C 
ENDBRANCH  31  38
BRANCH  30  40
ATOM     40  O   UNL     1      -3.597  11.315   2.917  0.00  0.00    -0.491 OA
ATOM     41  C   UNL     1      -4.871  11.288   3.562  0.00  0.00    +0.277 C 
ENDBRANCH  30  40
ENDBRANCH  25  26
ENDBRANCH   1  25
TORSDOF 10
