REMARK  Name = ZINC39755201
REMARK  10 active torsions:
REMARK  status: ('A' for Active; 'I' for Inactive)
REMARK    1  A    between atoms: C_1  and  C_2
REMARK    2  A    between atoms: C_12  and  C_14
REMARK    3  A    between atoms: C_14  and  S_15
REMARK    4  A    between atoms: S_15  and  C_16
REMARK    5  A    between atoms: C_19  and  C_24
REMARK    6  A    between atoms: N_20  and  C_21
REMARK    7  A    between atoms: C_21  and  C_22
REMARK    8  A    between atoms: C_24  and  C_26
REMARK    9  A    between atoms: C_24  and  N_27
REMARK   10  A    between atoms: C_28  and  C_30
REMARK                            x       y       z     vdW  Elec       q    Type
REMARK                         _______ _______ _______ _____ _____    ______ ____
ROOT
ATOM      1  C   UNL     1       0.118  -1.986   9.982  0.00  0.00    +0.192 A 
ATOM      2  N   UNL     1       0.099  -0.721  10.332  0.00  0.00    -0.122 NA
ATOM      3  N   UNL     1       0.112  -0.622  11.613  0.00  0.00    -0.132 NA
ATOM      4  C   UNL     1       0.139  -1.807  12.153  0.00  0.00    +0.155 A 
ATOM      5  N   UNL     1       0.139  -2.719  11.134  0.00  0.00    -0.301 N 
ENDROOT
BRANCH   4   6
ATOM      6  C   UNL     1       0.161  -2.116  13.628  0.00  0.00    +0.138 C 
ATOM      7  C   UNL     1       1.556  -1.829  14.189  0.00  0.00    +0.036 C 
BRANCH   6   8
ATOM      8  N   UNL     1      -0.824  -1.278  14.317  0.00  0.00    -0.299 N 
ATOM      9  C   UNL     1      -1.352  -1.684  15.488  0.00  0.00    +0.280 C 
ATOM     10  O   UNL     1      -1.011  -2.747  15.974  0.00  0.00    -0.267 OA
ATOM     11  H   UNL     1      -1.096  -0.431  13.930  0.00  0.00    +0.150 HD
BRANCH   9  12
ATOM     12  C   UNL     1      -2.338  -0.846  16.178  0.00  0.00    +0.189 A 
ATOM     13  C   UNL     1      -2.945  -1.134  17.367  0.00  0.00    +0.054 A 
ATOM     14  C   UNL     1      -3.807  -0.063  17.650  0.00  0.00    +0.042 A 
ATOM     15  C   UNL     1      -3.690   0.821  16.634  0.00  0.00    +0.196 A 
ATOM     16  O   UNL     1      -2.800   0.348  15.752  0.00  0.00    -0.458 OA
ENDBRANCH   9  12
ENDBRANCH   6   8
ENDBRANCH   4   6
BRANCH   1  17
ATOM     17  S   UNL     1       0.112  -2.619   8.338  0.00  0.00    -0.077 S 
BRANCH  17  18
ATOM     18  C   UNL     1       0.083  -1.135   7.296  0.00  0.00    +0.173 C 
BRANCH  18  30
ATOM     19  C   UNL     1      -0.018   1.503   0.010  0.00  0.00    +0.046 C 
ATOM     20  C   UNL     1       0.002  -0.004   0.002  0.00  0.00    -0.024 A 
ATOM     21  C   UNL     1       0.005  -0.675  -1.193  0.00  0.00    +0.005 A 
ATOM     22  C   UNL     1       0.024  -2.061  -1.246  0.00  0.00    +0.001 A 
ATOM     23  C   UNL     1       0.040  -2.784  -0.067  0.00  0.00    +0.017 A 
ATOM     24  C   UNL     1       0.036  -2.121   1.134  0.00  0.00    +0.041 A 
ATOM     25  C   UNL     1       0.023  -0.710   1.227  0.00  0.00    +0.083 A 
ATOM     26  N   UNL     1       0.027  -0.206   2.480  0.00  0.00    -0.224 NA
ATOM     27  C   UNL     1       0.047  -0.969   3.547  0.00  0.00    +0.165 A 
ATOM     28  S   UNL     1       0.051  -2.611   2.842  0.00  0.00    -0.052 S 
ATOM     29  N   UNL     1       0.054  -0.597   4.882  0.00  0.00    -0.264 N 
ATOM     30  C   UNL     1       0.075  -1.540   5.845  0.00  0.00    +0.229 C 
ATOM     31  O   UNL     1       0.088  -2.714   5.543  0.00  0.00    -0.275 OA
ATOM     32  H   UNL     1       0.044   0.343   5.123  0.00  0.00    +0.157 HD
ENDBRANCH  18  30
ENDBRANCH  17  18
ENDBRANCH   1  17
BRANCH   5  33
ATOM     33  C   UNL     1       0.159  -4.179  11.254  0.00  0.00    +0.152 C 
BRANCH  33  34
ATOM     34  C   UNL     1       1.586  -4.661  11.283  0.00  0.00    -0.013 C 
ATOM     35  C   UNL     1       2.005  -5.409  12.273  0.00  0.00    +0.005 C 
ENDBRANCH  33  34
ENDBRANCH   5  33
TORSDOF 8
