REMARK  Name = ZINC11784567
REMARK  9 active torsions:
REMARK  status: ('A' for Active; 'I' for Inactive)
REMARK    1  A    between atoms: C_1  and  C_2
REMARK    2  A    between atoms: C_2  and  C_3
REMARK    3  A    between atoms: C_2  and  C_4
REMARK    4  A    between atoms: C_4  and  C_5
REMARK    5  A    between atoms: C_5  and  C_6
REMARK    6  A    between atoms: C_6  and  C_13
REMARK    7  A    between atoms: C_18  and  C_19
REMARK    8  A    between atoms: C_18  and  N_61
REMARK    9  A    between atoms: C_24  and  C_25
REMARK                            x       y       z     vdW  Elec       q    Type
REMARK                         _______ _______ _______ _____ _____    ______ ____
ROOT
ATOM      1  C   UNL     1      -0.313   2.439   2.912  0.00  0.00    +0.018 C 
ATOM      2  C   UNL     1      -0.405   3.931   3.244  0.00  0.00    -0.013 C 
ATOM      3  C   UNL     1      -1.126   4.108   4.582  0.00  0.00    -0.078 C 
ATOM      4  C   UNL     1      -0.330   1.956   5.362  0.00  0.00    -0.078 C 
ATOM      5  C   UNL     1       0.416   1.715   4.047  0.00  0.00    -0.013 C 
ATOM      6  N   UNL     1      -0.361   3.408   5.636  0.00  0.00    +0.382 N 
ATOM      7  H   UNL     1       0.601   3.767   5.644  0.00  0.00    -0.081 HD
ENDROOT
BRANCH   1   8
ATOM      8  C   UNL     1       0.462   2.253   1.606  0.00  0.00    +0.115 C 
ATOM      9  C   UNL     1       0.630   0.779   1.292  0.00  0.00    +0.244 C 
ATOM     10  O   UNL     1      -0.248  -0.033   1.094  0.00  0.00    -0.273 OA
ATOM     11  N   UNL     1       1.964   0.563   1.279  0.00  0.00    -0.238 N 
ATOM     12  C   UNL     1       2.649   1.683   1.541  0.00  0.00    +0.307 C 
ATOM     13  O   UNL     1       3.862   1.738   1.585  0.00  0.00    -0.252 OA
ATOM     14  N   UNL     1       1.844   2.740   1.749  0.00  0.00    -0.285 N 
ATOM     15  H   UNL     1       2.374  -0.298   1.103  0.00  0.00    +0.159 HD
ATOM     16  H   UNL     1       2.121   3.647   1.955  0.00  0.00    +0.151 HD
BRANCH   8  17
ATOM     17  C   UNL     1      -0.246   2.971   0.455  0.00  0.00    +0.036 C 
BRANCH  17  18
ATOM     18  C   UNL     1       0.548   2.769  -0.837  0.00  0.00    +0.005 C 
BRANCH  18  20
ATOM     19  C   UNL     1       0.696   3.391  -3.252  0.00  0.00    +0.007 C 
ATOM     20  C   UNL     1      -0.160   3.487  -1.988  0.00  0.00    -0.017 C 
ATOM     21  C   UNL     1      -1.518   2.830  -2.240  0.00  0.00    +0.007 C 
ENDBRANCH  18  20
ENDBRANCH  17  18
ENDBRANCH   8  17
ENDBRANCH   1   8
BRANCH   6  22
ATOM     22  C   UNL     1      -0.976   3.659   6.956  0.00  0.00    -0.039 C 
BRANCH  22  23
ATOM     23  C   UNL     1      -0.679   5.078   7.366  0.00  0.00    -0.019 A 
ATOM     24  C   UNL     1      -1.559   6.102   7.382  0.00  0.00    +0.107 A 
ATOM     25  N   UNL     1      -0.907   7.205   7.808  0.00  0.00    -0.284 N 
ATOM     26  H   UNL     1      -1.306   8.116   7.920  0.00  0.00    +0.188 HD
ATOM     27  N   UNL     1       0.423   6.853   8.066  0.00  0.00    -0.174 NA
ATOM     28  C   UNL     1       0.565   5.571   7.807  0.00  0.00    +0.094 A 
BRANCH  28  29
ATOM     29  C   UNL     1       1.815   4.783   7.950  0.00  0.00    +0.002 A 
ATOM     30  C   UNL     1       1.779   3.511   8.518  0.00  0.00    +0.011 A 
ATOM     31  C   UNL     1       2.943   2.781   8.645  0.00  0.00    +0.020 A 
ATOM     32  C   UNL     1       4.147   3.315   8.218  0.00  0.00    +0.041 A 
ATOM     33  C   UNL     1       4.189   4.580   7.657  0.00  0.00    +0.020 A 
ATOM     34  C   UNL     1       3.029   5.316   7.522  0.00  0.00    +0.011 A 
ATOM     35 CL   UNL     1       5.609   2.394   8.386  0.00  0.00    -0.084 Cl
ENDBRANCH  28  29
ENDBRANCH  22  23
ENDBRANCH   6  22
TORSDOF 7
