REMARK  Name = ZINC05283109
REMARK  7 active torsions:
REMARK  status: ('A' for Active; 'I' for Inactive)
REMARK    1  A    between atoms: C_2  and  C_3
REMARK    2  A    between atoms: C_3  and  N_4
REMARK    3  A    between atoms: C_7  and  C_23
REMARK    4  A    between atoms: N_11  and  N_12
REMARK    5  A    between atoms: C_13  and  C_14
REMARK    6  A    between atoms: C_17  and  N_20
REMARK    7  A    between atoms: C_23  and  C_24
REMARK                            x       y       z     vdW  Elec       q    Type
REMARK                         _______ _______ _______ _____ _____    ______ ____
ROOT
ATOM      1  N   UNL     1      -3.270   1.369   1.157  0.00  0.00    -0.245 N 
ATOM      2  C   UNL     1      -4.115   2.374   0.988  0.00  0.00    +0.235 C 
ATOM      3  O   UNL     1      -4.240   2.959  -0.066  0.00  0.00    -0.274 OA
ATOM      4  C   UNL     1      -4.916   2.733   2.231  0.00  0.00    +0.145 C 
ATOM      5  S   UNL     1      -4.248   1.495   3.410  0.00  0.00    -0.075 S 
ATOM      6  C   UNL     1      -3.135   0.712   2.334  0.00  0.00    +0.186 C 
ATOM      7  N   UNL     1      -2.301  -0.337   2.614  0.00  0.00    -0.127 NA
ENDROOT
BRANCH   7   8
ATOM      8  N   UNL     1      -2.292  -0.856   3.796  0.00  0.00    -0.155 NA
ATOM      9  C   UNL     1      -1.468  -1.891   4.072  0.00  0.00    +0.143 C 
BRANCH   9  10
ATOM     10  C   UNL     1      -1.457  -2.455   5.355  0.00  0.00    -0.005 A 
ATOM     11  C   UNL     1      -2.302  -1.940   6.368  0.00  0.00    +0.012 A 
ATOM     12  C   UNL     1      -2.286  -2.503   7.610  0.00  0.00    +0.033 A 
ATOM     13  C   UNL     1      -1.437  -3.567   7.888  0.00  0.00    +0.126 A 
ATOM     14  C   UNL     1      -0.598  -4.078   6.904  0.00  0.00    +0.033 A 
ATOM     15  C   UNL     1      -0.598  -3.540   5.652  0.00  0.00    +0.012 A 
BRANCH  13  16
ATOM     16  N   UNL     1      -1.426  -4.163   9.243  0.00  0.00    +0.056 N 
ATOM     17  O   UNL     1      -0.624  -5.172   9.513  0.00  0.00    -0.126 OA
ATOM     18  O   UNL     1      -2.218  -3.683  10.180  0.00  0.00    -0.126 OA
ENDBRANCH  13  16
ENDBRANCH   9  10
ENDBRANCH   7   8
BRANCH   1  19
ATOM     19  C   UNL     1      -2.451   0.944   0.019  0.00  0.00    +0.142 C 
BRANCH  19  21
ATOM     20  C   UNL     1      -0.013   1.076   0.008  0.00  0.00    +0.005 C 
ATOM     21  C   UNL     1      -1.156   1.715   0.017  0.00  0.00    -0.015 C 
ENDBRANCH  19  21
ENDBRANCH   1  19
BRANCH   4  22
ATOM     22  C   UNL     1      -6.416   2.531   2.003  0.00  0.00    +0.059 C 
BRANCH  22  23
ATOM     23  C   UNL     1      -7.177   3.013   3.211  0.00  0.00    -0.046 A 
ATOM     24  C   UNL     1      -7.457   2.140   4.245  0.00  0.00    +0.004 A 
ATOM     25  C   UNL     1      -8.151   2.583   5.356  0.00  0.00    +0.000 A 
ATOM     26  C   UNL     1      -8.574   3.897   5.427  0.00  0.00    +0.000 A 
ATOM     27  C   UNL     1      -8.298   4.769   4.391  0.00  0.00    +0.000 A 
ATOM     28  C   UNL     1      -7.600   4.327   3.283  0.00  0.00    +0.004 A 
ENDBRANCH  22  23
ENDBRANCH   4  22
TORSDOF 7
