REMARK  Name = ZINC36219069
REMARK  8 active torsions:
REMARK  status: ('A' for Active; 'I' for Inactive)
REMARK    1  A    between atoms: C_1  and  C_2
REMARK    2  A    between atoms: C_5  and  C_8
REMARK    3  A    between atoms: C_8  and  C_10
REMARK    4  A    between atoms: C_8  and  C_25
REMARK    5  A    between atoms: C_10  and  C_11
REMARK    6  A    between atoms: N_13  and  C_14
REMARK    7  A    between atoms: C_14  and  C_15
REMARK    8  A    between atoms: C_15  and  C_16
REMARK                            x       y       z     vdW  Elec       q    Type
REMARK                         _______ _______ _______ _____ _____    ______ ____
ROOT
ATOM      1  C   UNL     1       1.401  -6.273   0.575  0.00  0.00    +0.214 C 
ATOM      2  O   UNL     1       0.538  -6.884  -0.018  0.00  0.00    -0.276 OA
ATOM      3  N   UNL     1       2.435  -6.936   1.131  0.00  0.00    -0.315 N 
ATOM      4  H   UNL     1       3.126  -6.447   1.605  0.00  0.00    +0.149 HD
ENDROOT
BRANCH   1   5
ATOM      5  C   UNL     1       1.319  -4.773   0.690  0.00  0.00    +0.104 C 
BRANCH   5   6
ATOM      6  C   UNL     1       0.059  -4.275  -0.021  0.00  0.00    +0.031 C 
BRANCH   6  11
ATOM      7  C   UNL     1      -0.018   1.503   0.010  0.00  0.00    +0.044 C 
ATOM      8  C   UNL     1       0.002  -0.004   0.002  0.00  0.00    -0.050 A 
ATOM      9  C   UNL     1       0.006  -0.689  -1.199  0.00  0.00    +0.003 A 
ATOM     10  C   UNL     1       0.025  -2.071  -1.206  0.00  0.00    +0.004 A 
ATOM     11  C   UNL     1       0.040  -2.768  -0.013  0.00  0.00    -0.044 A 
ATOM     12  C   UNL     1       0.037  -2.084   1.188  0.00  0.00    +0.004 A 
ATOM     13  C   UNL     1       0.023  -0.702   1.195  0.00  0.00    +0.003 A 
ENDBRANCH   6  11
BRANCH   6  14
ATOM     14  C   UNL     1      -1.179  -4.805   0.704  0.00  0.00    -0.003 C 
ATOM     15  C   UNL     1      -2.032  -5.847  -0.024  0.00  0.00    +0.004 C 
ATOM     16  C   UNL     1      -2.548  -4.416   0.142  0.00  0.00    +0.004 C 
ENDBRANCH   6  14
ENDBRANCH   5   6
ENDBRANCH   1   5
BRANCH   3  17
ATOM     17  C   UNL     1       2.515  -8.395   1.019  0.00  0.00    +0.112 C 
BRANCH  17  18
ATOM     18  C   UNL     1       3.775  -8.892   1.731  0.00  0.00    +0.093 C 
BRANCH  18  19
ATOM     19  C   UNL     1       3.857 -10.393   1.616  0.00  0.00    +0.116 A 
ATOM     20  N   UNL     1       3.341 -11.246   2.464  0.00  0.00    -0.240 NA
ATOM     21  C   UNL     1       3.596 -12.493   2.064  0.00  0.00    +0.139 A 
ATOM     22  C   UNL     1       4.318 -12.412   0.891  0.00  0.00    +0.066 A 
ATOM     23  N   UNL     1       4.470 -11.067   0.619  0.00  0.00    -0.303 N 
ATOM     24  C   UNL     1       5.150 -10.668  -0.502  0.00  0.00    +0.093 A 
ATOM     25  C   UNL     1       5.672 -11.577  -1.347  0.00  0.00    +0.018 A 
ATOM     26  C   UNL     1       5.528 -12.955  -1.094  0.00  0.00    +0.003 A 
ATOM     27  C   UNL     1       4.864 -13.373   0.016  0.00  0.00    +0.028 A 
ENDBRANCH  18  19
ENDBRANCH  17  18
ENDBRANCH   3  17
TORSDOF 7
