REMARK  Name = ZINC33937139
REMARK  16 active torsions:
REMARK  status: ('A' for Active; 'I' for Inactive)
REMARK    1  A    between atoms: C_1  and  C_2
REMARK    2  A    between atoms: C_2  and  C_3
REMARK    3  A    between atoms: C_3  and  C_5
REMARK    4  A    between atoms: C_3  and  N_15
REMARK    5  A    between atoms: N_9  and  C_10
REMARK    6  A    between atoms: C_10  and  C_11
REMARK    7  A    between atoms: C_10  and  C_12
REMARK    8  A    between atoms: C_10  and  C_13
REMARK    9  A    between atoms: C_13  and  C_14
REMARK   10  A    between atoms: N_15  and  C_16
REMARK   11  A    between atoms: N_15  and  C_32
REMARK   12  A    between atoms: C_16  and  C_17
REMARK   13  A    between atoms: C_21  and  O_29
REMARK   14  A    between atoms: O_29  and  C_30
REMARK   15  A    between atoms: C_30  and  C_31
REMARK   16  A    between atoms: C_32  and  C_33
REMARK                            x       y       z     vdW  Elec       q    Type
REMARK                         _______ _______ _______ _____ _____    ______ ____
ROOT
ATOM      1  N   UNL     1       0.141  -0.763   1.906  0.00  0.00    +0.391 N 
ATOM      2  H   UNL     1      -0.644  -1.383   2.032  0.00  0.00    -0.080 HD
ENDROOT
BRANCH   1   3
ATOM      3  C   UNL     1       0.614  -0.847   0.517  0.00  0.00    +0.003 C 
BRANCH   3   4
ATOM      4  C   UNL     1       1.864  -0.021   0.361  0.00  0.00    +0.139 A 
ATOM      5  N   UNL     1       2.814   0.137   1.250  0.00  0.00    -0.115 NA
ATOM      6  N   UNL     1       3.709   0.912   0.743  0.00  0.00    -0.023 NA
ATOM      7  N   UNL     1       3.356   1.251  -0.448  0.00  0.00    -0.043 NA
ATOM      8  N   UNL     1       2.226   0.691  -0.722  0.00  0.00    -0.225 N 
BRANCH   8   9
ATOM      9  C   UNL     1       1.477   0.812  -1.975  0.00  0.00    +0.061 C 
ATOM     10  C   UNL     1       1.128  -0.583  -2.497  0.00  0.00    +0.036 C 
ATOM     11  C   UNL     1       0.189   1.599  -1.725  0.00  0.00    +0.036 C 
BRANCH   9  12
ATOM     12  C   UNL     1       2.330   1.546  -3.011  0.00  0.00    +0.026 C 
ATOM     13  C   UNL     1       1.547   1.673  -4.319  0.00  0.00    +0.006 C 
ENDBRANCH   9  12
ENDBRANCH   8   9
ENDBRANCH   3   4
BRANCH   3  15
ATOM     14  C   UNL     1      -0.360  -3.137   0.290  0.00  0.00    +0.002 C 
ATOM     15  C   UNL     1       0.918  -2.306   0.170  0.00  0.00    -0.011 C 
ENDBRANCH   3  15
ENDBRANCH   1   3
BRANCH   1  16
ATOM     16  C   UNL     1       1.226  -1.155   2.816  0.00  0.00    -0.036 C 
BRANCH  16  17
ATOM     17  C   UNL     1       0.689  -1.261   4.220  0.00  0.00    +0.001 A 
ATOM     18  C   UNL     1       0.292  -2.465   4.702  0.00  0.00    +0.017 A 
ATOM     19  C   UNL     1      -0.225  -2.535   6.070  0.00  0.00    +0.002 A 
ATOM     20  C   UNL     1      -0.648  -3.750   6.621  0.00  0.00    +0.055 A 
ATOM     21  C   UNL     1      -1.130  -3.781   7.914  0.00  0.00    +0.121 A 
ATOM     22  C   UNL     1      -1.195  -2.611   8.668  0.00  0.00    +0.047 A 
ATOM     23  C   UNL     1      -0.782  -1.410   8.137  0.00  0.00    +0.030 A 
ATOM     24  C   UNL     1      -0.293  -1.357   6.836  0.00  0.00    +0.049 A 
ATOM     25  N   UNL     1       0.127  -0.162   6.286  0.00  0.00    -0.322 N 
ATOM     26  H   UNL     1       0.080   0.650   6.814  0.00  0.00    +0.169 HD
ATOM     27  C   UNL     1       0.606  -0.109   5.031  0.00  0.00    +0.251 A 
ATOM     28  O   UNL     1       0.973   0.962   4.580  0.00  0.00    -0.268 OA
BRANCH  21  29
ATOM     29  O   UNL     1      -1.543  -4.958   8.454  0.00  0.00    -0.492 OA
BRANCH  29  30
ATOM     30  C   UNL     1      -2.031  -4.920   9.796  0.00  0.00    +0.225 C 
ATOM     31  C   UNL     1      -2.446  -6.328  10.228  0.00  0.00    +0.048 C 
ENDBRANCH  29  30
ENDBRANCH  21  29
ENDBRANCH  16  17
ENDBRANCH   1  16
BRANCH   1  32
ATOM     32  C   UNL     1      -0.271   0.616   2.200  0.00  0.00    -0.045 C 
BRANCH  32  33
ATOM     33  C   UNL     1      -1.527   0.956   1.395  0.00  0.00    +0.102 C 
ATOM     34  C   UNL     1      -1.920   2.429   1.635  0.00  0.00    +0.032 C 
ATOM     35  C   UNL     1      -3.469   2.350   1.702  0.00  0.00    +0.030 C 
ATOM     36  C   UNL     1      -3.664   0.966   2.370  0.00  0.00    +0.160 C 
ATOM     37  O   UNL     1      -2.619   0.138   1.831  0.00  0.00    -0.378 OA
ENDBRANCH  32  33
ENDBRANCH   1  32
TORSDOF 11
