REMARK  Name = ZINC16612632
REMARK  9 active torsions:
REMARK  status: ('A' for Active; 'I' for Inactive)
REMARK    1  A    between atoms: C_4  and  C_7
REMARK    2  A    between atoms: C_7  and  C_8
REMARK    3  A    between atoms: C_8  and  N_9
REMARK    4  A    between atoms: C_10  and  C_12
REMARK    5  A    between atoms: C_12  and  N_13
REMARK    6  A    between atoms: N_15  and  C_33
REMARK    7  A    between atoms: C_24  and  C_26
REMARK    8  A    between atoms: C_26  and  C_27
REMARK    9  A    between atoms: C_27  and  C_28
REMARK                            x       y       z     vdW  Elec       q    Type
REMARK                         _______ _______ _______ _____ _____    ______ ____
ROOT
ATOM      1  N   UNL     1      -1.280   4.664  10.236  0.00  0.00    -0.275 N 
ATOM      2  C   UNL     1      -1.118   6.092   9.932  0.00  0.00    +0.217 C 
ATOM      3  N   UNL     1      -1.287   6.224   8.466  0.00  0.00    -0.300 N 
ATOM      4  C   UNL     1      -0.881   4.895   7.962  0.00  0.00    +0.115 C 
ATOM      5  C   UNL     1      -1.137   3.942   9.104  0.00  0.00    +0.241 C 
ATOM      6  O   UNL     1      -1.203   2.734   9.020  0.00  0.00    -0.273 OA
ATOM      7  C   UNL     1       0.601   4.903   7.599  0.00  0.00    +0.054 C 
ATOM      8  C   UNL     1       1.017   3.505   7.129  0.00  0.00    +0.110 C 
ATOM      9  N   UNL     1       0.119   3.085   6.045  0.00  0.00    -0.301 N 
ATOM     10  C   UNL     1      -1.332   3.117   6.274  0.00  0.00    +0.110 C 
ATOM     11  C   UNL     1      -1.729   4.513   6.752  0.00  0.00    +0.054 C 
ATOM     12  C   UNL     1       0.617   2.683   4.859  0.00  0.00    +0.216 C 
ATOM     13  O   UNL     1       1.816   2.665   4.679  0.00  0.00    -0.276 OA
ENDROOT
BRANCH   3  14
ATOM     14  C   UNL     1      -0.460   7.227   7.955  0.00  0.00    +0.032 A 
ATOM     15  C   UNL     1       0.236   8.062   8.819  0.00  0.00    +0.023 A 
ATOM     16  C   UNL     1       1.056   9.050   8.311  0.00  0.00    +0.002 A 
ATOM     17  C   UNL     1       1.177   9.215   6.943  0.00  0.00    +0.000 A 
ATOM     18  C   UNL     1       0.481   8.388   6.080  0.00  0.00    +0.002 A 
ATOM     19  C   UNL     1      -0.337   7.395   6.582  0.00  0.00    +0.023 A 
ENDBRANCH   3  14
BRANCH   1  20
ATOM     20  C   UNL     1      -1.553   4.109  11.563  0.00  0.00    +0.205 C 
BRANCH  20  22
ATOM     21  N   UNL     1      -0.257   3.291  13.505  0.00  0.00    -0.314 N 
ATOM     22  C   UNL     1      -0.251   3.812  12.262  0.00  0.00    +0.230 C 
ATOM     23  O   UNL     1       0.801   4.042  11.706  0.00  0.00    -0.274 OA
ATOM     24  H   UNL     1      -1.099   3.107  13.950  0.00  0.00    +0.149 HD
BRANCH  21  25
ATOM     25  C   UNL     1       1.008   3.002  14.184  0.00  0.00    +0.109 C 
BRANCH  25  26
ATOM     26  C   UNL     1       0.723   2.422  15.571  0.00  0.00    +0.054 C 
BRANCH  26  30
ATOM     27  C   UNL     1       4.413   1.581  17.551  0.00  0.00    +0.000 A 
ATOM     28  C   UNL     1       3.819   2.821  17.694  0.00  0.00    +0.000 A 
ATOM     29  C   UNL     1       2.625   3.094  17.052  0.00  0.00    +0.004 A 
ATOM     30  C   UNL     1       2.025   2.126  16.269  0.00  0.00    -0.046 A 
ATOM     31  C   UNL     1       2.615   0.883  16.131  0.00  0.00    +0.004 A 
ATOM     32  C   UNL     1       3.812   0.613  16.768  0.00  0.00    +0.000 A 
ENDBRANCH  26  30
ENDBRANCH  25  26
ENDBRANCH  21  25
ENDBRANCH  20  22
ENDBRANCH   1  20
BRANCH  12  33
ATOM     33  C   UNL     1      -0.316   2.255   3.755  0.00  0.00    +0.096 C 
BRANCH  33  34
ATOM     34  C   UNL     1       0.499   1.849   2.526  0.00  0.00    +0.013 C 
BRANCH  34  35
ATOM     35  C   UNL     1      -0.448   1.415   1.406  0.00  0.00    -0.011 C 
ATOM     36  C   UNL     1       0.351   0.883   0.199  0.00  0.00    +0.003 C 
ATOM     37  C   UNL     1      -0.388   1.360  -1.064  0.00  0.00    +0.000 C 
ATOM     38  C   UNL     1      -1.612   2.165  -0.580  0.00  0.00    +0.000 C 
ATOM     39  C   UNL     1      -1.219   2.635   0.842  0.00  0.00    +0.003 C 
ENDBRANCH  34  35
ENDBRANCH  33  34
ENDBRANCH  12  33
TORSDOF 9
