REMARK  Name = ZINC39666532
REMARK  11 active torsions:
REMARK  status: ('A' for Active; 'I' for Inactive)
REMARK    1  A    between atoms: C_1  and  C_2
REMARK    2  A    between atoms: C_3  and  C_12
REMARK    3  A    between atoms: C_7  and  O_8
REMARK    4  A    between atoms: O_8  and  C_9
REMARK    5  A    between atoms: C_9  and  C_11
REMARK    6  A    between atoms: C_16  and  C_25
REMARK    7  A    between atoms: N_27  and  C_28
REMARK    8  A    between atoms: C_28  and  C_29
REMARK    9  A    between atoms: C_29  and  C_31
REMARK   10  A    between atoms: C_29  and  O_32
REMARK   11  A    between atoms: O_32  and  C_33
REMARK                            x       y       z     vdW  Elec       q    Type
REMARK                         _______ _______ _______ _____ _____    ______ ____
ROOT
ATOM      1  C   UNL     1      -0.100  -0.578  -1.112  0.00  0.00    +0.247 C 
ATOM      2  O   UNL     1      -0.015   0.632  -1.187  0.00  0.00    -0.270 OA
ATOM      3  N   UNL     1       0.037  -1.334  -2.220  0.00  0.00    -0.296 N 
ATOM      4  C   UNL     1      -0.134  -2.800  -2.346  0.00  0.00    +0.121 C 
ATOM      5  C   UNL     1      -0.844  -2.994  -3.705  0.00  0.00    +0.100 C 
ATOM      6  C   UNL     1      -0.492  -1.735  -4.515  0.00  0.00    -0.004 C 
ATOM      7  C   UNL     1       0.388  -0.884  -3.588  0.00  0.00    +0.115 C 
ATOM      8  C   UNL     1      -1.760  -0.969  -4.879  0.00  0.00    -0.010 C 
ATOM      9  C   UNL     1      -1.389   0.247  -5.732  0.00  0.00    -0.082 C 
ATOM     10  N   UNL     1      -0.696  -0.199  -6.947  0.00  0.00    +0.379 N 
ATOM     11  C   UNL     1       0.568  -0.853  -6.592  0.00  0.00    -0.082 C 
ATOM     12  C   UNL     1       0.280  -2.116  -5.775  0.00  0.00    -0.010 C 
ATOM     13  H   UNL     1      -1.282  -0.851  -7.447  0.00  0.00    -0.086 HD
ATOM     14  H   UNL     1      -0.507   0.599  -7.537  0.00  0.00    -0.086 HD
ENDROOT
BRANCH   1  17
ATOM     15  C   UNL     1      -1.851   0.707   0.799  0.00  0.00    +0.048 C 
ATOM     16  C   UNL     1      -1.196  -0.612   1.124  0.00  0.00    +0.004 A 
ATOM     17  C   UNL     1      -0.354  -1.222   0.195  0.00  0.00    +0.043 A 
ATOM     18  C   UNL     1       0.249  -2.443   0.503  0.00  0.00    +0.013 A 
ATOM     19  C   UNL     1       0.010  -3.041   1.723  0.00  0.00    +0.004 A 
ATOM     20  C   UNL     1      -0.826  -2.435   2.643  0.00  0.00    +0.047 A 
ATOM     21  C   UNL     1      -1.425  -1.218   2.348  0.00  0.00    +0.135 A 
BRANCH  21  22
ATOM     22  O   UNL     1      -2.242  -0.624   3.258  0.00  0.00    -0.426 OA
BRANCH  22  23
ATOM     23  C   UNL     1      -1.749   0.399   3.974  0.00  0.00    +0.309 C 
ATOM     24  O   UNL     1      -0.584   0.704   3.869  0.00  0.00    -0.251 OA
ATOM     25  C   UNL     1      -2.647   1.166   4.910  0.00  0.00    +0.136 C 
ENDBRANCH  22  23
ENDBRANCH  21  22
ENDBRANCH   1  17
BRANCH   5  26
ATOM     26  C   UNL     1      -2.335  -3.095  -3.509  0.00  0.00    +0.218 C 
ATOM     27  O   UNL     1      -2.876  -2.454  -2.633  0.00  0.00    -0.275 OA
ATOM     28  N   UNL     1      -3.067  -3.897  -4.307  0.00  0.00    -0.312 N 
ATOM     29  H   UNL     1      -2.627  -4.464  -4.960  0.00  0.00    +0.149 HD
BRANCH  28  30
ATOM     30  C   UNL     1      -4.527  -3.911  -4.190  0.00  0.00    +0.148 C 
BRANCH  30  31
ATOM     31  C   UNL     1      -5.102  -4.987  -5.113  0.00  0.00    +0.187 C 
ATOM     32  C   UNL     1      -6.625  -5.020  -4.971  0.00  0.00    +0.053 C 
BRANCH  31  33
ATOM     33  O   UNL     1      -4.563  -6.261  -4.755  0.00  0.00    -0.486 OA
BRANCH  33  34
ATOM     34  C   UNL     1      -4.416  -7.172  -5.753  0.00  0.00    +0.139 A 
ATOM     35  C   UNL     1      -4.726  -6.826  -7.060  0.00  0.00    +0.047 A 
ATOM     36  C   UNL     1      -4.575  -7.754  -8.073  0.00  0.00    +0.004 A 
ATOM     37  C   UNL     1      -4.116  -9.026  -7.785  0.00  0.00    +0.002 A 
ATOM     38  C   UNL     1      -3.806  -9.373  -6.483  0.00  0.00    +0.023 A 
ATOM     39  C   UNL     1      -3.949  -8.447  -5.466  0.00  0.00    +0.083 A 
ATOM     40 CL   UNL     1      -3.554  -8.882  -3.833  0.00  0.00    -0.080 Cl
ENDBRANCH  33  34
ENDBRANCH  31  33
ENDBRANCH  30  31
ENDBRANCH  28  30
ENDBRANCH   5  26
TORSDOF 8
