REMARK  Name = ZINC39664106
REMARK  11 active torsions:
REMARK  status: ('A' for Active; 'I' for Inactive)
REMARK    1  A    between atoms: C_1  and  C_2
REMARK    2  A    between atoms: C_2  and  O_3
REMARK    3  A    between atoms: O_3  and  C_4
REMARK    4  A    between atoms: C_9  and  C_10
REMARK    5  A    between atoms: C_14  and  C_23
REMARK    6  A    between atoms: N_25  and  C_26
REMARK    7  A    between atoms: C_26  and  C_27
REMARK    8  A    between atoms: C_27  and  C_29
REMARK    9  A    between atoms: C_27  and  N_37
REMARK   10  A    between atoms: C_32  and  O_35
REMARK   11  A    between atoms: O_35  and  C_36
REMARK                            x       y       z     vdW  Elec       q    Type
REMARK                         _______ _______ _______ _____ _____    ______ ____
ROOT
ATOM      1  C   UNL     1      -4.437  -1.056   0.102  0.00  0.00    +0.250 C 
ATOM      2  O   UNL     1      -4.550   0.153   0.150  0.00  0.00    -0.270 OA
ATOM      3  N   UNL     1      -5.531  -1.829  -0.052  0.00  0.00    -0.296 N 
ATOM      4  C   UNL     1      -5.607  -3.309  -0.030  0.00  0.00    +0.121 C 
ATOM      5  C   UNL     1      -6.915  -3.621   0.732  0.00  0.00    +0.100 C 
ATOM      6  C   UNL     1      -7.778  -2.360   0.562  0.00  0.00    -0.004 C 
ATOM      7  C   UNL     1      -6.929  -1.391  -0.274  0.00  0.00    +0.115 C 
ATOM      8  C   UNL     1      -9.072  -2.700  -0.172  0.00  0.00    -0.010 C 
ATOM      9  C   UNL     1      -9.939  -1.442  -0.278  0.00  0.00    -0.082 C 
ATOM     10  N   UNL     1     -10.235  -0.936   1.067  0.00  0.00    +0.379 N 
ATOM     11  C   UNL     1      -8.993  -0.524   1.733  0.00  0.00    -0.082 C 
ATOM     12  C   UNL     1      -8.086  -1.743   1.923  0.00  0.00    -0.010 C 
ATOM     13  H   UNL     1     -10.857  -0.143   0.998  0.00  0.00    -0.086 HD
ATOM     14  H   UNL     1     -10.680  -1.662   1.608  0.00  0.00    -0.086 HD
ENDROOT
BRANCH   1  20
ATOM     15  C   UNL     1      -2.124  -1.104   1.034  0.00  0.00    +0.133 A 
ATOM     16  C   UNL     1      -0.876  -1.700   1.134  0.00  0.00    +0.046 A 
ATOM     17  C   UNL     1      -0.599  -2.850   0.422  0.00  0.00    +0.004 A 
ATOM     18  C   UNL     1      -1.563  -3.417  -0.396  0.00  0.00    +0.001 A 
ATOM     19  C   UNL     1      -2.808  -2.839  -0.507  0.00  0.00    +0.017 A 
ATOM     20  C   UNL     1      -3.104  -1.678   0.212  0.00  0.00    +0.078 A 
BRANCH  15  21
ATOM     21  O   UNL     1      -2.398   0.026   1.732  0.00  0.00    -0.491 OA
BRANCH  21  23
ATOM     22  C   UNL     1      -1.841   1.819   3.254  0.00  0.00    +0.048 C 
ATOM     23  C   UNL     1      -1.350   0.553   2.549  0.00  0.00    +0.226 C 
ENDBRANCH  21  23
ENDBRANCH  15  21
ENDBRANCH   1  20
BRANCH   5  24
ATOM     24  C   UNL     1      -6.626  -3.870   2.190  0.00  0.00    +0.218 C 
ATOM     25  O   UNL     1      -5.691  -3.315   2.726  0.00  0.00    -0.275 OA
ATOM     26  N   UNL     1      -7.408  -4.709   2.898  0.00  0.00    -0.316 N 
ATOM     27  H   UNL     1      -8.156  -5.152   2.469  0.00  0.00    +0.149 HD
BRANCH  26  28
ATOM     28  C   UNL     1      -7.128  -4.951   4.315  0.00  0.00    +0.093 C 
BRANCH  28  29
ATOM     29  C   UNL     1      -8.211  -5.857   4.902  0.00  0.00    -0.020 C 
BRANCH  29  30
ATOM     30  C   UNL     1      -8.144  -7.212   4.244  0.00  0.00    -0.059 A 
ATOM     31  C   UNL     1      -7.202  -8.134   4.659  0.00  0.00    +0.005 A 
ATOM     32  C   UNL     1      -7.138  -9.376   4.057  0.00  0.00    +0.046 A 
ATOM     33  C   UNL     1      -8.020  -9.697   3.035  0.00  0.00    +0.120 A 
ATOM     34  C   UNL     1      -8.964  -8.769   2.621  0.00  0.00    +0.046 A 
ATOM     35  C   UNL     1      -9.028  -7.531   3.230  0.00  0.00    +0.005 A 
BRANCH  33  36
ATOM     36  O   UNL     1      -7.958 -10.917   2.441  0.00  0.00    -0.495 OA
ATOM     37  C   UNL     1      -8.897 -11.178   1.396  0.00  0.00    +0.277 C 
ENDBRANCH  33  36
ENDBRANCH  29  30
BRANCH  29  38
ATOM     38  N   UNL     1      -7.997  -6.005   6.348  0.00  0.00    +0.385 N 
ATOM     39  C   UNL     1      -8.121  -4.687   7.021  0.00  0.00    -0.078 C 
ATOM     40  C   UNL     1      -8.436  -5.067   8.490  0.00  0.00    -0.020 C 
ATOM     41  C   UNL     1      -9.356  -6.300   8.338  0.00  0.00    -0.020 C 
ATOM     42  C   UNL     1      -9.051  -6.859   6.936  0.00  0.00    -0.078 C 
ATOM     43  H   UNL     1      -7.087  -6.403   6.526  0.00  0.00    -0.081 HD
ENDBRANCH  29  38
ENDBRANCH  28  29
ENDBRANCH  26  28
ENDBRANCH   5  24
TORSDOF 9
