REMARK  Name = ZINC14460673
REMARK  6 active torsions:
REMARK  status: ('A' for Active; 'I' for Inactive)
REMARK    1  A    between atoms: C_1  and  C_2
REMARK    2  A    between atoms: C_2  and  C_3
REMARK    3  A    between atoms: C_3  and  C_5
REMARK    4  A    between atoms: C_3  and  N_6
REMARK    5  A    between atoms: C_7  and  C_9
REMARK    6  A    between atoms: C_22  and  C_25
REMARK                            x       y       z     vdW  Elec       q    Type
REMARK                         _______ _______ _______ _____ _____    ______ ____
ROOT
ATOM      1  C   UNL     1      -0.932   1.101   3.479  0.00  0.00    +0.037 A 
ATOM      2  C   UNL     1      -1.915   2.094   3.501  0.00  0.00    +0.015 A 
ATOM      3  C   UNL     1      -2.252   2.742   2.336  0.00  0.00    +0.024 A 
ATOM      4  C   UNL     1      -1.617   2.411   1.141  0.00  0.00    +0.031 A 
ATOM      5  C   UNL     1      -0.644   1.438   1.100  0.00  0.00    -0.019 A 
ATOM      6  C   UNL     1      -0.299   0.773   2.279  0.00  0.00    +0.019 A 
ATOM      7  C   UNL     1       0.065   1.039  -0.156  0.00  0.00    +0.049 C 
ATOM      8  C   UNL     1       1.471   1.588  -0.193  0.00  0.00    -0.023 C 
ATOM      9  C   UNL     1       1.787   1.944  -1.414  0.00  0.00    -0.030 C 
ATOM     10  C   UNL     1       0.634   1.674  -2.361  0.00  0.00    +0.033 C 
ATOM     11  C   UNL     1      -0.603   1.621  -1.417  0.00  0.00    +0.029 C 
ATOM     12  C   UNL     1      -1.039   3.065  -1.156  0.00  0.00    +0.105 C 
ATOM     13  N   UNL     1      -1.974   3.082  -0.027  0.00  0.00    -0.336 N 
ATOM     14  H   UNL     1      -2.822   3.550  -0.091  0.00  0.00    +0.147 HD
ENDROOT
BRANCH  12  15
ATOM     15  C   UNL     1       0.167   3.905  -0.825  0.00  0.00    -0.026 A 
ATOM     16  C   UNL     1       0.584   4.029   0.488  0.00  0.00    +0.005 A 
ATOM     17  C   UNL     1       1.693   4.796   0.791  0.00  0.00    +0.002 A 
ATOM     18  C   UNL     1       2.381   5.447  -0.216  0.00  0.00    +0.020 A 
ATOM     19  C   UNL     1       1.962   5.327  -1.528  0.00  0.00    +0.041 A 
ATOM     20  C   UNL     1       0.854   4.555  -1.833  0.00  0.00    +0.025 A 
ATOM     21 CL   UNL     1       2.824   6.144  -2.794  0.00  0.00    -0.084 Cl
ENDBRANCH  12  15
BRANCH   1  23
ATOM     22  N   UNL     1      -1.174   0.715   5.881  0.00  0.00    -0.309 N 
ATOM     23  C   UNL     1      -0.563   0.399   4.723  0.00  0.00    +0.244 C 
ATOM     24  O   UNL     1       0.293  -0.465   4.703  0.00  0.00    -0.270 OA
ATOM     25  H   UNL     1      -1.857   1.404   5.897  0.00  0.00    +0.149 HD
BRANCH  22  26
ATOM     26  C   UNL     1      -0.808   0.019   7.117  0.00  0.00    +0.070 C 
ATOM     27  C   UNL     1       0.410   0.699   7.744  0.00  0.00    +0.028 C 
BRANCH  26  29
ATOM     28  C   UNL     1      -3.161  -0.719   7.523  0.00  0.00    +0.005 C 
ATOM     29  C   UNL     1      -1.982   0.069   8.098  0.00  0.00    +0.018 C 
ENDBRANCH  26  29
ENDBRANCH  22  26
ENDBRANCH   1  23
TORSDOF 4
