REMARK  Name = ZINC14477996
REMARK  4 active torsions:
REMARK  status: ('A' for Active; 'I' for Inactive)
REMARK    1  A    between atoms: C_1  and  C_2
REMARK    2  A    between atoms: C_5  and  N_27
REMARK    3  A    between atoms: C_9  and  C_18
REMARK    4  A    between atoms: C_23  and  N_24
REMARK                            x       y       z     vdW  Elec       q    Type
REMARK                         _______ _______ _______ _____ _____    ______ ____
ROOT
ATOM      1  C   UNL     1       3.231  -0.001  -2.392  0.00  0.00    +0.045 C 
ATOM      2  C   UNL     1       3.606  -1.237  -1.616  0.00  0.00    -0.029 A 
ATOM      3  C   UNL     1       4.933  -1.590  -1.487  0.00  0.00    +0.007 A 
ATOM      4  C   UNL     1       5.276  -2.724  -0.775  0.00  0.00    +0.033 A 
ATOM      5  C   UNL     1       4.292  -3.498  -0.193  0.00  0.00    +0.132 A 
ATOM      6  C   UNL     1       2.954  -3.150  -0.315  0.00  0.00    +0.011 A 
ATOM      7  C   UNL     1       2.609  -2.017  -1.031  0.00  0.00    +0.037 A 
ATOM      8  N   UNL     1       1.284  -1.615  -1.195  0.00  0.00    -0.336 N 
ATOM      9  C   UNL     1       0.422  -2.093  -0.113  0.00  0.00    +0.107 C 
ATOM     10  C   UNL     1       0.497  -3.620  -0.039  0.00  0.00    +0.029 C 
ATOM     11  C   UNL     1       1.935  -4.032   0.345  0.00  0.00    +0.051 C 
ATOM     12  C   UNL     1       1.977  -3.864   1.847  0.00  0.00    -0.023 C 
ATOM     13  C   UNL     1       0.766  -3.881   2.344  0.00  0.00    -0.030 C 
ATOM     14  C   UNL     1      -0.259  -4.071   1.243  0.00  0.00    +0.033 C 
ATOM     15  H   UNL     1       0.928  -1.902  -2.094  0.00  0.00    +0.147 HD
ENDROOT
BRANCH   9  16
ATOM     16  C   UNL     1       0.884  -1.504   1.195  0.00  0.00    +0.003 A 
ATOM     17  C   UNL     1       2.226  -1.240   1.398  0.00  0.00    +0.008 A 
ATOM     18  C   UNL     1       2.650  -0.698   2.598  0.00  0.00    +0.000 A 
ATOM     19  C   UNL     1       1.732  -0.421   3.594  0.00  0.00    +0.002 A 
ATOM     20  C   UNL     1       0.391  -0.685   3.390  0.00  0.00    +0.033 A 
ATOM     21  C   UNL     1      -0.034  -1.222   2.188  0.00  0.00    +0.131 A 
BRANCH  21  22
ATOM     22  N   UNL     1      -1.471  -1.499   1.968  0.00  0.00    +0.057 N 
ATOM     23  O   UNL     1      -2.125  -2.051   2.835  0.00  0.00    -0.126 OA
ATOM     24  O   UNL     1      -2.000  -1.175   0.920  0.00  0.00    -0.126 OA
ENDBRANCH  21  22
ENDBRANCH   9  16
BRANCH   5  25
ATOM     25  N   UNL     1       4.668  -4.710   0.569  0.00  0.00    +0.057 N 
ATOM     26  O   UNL     1       5.841  -5.020   0.679  0.00  0.00    -0.126 OA
ATOM     27  O   UNL     1       3.805  -5.397   1.085  0.00  0.00    -0.126 OA
ENDBRANCH   5  25
TORSDOF 3
