REMARK  Name = ZINC22036943
REMARK  5 active torsions:
REMARK  status: ('A' for Active; 'I' for Inactive)
REMARK    1  A    between atoms: C_4  and  C_7
REMARK    2  A    between atoms: C_8  and  C_9
REMARK    3  A    between atoms: C_9  and  N_10
REMARK    4  A    between atoms: N_13  and  C_16
REMARK    5  A    between atoms: C_16  and  C_17
REMARK                            x       y       z     vdW  Elec       q    Type
REMARK                         _______ _______ _______ _____ _____    ______ ____
ROOT
ATOM      1  N   UNL     1       4.811  -4.331   0.871  0.00  0.00    +0.384 N 
ATOM      2  C   UNL     1       4.864  -3.380   1.988  0.00  0.00    -0.063 C 
ATOM      3  C   UNL     1       4.998  -4.147   3.306  0.00  0.00    +0.066 C 
ATOM      4  N   UNL     1       6.221  -4.960   3.274  0.00  0.00    -0.298 NA
ATOM      5  C   UNL     1       6.194  -5.900   2.144  0.00  0.00    +0.066 C 
ATOM      6  C   UNL     1       6.051  -5.118   0.837  0.00  0.00    -0.063 C 
ATOM      7  H   UNL     1       4.023  -4.949   0.992  0.00  0.00    -0.081 HD
ENDROOT
BRANCH   1   8
ATOM      8  C   UNL     1       4.665  -3.594  -0.392  0.00  0.00    -0.051 C 
BRANCH   8  10
ATOM      9  C   UNL     1       3.287  -1.576  -0.619  0.00  0.00    +0.002 C 
ATOM     10  C   UNL     1       3.336  -2.883  -0.408  0.00  0.00    -0.045 C 
BRANCH   9  14
ATOM     11  C   UNL     1      -0.459   0.427  -0.665  0.00  0.00    +0.000 A 
ATOM     12  C   UNL     1       0.708   1.143  -0.870  0.00  0.00    +0.001 A 
ATOM     13  C   UNL     1       1.927   0.498  -0.856  0.00  0.00    +0.008 A 
ATOM     14  C   UNL     1       1.983  -0.878  -0.634  0.00  0.00    -0.025 A 
ATOM     15  C   UNL     1       0.803  -1.594  -0.428  0.00  0.00    +0.008 A 
ATOM     16  C   UNL     1      -0.410  -0.938  -0.445  0.00  0.00    +0.001 A 
ENDBRANCH   9  14
ENDBRANCH   8  10
ENDBRANCH   1   8
BRANCH   4  17
ATOM     17  C   UNL     1       6.415  -5.670   4.545  0.00  0.00    +0.180 C 
BRANCH  17  18
ATOM     18  C   UNL     1       7.788  -6.291   4.569  0.00  0.00    +0.234 C 
ATOM     19  O   UNL     1       8.571  -6.067   3.671  0.00  0.00    -0.274 OA
ATOM     20  N   UNL     1       8.146  -7.096   5.590  0.00  0.00    -0.270 N 
ATOM     21  C   UNL     1       7.179  -7.444   6.641  0.00  0.00    +0.114 C 
ATOM     22  C   UNL     1       7.891  -7.311   7.994  0.00  0.00    +0.024 C 
ATOM     23  C   UNL     1       9.033  -8.325   8.053  0.00  0.00    +0.038 C 
ATOM     24  C   UNL     1       9.906  -8.209   6.831  0.00  0.00    -0.026 A 
ATOM     25  C   UNL     1       9.444  -7.620   5.663  0.00  0.00    +0.039 A 
ATOM     26  C   UNL     1      10.271  -7.537   4.549  0.00  0.00    +0.024 A 
ATOM     27  C   UNL     1      11.554  -8.044   4.602  0.00  0.00    +0.002 A 
ATOM     28  C   UNL     1      12.015  -8.634   5.764  0.00  0.00    +0.000 A 
ATOM     29  C   UNL     1      11.196  -8.709   6.879  0.00  0.00    +0.005 A 
ENDBRANCH  17  18
ENDBRANCH   4  17
TORSDOF 5
