REMARK  Name = ZINC11215921
REMARK  11 active torsions:
REMARK  status: ('A' for Active; 'I' for Inactive)
REMARK    1  A    between atoms: C_1  and  C_2
REMARK    2  A    between atoms: C_2  and  C_3
REMARK    3  A    between atoms: C_3  and  C_5
REMARK    4  A    between atoms: C_3  and  N_6
REMARK    5  A    between atoms: N_6  and  S_7
REMARK    6  A    between atoms: S_7  and  C_10
REMARK    7  A    between atoms: C_13  and  C_16
REMARK    8  A    between atoms: C_16  and  O_18
REMARK    9  A    between atoms: O_18  and  C_19
REMARK   10  A    between atoms: C_19  and  C_21
REMARK   11  A    between atoms: C_19  and  C_22
REMARK                            x       y       z     vdW  Elec       q    Type
REMARK                         _______ _______ _______ _____ _____    ______ ____
ROOT
ATOM      1  C   UNL     1       3.710  -0.851  -0.241  0.00  0.00    +0.340 C 
ATOM      2  O   UNL     1       3.806  -2.055  -0.107  0.00  0.00    -0.245 OA
ENDROOT
BRANCH   1   6
ATOM      3  C   UNL     1      -0.112   0.930  -0.741  0.00  0.00    +0.105 A 
ATOM      4  C   UNL     1       1.022   1.724  -0.731  0.00  0.00    +0.029 A 
ATOM      5  C   UNL     1       2.266   1.151  -0.570  0.00  0.00    +0.017 A 
ATOM      6  C   UNL     1       2.380  -0.232  -0.415  0.00  0.00    +0.059 A 
ATOM      7  C   UNL     1       1.232  -1.026  -0.426  0.00  0.00    +0.017 A 
ATOM      8  C   UNL     1      -0.006  -0.441  -0.589  0.00  0.00    +0.029 A 
BRANCH   3   9
ATOM      9  S   UNL     1      -1.698   1.669  -0.955  0.00  0.00    +0.059 S 
ATOM     10  O   UNL     1      -1.483   2.905  -1.622  0.00  0.00    -0.153 OA
ATOM     11  O   UNL     1      -2.549   0.659  -1.480  0.00  0.00    -0.153 OA
BRANCH   9  12
ATOM     12  N   UNL     1      -2.274   2.038   0.553  0.00  0.00    -0.187 NA
ATOM     13  H   UNL     1      -3.065   1.590   0.892  0.00  0.00    +0.148 HD
BRANCH  12  14
ATOM     14  C   UNL     1      -1.590   3.039   1.374  0.00  0.00    +0.073 C 
ATOM     15  C   UNL     1      -2.262   4.401   1.183  0.00  0.00    +0.025 C 
BRANCH  14  17
ATOM     16  C   UNL     1      -0.889   1.334   3.059  0.00  0.00    +0.005 C 
ATOM     17  C   UNL     1      -1.669   2.633   2.846  0.00  0.00    +0.017 C 
ENDBRANCH  14  17
ENDBRANCH  12  14
ENDBRANCH   9  12
ENDBRANCH   3   9
ENDBRANCH   1   6
BRANCH   1  18
ATOM     18  O   UNL     1       4.816  -0.082  -0.231  0.00  0.00    -0.449 OA
BRANCH  18  19
ATOM     19  C   UNL     1       6.088  -0.759  -0.056  0.00  0.00    +0.259 C 
ATOM     20  C   UNL     1       6.418  -0.847   1.435  0.00  0.00    +0.062 C 
BRANCH  19  21
ATOM     21  C   UNL     1       7.170   0.014  -0.765  0.00  0.00    +0.256 C 
ATOM     22  O   UNL     1       6.933   1.115  -1.216  0.00  0.00    -0.272 OA
ATOM     23  N   UNL     1       8.402  -0.517  -0.898  0.00  0.00    -0.294 N 
ATOM     24  C   UNL     1       8.694  -1.892  -0.460  0.00  0.00    +0.113 C 
ATOM     25  C   UNL     1       9.064  -2.707  -1.704  0.00  0.00    +0.054 C 
ATOM     26  C   UNL     1      10.069  -1.969  -2.548  0.00  0.00    -0.041 A 
ATOM     27  C   UNL     1      10.815  -2.709  -3.458  0.00  0.00    +0.004 A 
ATOM     28  C   UNL     1      11.743  -2.093  -4.271  0.00  0.00    +0.000 A 
ATOM     29  C   UNL     1      11.937  -0.727  -4.181  0.00  0.00    +0.000 A 
ATOM     30  C   UNL     1      11.202   0.010  -3.275  0.00  0.00    +0.005 A 
ATOM     31  C   UNL     1      10.269  -0.610  -2.454  0.00  0.00    -0.027 A 
ATOM     32  C   UNL     1       9.506   0.253  -1.480  0.00  0.00    +0.143 C 
ENDBRANCH  19  21
ENDBRANCH  18  19
ENDBRANCH   1  18
TORSDOF 8
