REMARK  Name = ZINC31946403
REMARK  9 active torsions:
REMARK  status: ('A' for Active; 'I' for Inactive)
REMARK    1  A    between atoms: C_1  and  C_2
REMARK    2  A    between atoms: C_3  and  C_22
REMARK    3  A    between atoms: N_9  and  C_13
REMARK    4  A    between atoms: C_10  and  C_12
REMARK    5  A    between atoms: C_13  and  C_15
REMARK    6  A    between atoms: C_13  and  C_16
REMARK    7  A    between atoms: N_18  and  C_19
REMARK    8  A    between atoms: C_19  and  C_20
REMARK    9  A    between atoms: C_20  and  N_21
REMARK                            x       y       z     vdW  Elec       q    Type
REMARK                         _______ _______ _______ _____ _____    ______ ____
ROOT
ATOM      1  C   UNL     1       4.916   1.749  -0.034  0.00  0.00    +0.045 C 
ATOM      2  C   UNL     1       3.508   2.287  -0.018  0.00  0.00    -0.026 A 
ATOM      3  C   UNL     1       3.287   3.611  -0.008  0.00  0.00    -0.008 A 
ATOM      4  S   UNL     1       1.508   3.732   0.008  0.00  0.00    -0.073 S 
ATOM      5  C   UNL     1       1.115   2.002   0.002  0.00  0.00    +0.116 A 
ATOM      6  C   UNL     1       2.376   1.380  -0.013  0.00  0.00    +0.075 A 
ATOM      7  C   UNL     1       2.359  -0.053  -0.020  0.00  0.00    +0.263 A 
ATOM      8  O   UNL     1       3.401  -0.685  -0.033  0.00  0.00    -0.267 OA
ATOM      9  N   UNL     1       1.173  -0.691  -0.013  0.00  0.00    -0.285 N 
ATOM     10  C   UNL     1       0.002  -0.004   0.002  0.00  0.00    +0.111 A 
ATOM     11  N   UNL     1      -0.016   1.302   0.009  0.00  0.00    -0.227 NA
ATOM     12  C   UNL     1      -1.300  -0.762   0.010  0.00  0.00    +0.086 C 
ATOM     13  C   UNL     1       4.299   4.727  -0.011  0.00  0.00    +0.052 C 
ENDROOT
BRANCH   9  14
ATOM     14  C   UNL     1       1.146  -2.156  -0.021  0.00  0.00    +0.174 C 
ATOM     15  C   UNL     1       1.870  -2.686   1.219  0.00  0.00    +0.041 C 
BRANCH  14  16
ATOM     16  C   UNL     1       1.835  -2.664  -1.260  0.00  0.00    +0.236 C 
ATOM     17  O   UNL     1       2.303  -1.881  -2.059  0.00  0.00    -0.274 OA
ATOM     18  N   UNL     1       1.932  -3.990  -1.482  0.00  0.00    -0.315 N 
ATOM     19  H   UNL     1       1.508  -4.701  -0.757  0.00  0.00    +0.149 HD
BRANCH  18  20
ATOM     20  C   UNL     1       2.602  -4.485  -2.687  0.00  0.00    +0.085 C 
BRANCH  20  21
ATOM     21  C   UNL     1       2.574  -6.015  -2.695  0.00  0.00    -0.067 C 
BRANCH  21  22
ATOM     22  N   UNL     1       3.245  -6.511  -3.904  0.00  0.00    +0.379 N 
ATOM     23  H   UNL     1       3.225  -7.610  -3.909  0.00  0.00    -0.090 HD
ATOM     24  H   UNL     1       4.289  -6.163  -3.912  0.00  0.00    -0.090 HD
ATOM     25  H   UNL     1       2.725  -6.130  -4.795  0.00  0.00    -0.090 HD
ENDBRANCH  21  22
ENDBRANCH  20  21
ENDBRANCH  18  20
ENDBRANCH  14  16
ENDBRANCH   9  14
TORSDOF 5
