REMARK  Name = ZINC63478690
REMARK  7 active torsions:
REMARK  status: ('A' for Active; 'I' for Inactive)
REMARK    1  A    between atoms: C_1  and  O_2
REMARK    2  A    between atoms: O_2  and  C_3
REMARK    3  A    between atoms: C_3  and  C_4
REMARK    4  A    between atoms: C_4  and  C_5
REMARK    5  A    between atoms: C_5  and  N_6
REMARK    6  A    between atoms: C_11  and  C_29
REMARK    7  A    between atoms: C_29  and  C_30
REMARK                            x       y       z     vdW  Elec       q    Type
REMARK                         _______ _______ _______ _____ _____    ______ ____
ROOT
ATOM      1  N   UNL     1      -2.408  -4.226   0.002  0.00  0.00    -0.241 N 
ATOM      2  C   UNL     1      -2.346  -4.940  -1.128  0.00  0.00    +0.227 C 
ATOM      3  O   UNL     1      -2.397  -4.482  -2.249  0.00  0.00    -0.275 OA
ATOM      4  C   UNL     1      -2.201  -6.406  -0.788  0.00  0.00    +0.107 C 
ATOM      5  C   UNL     1      -3.482  -7.157  -1.210  0.00  0.00    +0.072 C 
ATOM      6  N   UNL     1      -4.400  -7.029  -0.047  0.00  0.00    -0.295 NA
ATOM      7  C   UNL     1      -3.517  -7.160   1.127  0.00  0.00    +0.136 C 
ATOM      8  C   UNL     1      -2.207  -6.417   0.766  0.00  0.00    +0.122 C 
ATOM      9  C   UNL     1      -2.330  -4.953   1.123  0.00  0.00    +0.228 C 
ATOM     10  O   UNL     1      -2.357  -4.507   2.250  0.00  0.00    -0.275 OA
ATOM     11  C   UNL     1      -4.154  -6.590   2.361  0.00  0.00    +0.006 A 
ATOM     12  C   UNL     1      -4.625  -5.339   2.694  0.00  0.00    +0.046 A 
ATOM     13  C   UNL     1      -5.176  -5.115   3.945  0.00  0.00    +0.124 A 
ATOM     14  C   UNL     1      -5.251  -6.153   4.859  0.00  0.00    +0.040 A 
ATOM     15  C   UNL     1      -4.781  -7.407   4.529  0.00  0.00    +0.026 A 
ATOM     16  C   UNL     1      -4.225  -7.639   3.273  0.00  0.00    +0.039 A 
ATOM     17  N   UNL     1      -3.688  -8.802   2.713  0.00  0.00    -0.283 N 
ATOM     18  C   UNL     1      -3.250  -8.604   1.454  0.00  0.00    +0.243 C 
ATOM     19  O   UNL     1      -2.740  -9.429   0.727  0.00  0.00    -0.273 OA
ATOM     20  F   UNL     1      -5.637  -3.889   4.273  0.00  0.00    -0.205 F 
ATOM     21  H   UNL     1      -4.866  -6.134  -0.051  0.00  0.00    +0.124 HD
ATOM     22  H   UNL     1      -3.636  -9.652   3.177  0.00  0.00    +0.155 HD
ENDROOT
BRANCH   1  23
ATOM     23  C   UNL     1      -2.543  -2.768   0.011  0.00  0.00    +0.118 C 
BRANCH  23  24
ATOM     24  C   UNL     1      -1.154  -2.126   0.002  0.00  0.00    +0.047 C 
BRANCH  24  25
ATOM     25  C   UNL     1      -1.295  -0.603   0.011  0.00  0.00    +0.161 C 
BRANCH  25  27
ATOM     26  C   UNL     1      -0.017   1.425   0.010  0.00  0.00    +0.193 C 
ATOM     27  O   UNL     1       0.002  -0.004   0.002  0.00  0.00    -0.383 OA
ENDBRANCH  25  27
ENDBRANCH  24  25
ENDBRANCH  23  24
ENDBRANCH   1  23
BRANCH   5  28
ATOM     28  C   UNL     1      -4.097  -6.505  -2.450  0.00  0.00    +0.052 C 
BRANCH  28  29
ATOM     29  C   UNL     1      -5.273  -7.323  -2.917  0.00  0.00    -0.040 C 
ATOM     30  C   UNL     1      -6.576  -7.120  -2.615  0.00  0.00    -0.001 A 
ATOM     31  C   UNL     1      -7.261  -6.116  -1.792  0.00  0.00    +0.010 A 
ATOM     32  C   UNL     1      -8.607  -6.171  -1.675  0.00  0.00    +0.001 A 
ATOM     33  C   UNL     1      -9.363  -7.162  -2.318  0.00  0.00    +0.002 A 
ATOM     34  C   UNL     1      -8.805  -8.118  -3.090  0.00  0.00    +0.026 A 
ATOM     35  C   UNL     1      -7.397  -8.155  -3.283  0.00  0.00    +0.043 A 
ATOM     36  N   UNL     1      -6.631  -8.966  -3.972  0.00  0.00    -0.380 N 
ATOM     37  C   UNL     1      -5.237  -8.534  -3.823  0.00  0.00    +0.144 C 
ATOM     38  H   UNL     1      -6.936  -9.724  -4.496  0.00  0.00    +0.160 HD
ENDBRANCH  28  29
ENDBRANCH   5  28
TORSDOF 6
