REMARK  Name = ZINC22144605
REMARK  11 active torsions:
REMARK  status: ('A' for Active; 'I' for Inactive)
REMARK    1  A    between atoms: C_1  and  C_2
REMARK    2  A    between atoms: C_2  and  O_3
REMARK    3  A    between atoms: O_3  and  C_4
REMARK    4  A    between atoms: C_9  and  N_10
REMARK    5  A    between atoms: C_11  and  S_15
REMARK    6  A    between atoms: S_15  and  C_16
REMARK    7  A    between atoms: C_16  and  C_17
REMARK    8  A    between atoms: C_20  and  C_22
REMARK    9  A    between atoms: C_22  and  C_23
REMARK   10  A    between atoms: N_25  and  C_26
REMARK   11  A    between atoms: C_29  and  C_32
REMARK                            x       y       z     vdW  Elec       q    Type
REMARK                         _______ _______ _______ _____ _____    ______ ____
ROOT
ATOM      1  C   UNL     1      -0.223   6.565  -0.283  0.00  0.00    +0.059 A 
ATOM      2  C   UNL     1      -0.097   7.268   0.871  0.00  0.00    +0.071 A 
ATOM      3  S   UNL     1      -0.117   8.940   0.240  0.00  0.00    -0.080 S 
ATOM      4  C   UNL     1      -0.295   8.543  -1.441  0.00  0.00    +0.087 A 
ATOM      5  N   UNL     1      -0.322   7.231  -1.415  0.00  0.00    -0.248 NA
ENDROOT
BRANCH   1   6
ATOM      6  C   UNL     1      -0.255   5.058  -0.269  0.00  0.00    +0.133 C 
BRANCH   6   7
ATOM      7  S   UNL     1       1.430   4.417  -0.434  0.00  0.00    -0.078 S 
BRANCH   7   9
ATOM      8  N   UNL     1       2.021   1.690  -0.473  0.00  0.00    -0.184 N 
ATOM      9  C   UNL     1       1.104   2.686  -0.389  0.00  0.00    +0.214 A 
ATOM     10  N   UNL     1      -0.075   2.115  -0.267  0.00  0.00    -0.101 NA
ATOM     11  N   UNL     1       0.042   0.836  -0.269  0.00  0.00    -0.022 NA
ATOM     12  N   UNL     1       1.280   0.499  -0.390  0.00  0.00    -0.038 NA
BRANCH   8  18
ATOM     13  C   UNL     1       4.268   1.121   0.233  0.00  0.00    +0.146 A 
ATOM     14  C   UNL     1       5.640   1.250   0.087  0.00  0.00    +0.048 A 
ATOM     15  C   UNL     1       6.155   2.082  -0.889  0.00  0.00    +0.004 A 
ATOM     16  C   UNL     1       5.306   2.782  -1.726  0.00  0.00    +0.002 A 
ATOM     17  C   UNL     1       3.937   2.655  -1.590  0.00  0.00    +0.031 A 
ATOM     18  C   UNL     1       3.412   1.822  -0.613  0.00  0.00    +0.111 A 
BRANCH  13  19
ATOM     19  O   UNL     1       3.759   0.308   1.197  0.00  0.00    -0.490 OA
BRANCH  19  21
ATOM     20  C   UNL     1       3.942  -1.239   3.044  0.00  0.00    +0.048 C 
ATOM     21  C   UNL     1       4.696  -0.380   2.027  0.00  0.00    +0.226 C 
ENDBRANCH  19  21
ENDBRANCH  13  19
ENDBRANCH   8  18
ENDBRANCH   7   9
ENDBRANCH   6   7
ENDBRANCH   1   6
BRANCH   4  22
ATOM     22  C   UNL     1      -0.393   9.468  -2.627  0.00  0.00    +0.159 C 
BRANCH  22  23
ATOM     23  C   UNL     1      -1.839   9.808  -2.881  0.00  0.00    +0.224 C 
ATOM     24  O   UNL     1      -2.705   9.345  -2.169  0.00  0.00    -0.275 OA
ATOM     25  N   UNL     1      -2.170  10.627  -3.899  0.00  0.00    -0.285 N 
ATOM     26  H   UNL     1      -1.396  10.975  -4.599  0.00  0.00    +0.155 HD
BRANCH  25  27
ATOM     27  C   UNL     1      -3.499  11.034  -4.066  0.00  0.00    +0.033 A 
ATOM     28  C   UNL     1      -4.013  11.225  -5.342  0.00  0.00    +0.023 A 
ATOM     29  C   UNL     1      -5.325  11.623  -5.503  0.00  0.00    +0.005 A 
ATOM     30  C   UNL     1      -6.125  11.840  -4.396  0.00  0.00    -0.050 A 
ATOM     31  C   UNL     1      -5.615  11.655  -3.124  0.00  0.00    +0.005 A 
ATOM     32  C   UNL     1      -4.304  11.253  -2.956  0.00  0.00    +0.023 A 
ATOM     33  C   UNL     1      -7.555  12.279  -4.575  0.00  0.00    +0.044 C 
ENDBRANCH  25  27
ENDBRANCH  22  23
ENDBRANCH   4  22
TORSDOF 9
