REMARK  Name = ZINC24214209
REMARK  12 active torsions:
REMARK  status: ('A' for Active; 'I' for Inactive)
REMARK    1  A    between atoms: C_1  and  C_2
REMARK    2  A    between atoms: C_2  and  C_3
REMARK    3  A    between atoms: C_3  and  N_4
REMARK    4  A    between atoms: N_4  and  C_5
REMARK    5  A    between atoms: N_4  and  C_16
REMARK    6  A    between atoms: C_5  and  C_6
REMARK    7  A    between atoms: C_9  and  C_11
REMARK    8  A    between atoms: C_16  and  C_17
REMARK    9  A    between atoms: N_19  and  C_20
REMARK   10  A    between atoms: N_19  and  C_21
REMARK   11  A    between atoms: C_21  and  C_22
REMARK   12  A    between atoms: C_25  and  C_27
REMARK                            x       y       z     vdW  Elec       q    Type
REMARK                         _______ _______ _______ _____ _____    ______ ____
ROOT
ATOM      1  C   UNL     1       5.634   0.975   1.401  0.00  0.00    +0.019 C 
ENDROOT
BRANCH   1   2
ATOM      2  C   UNL     1       6.154   0.983   2.815  0.00  0.00    +0.199 C 
ATOM      3  O   UNL     1       5.377   0.990   3.747  0.00  0.00    -0.278 OA
ATOM      4  N   UNL     1       7.482   0.982   3.045  0.00  0.00    -0.299 N 
ATOM      5  C   UNL     1       8.420   0.973   1.920  0.00  0.00    +0.132 C 
BRANCH   4   6
ATOM      6  C   UNL     1       7.987   0.989   4.420  0.00  0.00    +0.181 C 
BRANCH   6   7
ATOM      7  C   UNL     1       8.158  -0.429   4.900  0.00  0.00    +0.123 A 
ATOM      8  C   UNL     1       9.274  -1.172   4.773  0.00  0.00    +0.047 A 
ATOM      9  C   UNL     1       9.003  -2.428   5.354  0.00  0.00    +0.050 A 
ATOM     10  C   UNL     1       7.723  -2.380   5.808  0.00  0.00    +0.135 A 
ATOM     11  O   UNL     1       7.224  -1.160   5.531  0.00  0.00    -0.458 OA
BRANCH  10  12
ATOM     12  C   UNL     1       7.004  -3.475   6.493  0.00  0.00    +0.017 A 
ATOM     13  C   UNL     1       7.641  -4.697   6.719  0.00  0.00    +0.013 A 
ATOM     14  C   UNL     1       6.967  -5.713   7.363  0.00  0.00    +0.021 A 
ATOM     15  C   UNL     1       5.658  -5.528   7.775  0.00  0.00    +0.041 A 
ATOM     16  C   UNL     1       5.019  -4.320   7.549  0.00  0.00    +0.021 A 
ATOM     17  C   UNL     1       5.685  -3.294   6.911  0.00  0.00    +0.013 A 
ATOM     18 CL   UNL     1       4.814  -6.815   8.579  0.00  0.00    -0.084 Cl
ENDBRANCH  10  12
ENDBRANCH   6   7
ENDBRANCH   4   6
ENDBRANCH   1   2
BRANCH   1  19
ATOM     19  N   UNL     1       4.171   0.838   1.418  0.00  0.00    +0.391 N 
ATOM     20  H   UNL     1       3.775   1.538   2.168  0.00  0.00    -0.080 HD
BRANCH  19  21
ATOM     21  C   UNL     1       3.775  -0.520   1.813  0.00  0.00    -0.078 C 
BRANCH  21  23
ATOM     22  C   UNL     1       3.842  -2.933   1.170  0.00  0.00    +0.002 C 
ATOM     23  C   UNL     1       4.263  -1.520   0.762  0.00  0.00    -0.022 C 
ENDBRANCH  21  23
ENDBRANCH  19  21
BRANCH  19  24
ATOM     24  C   UNL     1       3.594   1.197   0.116  0.00  0.00    +0.021 C 
BRANCH  24  25
ATOM     25  C   UNL     1       2.094   1.283   0.237  0.00  0.00    +0.202 A 
ATOM     26  N   UNL     1       1.408   2.347   0.545  0.00  0.00    -0.114 NA
ATOM     27  N   UNL     1       0.153   2.062   0.558  0.00  0.00    -0.107 NA
ATOM     28  C   UNL     1      -0.005   0.792   0.256  0.00  0.00    +0.255 A 
ATOM     29  O   UNL     1       1.223   0.276   0.047  0.00  0.00    -0.422 OA
BRANCH  28  30
ATOM     30  C   UNL     1      -1.283   0.069   0.164  0.00  0.00    +0.076 A 
ATOM     31  C   UNL     1      -2.567   0.539   0.371  0.00  0.00    +0.021 A 
ATOM     32  C   UNL     1      -3.616  -0.337   0.219  0.00  0.00    +0.008 A 
ATOM     33  C   UNL     1      -3.361  -1.629  -0.115  0.00  0.00    +0.046 A 
ATOM     34  S   UNL     1      -1.580  -1.645  -0.238  0.00  0.00    -0.092 S 
ENDBRANCH  28  30
ENDBRANCH  24  25
ENDBRANCH  19  24
ENDBRANCH   1  19
TORSDOF 10
