REMARK  Name = ZINC41535591
REMARK  3 active torsions:
REMARK  status: ('A' for Active; 'I' for Inactive)
REMARK    1  A    between atoms: C_6  and  N_7
REMARK    2  A    between atoms: C_8  and  N_17
REMARK    3  A    between atoms: C_10  and  C_12
REMARK                            x       y       z     vdW  Elec       q    Type
REMARK                         _______ _______ _______ _____ _____    ______ ____
ROOT
ATOM      1  N   UNL     1      -1.202  -0.723   0.010  0.00  0.00    -0.219 N 
ATOM      2  C   UNL     1      -1.433  -1.906  -0.620  0.00  0.00    +0.120 A 
ATOM      3  C   UNL     1      -2.722  -2.261  -0.361  0.00  0.00    +0.068 A 
ATOM      4  C   UNL     1      -3.286  -1.269   0.446  0.00  0.00    +0.068 A 
ATOM      5  N   UNL     1      -2.379  -0.353   0.673  0.00  0.00    -0.169 NA
ENDROOT
BRANCH   1  11
ATOM      6  C   UNL     1      -0.017   1.384   0.010  0.00  0.00    +0.029 A 
ATOM      7  C   UNL     1       1.171   2.090   0.002  0.00  0.00    +0.017 A 
ATOM      8  C   UNL     1       2.378   1.414  -0.013  0.00  0.00    +0.018 A 
ATOM      9  C   UNL     1       2.400   0.031  -0.021  0.00  0.00    +0.017 A 
ATOM     10  C   UNL     1       1.215  -0.679  -0.014  0.00  0.00    +0.029 A 
ATOM     11  C   UNL     1       0.002  -0.004   0.002  0.00  0.00    +0.067 A 
ATOM     12 BR   UNL     1       4.002   2.384  -0.023  0.00  0.00    -0.050 Br
ENDBRANCH   1  11
BRANCH   4  13
ATOM     13  C   UNL     1      -4.699  -1.258   0.972  0.00  0.00    +0.040 C 
ATOM     14  C   UNL     1      -5.180  -2.703   1.221  0.00  0.00    +0.010 C 
ATOM     15  C   UNL     1      -6.673  -2.682   0.808  0.00  0.00    +0.001 C 
ATOM     16  C   UNL     1      -6.672  -1.752  -0.431  0.00  0.00    +0.001 C 
ATOM     17  C   UNL     1      -5.647  -0.654  -0.079  0.00  0.00    +0.010 C 
ENDBRANCH   4  13
BRANCH   2  18
ATOM     18  N   UNL     1      -0.520  -2.623  -1.389  0.00  0.00    -0.343 N 
ATOM     19  H   UNL     1       0.380  -2.283  -1.515  0.00  0.00    +0.144 HD
ATOM     20  H   UNL     1      -0.784  -3.461  -1.799  0.00  0.00    +0.144 HD
ENDBRANCH   2  18
TORSDOF 3
