REMARK  Name = ZINC40826788
REMARK  8 active torsions:
REMARK  status: ('A' for Active; 'I' for Inactive)
REMARK    1  A    between atoms: C_1  and  C_2
REMARK    2  A    between atoms: C_6  and  C_12
REMARK    3  A    between atoms: C_10  and  C_11
REMARK    4  A    between atoms: C_12  and  C_13
REMARK    5  A    between atoms: N_15  and  N_16
REMARK    6  A    between atoms: C_23  and  C_39
REMARK    7  A    between atoms: C_24  and  C_26
REMARK    8  A    between atoms: N_28  and  C_29
REMARK                            x       y       z     vdW  Elec       q    Type
REMARK                         _______ _______ _______ _____ _____    ______ ____
ROOT
ATOM      1  N   UNL     1       3.070  -6.934  -2.292  0.00  0.00    -0.184 NA
ATOM      2  C   UNL     1       3.314  -7.902  -3.121  0.00  0.00    +0.070 C 
ATOM      3  C   UNL     1       2.212  -8.779  -3.697  0.00  0.00    +0.058 C 
ATOM      4  C   UNL     1       2.700 -10.232  -3.683  0.00  0.00    +0.014 C 
ATOM      5  C   UNL     1       3.902 -10.407  -4.615  0.00  0.00    +0.075 C 
ATOM      6  C   UNL     1       4.957  -9.389  -4.267  0.00  0.00    +0.115 A 
ATOM      7  C   UNL     1       4.682  -8.229  -3.579  0.00  0.00    +0.042 A 
ATOM      8  C   UNL     1       5.885  -7.526  -3.438  0.00  0.00    +0.009 A 
ATOM      9  C   UNL     1       6.844  -8.283  -4.052  0.00  0.00    +0.193 A 
ATOM     10  O   UNL     1       6.260  -9.405  -4.539  0.00  0.00    -0.454 OA
ATOM     11  C   UNL     1       6.083  -6.202  -2.747  0.00  0.00    +0.048 C 
ENDROOT
BRANCH   1  14
ATOM     12  C   UNL     1       1.501  -5.663  -1.030  0.00  0.00    +0.237 C 
ATOM     13  O   UNL     1       2.413  -4.987  -0.602  0.00  0.00    -0.274 OA
ATOM     14  N   UNL     1       1.754  -6.669  -1.891  0.00  0.00    -0.206 N 
ATOM     15  H   UNL     1       1.025  -7.209  -2.234  0.00  0.00    +0.177 HD
BRANCH  12  16
ATOM     16  C   UNL     1       0.086  -5.378  -0.600  0.00  0.00    +0.136 C 
BRANCH  16  22
ATOM     17  C   UNL     1      -0.023   1.479   0.051  0.00  0.00    +0.044 C 
ATOM     18  C   UNL     1       0.002  -0.028   0.045  0.00  0.00    -0.044 A 
ATOM     19  C   UNL     1       0.000  -0.709  -1.164  0.00  0.00    +0.004 A 
ATOM     20  C   UNL     1       0.023  -2.076  -1.187  0.00  0.00    +0.012 A 
ATOM     21  C   UNL     1       0.048  -2.788   0.011  0.00  0.00    +0.024 A 
ATOM     22  C   UNL     1       0.076  -4.214   0.358  0.00  0.00    +0.007 A 
ATOM     23  C   UNL     1       0.093  -4.273   1.696  0.00  0.00    +0.200 A 
ATOM     24  O   UNL     1       0.077  -3.032   2.215  0.00  0.00    -0.462 OA
ATOM     25  C   UNL     1       0.050  -2.103   1.238  0.00  0.00    +0.138 A 
ATOM     26  C   UNL     1       0.032  -0.714   1.240  0.00  0.00    -0.005 A 
ATOM     27  C   UNL     1       0.040   0.040   2.544  0.00  0.00    +0.048 C 
ENDBRANCH  16  22
ENDBRANCH  12  16
ENDBRANCH   1  14
BRANCH   9  28
ATOM     28  C   UNL     1       8.267  -7.942  -4.156  0.00  0.00    +0.284 C 
ATOM     29  O   UNL     1       8.682  -6.907  -3.669  0.00  0.00    -0.266 OA
ATOM     30  N   UNL     1       9.114  -8.776  -4.791  0.00  0.00    -0.278 N 
ATOM     31  H   UNL     1       8.797  -9.631  -5.121  0.00  0.00    +0.155 HD
BRANCH  30  32
ATOM     32  C   UNL     1      10.447  -8.410  -4.972  0.00  0.00    +0.043 A 
ATOM     33  C   UNL     1      11.103  -7.669  -4.011  0.00  0.00    +0.024 A 
ATOM     34  C   UNL     1      12.433  -7.301  -4.185  0.00  0.00    +0.004 A 
ATOM     35  C   UNL     1      13.122  -7.658  -5.304  0.00  0.00    +0.028 A 
ATOM     36  C   UNL     1      12.492  -8.412  -6.308  0.00  0.00    +0.073 A 
ATOM     37  C   UNL     1      11.140  -8.799  -6.137  0.00  0.00    +0.022 A 
ATOM     38  C   UNL     1      10.515  -9.558  -7.141  0.00  0.00    +0.013 A 
ATOM     39  C   UNL     1      11.248  -9.899  -8.243  0.00  0.00    +0.020 A 
ATOM     40  C   UNL     1      12.576  -9.492  -8.347  0.00  0.00    +0.111 A 
ATOM     41  N   UNL     1      13.152  -8.773  -7.415  0.00  0.00    -0.255 NA
ENDBRANCH  30  32
ENDBRANCH   9  28
TORSDOF 5
