REMARK  Name = ZINC63165454
REMARK  6 active torsions:
REMARK  status: ('A' for Active; 'I' for Inactive)
REMARK    1  A    between atoms: C_1  and  N_2
REMARK    2  A    between atoms: C_3  and  C_20
REMARK    3  A    between atoms: C_7  and  S_9
REMARK    4  A    between atoms: S_9  and  C_10
REMARK    5  A    between atoms: C_10  and  C_11
REMARK    6  A    between atoms: C_20  and  C_21
REMARK                            x       y       z     vdW  Elec       q    Type
REMARK                         _______ _______ _______ _____ _____    ______ ____
ROOT
ATOM      1  C   UNL     1      -0.018   1.465   0.010  0.00  0.00    +0.108 C 
ATOM      2  N   UNL     1       0.002  -0.004   0.002  0.00  0.00    -0.264 NA
ATOM      3  C   UNL     1       0.733  -0.519  -1.179  0.00  0.00    +0.145 C 
ATOM      4  N   UNL     1       2.096  -0.813  -0.666  0.00  0.00    -0.237 NA
ATOM      5  N   UNL     1       1.836  -1.344   0.681  0.00  0.00    -0.229 NA
ATOM      6  C   UNL     1       0.708  -0.531   1.189  0.00  0.00    +0.199 C 
ATOM      7  H   UNL     1       2.559  -1.500  -1.242  0.00  0.00    +0.142 HD
ATOM      8  H   UNL     1       2.648  -1.245   1.272  0.00  0.00    +0.143 HD
ENDROOT
BRANCH   6   9
ATOM      9  S   UNL     1      -0.413  -1.565   2.170  0.00  0.00    -0.121 S 
BRANCH   9  10
ATOM     10  C   UNL     1      -0.900  -2.889   1.030  0.00  0.00    +0.118 C 
BRANCH  10  11
ATOM     11  C   UNL     1      -1.859  -3.847   1.740  0.00  0.00    +0.184 C 
ATOM     12  N   UNL     1      -3.025  -3.111   2.244  0.00  0.00    -0.363 N 
ATOM     13  C   UNL     1      -3.048  -3.253   3.537  0.00  0.00    +0.060 A 
ATOM     14  C   UNL     1      -3.957  -2.759   4.581  0.00  0.00    +0.027 A 
ATOM     15  C   UNL     1      -3.724  -3.075   5.870  0.00  0.00    +0.002 A 
ATOM     16  C   UNL     1      -2.634  -3.869   6.271  0.00  0.00    +0.002 A 
ATOM     17  C   UNL     1      -1.741  -4.372   5.396  0.00  0.00    +0.027 A 
ATOM     18  C   UNL     1      -1.895  -4.093   3.962  0.00  0.00    +0.060 A 
ATOM     19  N   UNL     1      -1.204  -4.438   2.914  0.00  0.00    -0.363 N 
ATOM     20  H   UNL     1      -3.662  -2.610   1.710  0.00  0.00    +0.162 HD
ATOM     21  H   UNL     1      -0.403  -4.986   2.909  0.00  0.00    +0.162 HD
ENDBRANCH  10  11
ENDBRANCH   9  10
ENDBRANCH   6   9
BRANCH   3  22
ATOM     22  C   UNL     1       0.789   0.544  -2.278  0.00  0.00    +0.078 C 
BRANCH  22  23
ATOM     23  C   UNL     1       1.428  -0.042  -3.511  0.00  0.00    -0.007 A 
ATOM     24  C   UNL     1       0.842  -0.674  -4.557  0.00  0.00    +0.011 A 
ATOM     25  C   UNL     1       1.634  -1.134  -5.592  0.00  0.00    +0.008 A 
ATOM     26  C   UNL     1       2.974  -0.939  -5.530  0.00  0.00    +0.045 A 
ATOM     27  S   UNL     1       3.151  -0.076  -3.978  0.00  0.00    -0.102 S 
ENDBRANCH  22  23
ENDBRANCH   3  22
TORSDOF 5
