REMARK  Name = ZINC01214312
REMARK  7 active torsions:
REMARK  status: ('A' for Active; 'I' for Inactive)
REMARK    1  A    between atoms: C_1  and  C_2
REMARK    2  A    between atoms: C_5  and  C_8
REMARK    3  A    between atoms: C_11  and  C_19
REMARK    4  A    between atoms: C_11  and  O_26
REMARK    5  A    between atoms: C_13  and  C_15
REMARK    6  A    between atoms: C_15  and  O_17
REMARK    7  A    between atoms: O_17  and  C_18
REMARK                            x       y       z     vdW  Elec       q    Type
REMARK                         _______ _______ _______ _____ _____    ______ ____
ROOT
ATOM      1  C   UNL     1       0.061  -4.250  -0.021  0.00  0.00    +0.269 C 
ATOM      2  O   UNL     1      -0.033  -4.854  -1.072  0.00  0.00    -0.268 OA
ATOM      3  N   UNL     1       0.177  -4.929   1.137  0.00  0.00    -0.152 N 
ATOM      4  C   UNL     1       0.320  -6.388   1.263  0.00  0.00    +0.188 C 
ATOM      5  C   UNL     1       0.412  -6.614   2.785  0.00  0.00    +0.126 C 
ATOM      6  C   UNL     1       0.308  -5.223   3.368  0.00  0.00    +0.148 C 
ATOM      7  N   UNL     1       0.189  -4.363   2.410  0.00  0.00    -0.172 NA
ENDROOT
BRANCH   1  12
ATOM      8  C   UNL     1       0.003   1.503   0.008  0.00  0.00    +0.044 C 
ATOM      9  C   UNL     1       0.018  -0.004   0.001  0.00  0.00    -0.050 A 
ATOM     10  C   UNL     1       0.041  -0.686  -1.203  0.00  0.00    +0.004 A 
ATOM     11  C   UNL     1       0.055  -2.065  -1.217  0.00  0.00    +0.013 A 
ATOM     12  C   UNL     1       0.046  -2.773  -0.014  0.00  0.00    +0.039 A 
ATOM     13  C   UNL     1       0.023  -2.078   1.197  0.00  0.00    +0.013 A 
ATOM     14  C   UNL     1       0.015  -0.699   1.197  0.00  0.00    +0.004 A 
ENDBRANCH   1  12
BRANCH   4  15
ATOM     15  C   UNL     1       1.579  -6.858   0.581  0.00  0.00    +0.004 A 
ATOM     16  C   UNL     1       1.643  -8.133   0.051  0.00  0.00    +0.009 A 
ATOM     17  C   UNL     1       2.797  -8.565  -0.575  0.00  0.00    +0.020 A 
ATOM     18  C   UNL     1       3.889  -7.721  -0.671  0.00  0.00    +0.041 A 
ATOM     19  C   UNL     1       3.825  -6.445  -0.140  0.00  0.00    +0.020 A 
ATOM     20  C   UNL     1       2.668  -6.012   0.481  0.00  0.00    +0.009 A 
ATOM     21 CL   UNL     1       5.339  -8.263  -1.456  0.00  0.00    -0.084 Cl
ENDBRANCH   4  15
BRANCH   6  22
ATOM     22  C   UNL     1       0.343  -4.899   4.796  0.00  0.00    +0.355 C 
ATOM     23  O   UNL     1       0.465  -5.787   5.618  0.00  0.00    -0.244 OA
BRANCH  22  24
ATOM     24  O   UNL     1       0.241  -3.616   5.199  0.00  0.00    -0.464 OA
ATOM     25  C   UNL     1       0.284  -3.373   6.607  0.00  0.00    +0.280 C 
ENDBRANCH  22  24
ENDBRANCH   6  22
BRANCH   4  26
ATOM     26  O   UNL     1      -0.824  -7.054   0.724  0.00  0.00    -0.366 OA
ATOM     27  H   UNL     1      -0.966  -6.890  -0.218  0.00  0.00    +0.212 HD
ENDBRANCH   4  26
TORSDOF 5
