REMARK  Name = ZINC66731231
REMARK  7 active torsions:
REMARK  status: ('A' for Active; 'I' for Inactive)
REMARK    1  A    between atoms: C_1  and  C_2
REMARK    2  A    between atoms: C_3  and  C_4
REMARK    3  A    between atoms: C_5  and  C_6
REMARK    4  A    between atoms: C_15  and  C_17
REMARK    5  A    between atoms: C_17  and  C_18
REMARK    6  A    between atoms: C_17  and  C_19
REMARK    7  A    between atoms: C_17  and  C_20
REMARK                            x       y       z     vdW  Elec       q    Type
REMARK                         _______ _______ _______ _____ _____    ______ ____
ROOT
ATOM      1  C   UNL     1      -2.789  -4.870   1.706  0.00  0.00    +0.239 C 
ATOM      2  O   UNL     1      -1.810  -5.548   1.954  0.00  0.00    -0.271 OA
ATOM      3  N   UNL     1      -3.938  -5.459   1.320  0.00  0.00    -0.296 N 
ATOM      4  C   UNL     1      -4.043  -6.871   1.197  0.00  0.00    +0.109 C 
ATOM      5  C   UNL     1      -3.537  -7.446  -0.166  0.00  0.00    +0.038 C 
ATOM      6  C   UNL     1      -3.960  -6.436  -1.282  0.00  0.00    +0.109 C 
ATOM      7  N   UNL     1      -5.238  -5.844  -1.091  0.00  0.00    -0.299 N 
ATOM      8  C   UNL     1      -5.273  -4.508  -0.442  0.00  0.00    +0.126 C 
ATOM      9  C   UNL     1      -5.153  -4.662   1.009  0.00  0.00    +0.127 C 
ATOM     10  C   UNL     1      -6.367  -6.466  -1.483  0.00  0.00    +0.221 C 
ATOM     11  O   UNL     1      -6.304  -7.537  -2.049  0.00  0.00    -0.275 OA
ENDROOT
BRANCH  10  12
ATOM     12  C   UNL     1      -7.708  -5.832  -1.218  0.00  0.00    +0.039 C 
ATOM     13  C   UNL     1      -8.819  -6.830  -1.552  0.00  0.00    +0.020 C 
ATOM     14  C   UNL     1      -7.803  -5.439   0.258  0.00  0.00    +0.020 C 
ATOM     15  C   UNL     1      -7.863  -4.585  -2.089  0.00  0.00    +0.020 C 
ENDBRANCH  10  12
BRANCH   1  17
ATOM     16  C   UNL     1      -1.567  -2.822   2.215  0.00  0.00    +0.005 C 
ATOM     17  C   UNL     1      -2.720  -3.413   1.827  0.00  0.00    +0.067 C 
BRANCH  16  20
ATOM     18  C   UNL     1      -0.288   0.718   2.843  0.00  0.00    +0.035 C 
ATOM     19  C   UNL     1      -0.361  -0.782   2.719  0.00  0.00    -0.030 C 
ATOM     20  C   UNL     1      -1.498  -1.365   2.336  0.00  0.00    -0.004 C 
ENDBRANCH  16  20
ENDBRANCH   1  17
TORSDOF 3
