REMARK  Name = ZINC06563483
REMARK  10 active torsions:
REMARK  status: ('A' for Active; 'I' for Inactive)
REMARK    1  A    between atoms: C_1  and  C_2
REMARK    2  A    between atoms: C_2  and  C_3
REMARK    3  A    between atoms: C_2  and  C_4
REMARK    4  A    between atoms: C_2  and  C_5
REMARK    5  A    between atoms: C_8  and  C_11
REMARK    6  A    between atoms: N_13  and  C_14
REMARK    7  A    between atoms: C_14  and  N_16
REMARK    8  A    between atoms: N_16  and  N_17
REMARK    9  A    between atoms: C_18  and  C_20
REMARK   10  A    between atoms: C_23  and  N_26
REMARK                            x       y       z     vdW  Elec       q    Type
REMARK                         _______ _______ _______ _____ _____    ______ ____
ROOT
ATOM      1  C   UNL     1       3.635  -4.865  -0.058  0.00  0.00    +0.153 C 
ATOM      2  S   UNL     1       3.667  -6.577  -0.067  0.00  0.00    -0.017 S 
ENDROOT
BRANCH   1   5
ATOM      3  C   UNL     1       5.968  -4.821  -0.080  0.00  0.00    +0.250 C 
ATOM      4  O   UNL     1       5.991  -6.036  -0.087  0.00  0.00    -0.270 OA
ATOM      5  N   UNL     1       4.789  -4.170  -0.066  0.00  0.00    -0.263 N 
ATOM      6  H   UNL     1       4.771  -3.200  -0.060  0.00  0.00    +0.157 HD
BRANCH   3  10
ATOM      7  C   UNL     1       9.606  -2.630  -0.104  0.00  0.00    -0.042 A 
ATOM      8  C   UNL     1       9.636  -4.013  -0.112  0.00  0.00    +0.005 A 
ATOM      9  C   UNL     1       8.458  -4.731  -0.104  0.00  0.00    +0.013 A 
ATOM     10  C   UNL     1       7.234  -4.059  -0.089  0.00  0.00    +0.037 A 
ATOM     11  C   UNL     1       7.212  -2.663  -0.087  0.00  0.00    +0.013 A 
ATOM     12  C   UNL     1       8.397  -1.957  -0.089  0.00  0.00    +0.005 A 
BRANCH   7  14
ATOM     13  C   UNL     1      11.694  -2.200  -1.371  0.00  0.00    +0.015 C 
ATOM     14  C   UNL     1      10.897  -1.852  -0.113  0.00  0.00    -0.013 C 
ATOM     15  C   UNL     1      10.589  -0.353  -0.102  0.00  0.00    +0.015 C 
ATOM     16  C   UNL     1      11.717  -2.213   1.127  0.00  0.00    +0.015 C 
ENDBRANCH   7  14
ENDBRANCH   3  10
ENDBRANCH   1   5
BRANCH   1  17
ATOM     17  N   UNL     1       2.455  -4.213  -0.043  0.00  0.00    -0.245 N 
ATOM     18  H   UNL     1       1.624  -4.714  -0.037  0.00  0.00    +0.172 HD
BRANCH  17  19
ATOM     19  N   UNL     1       2.429  -2.812  -0.036  0.00  0.00    -0.231 N 
ATOM     20  C   UNL     1       1.250  -2.160  -0.021  0.00  0.00    +0.260 C 
ATOM     21  O   UNL     1       0.208  -2.788  -0.014  0.00  0.00    -0.269 OA
ATOM     22  H   UNL     1       3.260  -2.312  -0.041  0.00  0.00    +0.173 HD
BRANCH  20  23
ATOM     23  C   UNL     1       1.222  -0.682  -0.013  0.00  0.00    +0.038 A 
ATOM     24  C   UNL     1       0.002  -0.004   0.002  0.00  0.00    +0.015 A 
ATOM     25  C   UNL     1      -0.017   1.375   0.010  0.00  0.00    +0.033 A 
ATOM     26  C   UNL     1       1.170   2.086   0.002  0.00  0.00    +0.126 A 
ATOM     27  C   UNL     1       2.383   1.420  -0.013  0.00  0.00    +0.033 A 
ATOM     28  C   UNL     1       2.416   0.041  -0.021  0.00  0.00    +0.015 A 
BRANCH  26  29
ATOM     29  N   UNL     1       1.143   3.566   0.010  0.00  0.00    +0.056 N 
ATOM     30  O   UNL     1       0.077   4.155   0.023  0.00  0.00    -0.126 OA
ATOM     31  O   UNL     1       2.186   4.195   0.003  0.00  0.00    -0.126 OA
ENDBRANCH  26  29
ENDBRANCH  20  23
ENDBRANCH  17  19
ENDBRANCH   1  17
TORSDOF 7
