REMARK  Name = ZINC63919972
REMARK  6 active torsions:
REMARK  status: ('A' for Active; 'I' for Inactive)
REMARK    1  A    between atoms: C_1  and  N_2
REMARK    2  A    between atoms: C_7  and  C_10
REMARK    3  A    between atoms: N_12  and  C_13
REMARK    4  A    between atoms: C_13  and  C_14
REMARK    5  A    between atoms: C_14  and  C_16
REMARK    6  A    between atoms: C_14  and  C_23
REMARK                            x       y       z     vdW  Elec       q    Type
REMARK                         _______ _______ _______ _____ _____    ______ ____
ROOT
ATOM      1  C   UNL     1       5.580  -3.205   0.787  0.00  0.00    +0.066 C 
ENDROOT
BRANCH   1   2
ATOM      2  C   UNL     1       7.006  -2.787   0.532  0.00  0.00    -0.033 C 
ATOM      3  C   UNL     1       7.785  -3.151  -0.512  0.00  0.00    -0.000 A 
ATOM      4  C   UNL     1       7.549  -4.012  -1.677  0.00  0.00    +0.010 A 
ATOM      5  C   UNL     1       8.546  -4.191  -2.574  0.00  0.00    +0.001 A 
ATOM      6  C   UNL     1       9.796  -3.576  -2.418  0.00  0.00    +0.002 A 
ATOM      7  C   UNL     1      10.088  -2.772  -1.374  0.00  0.00    +0.026 A 
ATOM      8  C   UNL     1       9.114  -2.513  -0.371  0.00  0.00    +0.043 A 
ATOM      9  N   UNL     1       9.154  -1.784   0.717  0.00  0.00    -0.380 N 
ATOM     10  C   UNL     1       7.852  -1.871   1.388  0.00  0.00    +0.145 C 
ATOM     11  H   UNL     1       9.916  -1.269   1.026  0.00  0.00    +0.160 HD
ENDBRANCH   1   2
BRANCH   1  12
ATOM     12  C   UNL     1       5.497  -3.925   2.108  0.00  0.00    -0.020 A 
ATOM     13  C   UNL     1       5.863  -3.276   3.273  0.00  0.00    +0.006 A 
ATOM     14  C   UNL     1       5.786  -3.936   4.485  0.00  0.00    +0.000 A 
ATOM     15  C   UNL     1       5.343  -5.245   4.533  0.00  0.00    +0.001 A 
ATOM     16  C   UNL     1       4.976  -5.894   3.370  0.00  0.00    +0.020 A 
ATOM     17  C   UNL     1       5.048  -5.232   2.156  0.00  0.00    +0.045 A 
ATOM     18 CL   UNL     1       4.581  -6.045   0.695  0.00  0.00    -0.083 Cl
ENDBRANCH   1  12
BRANCH   1  19
ATOM     19  C   UNL     1       4.684  -1.965   0.823  0.00  0.00    +0.116 C 
BRANCH  19  22
ATOM     20  C   UNL     1       2.310  -1.448   1.004  0.00  0.00    +0.236 C 
ATOM     21  O   UNL     1       2.592  -0.270   0.945  0.00  0.00    -0.274 OA
ATOM     22  N   UNL     1       3.285  -2.378   0.952  0.00  0.00    -0.313 N 
ATOM     23  H   UNL     1       3.059  -3.320   0.999  0.00  0.00    +0.149 HD
BRANCH  20  30
ATOM     24  C   UNL     1      -0.018   1.461   0.010  0.00  0.00    +0.153 C 
ATOM     25  N   UNL     1       0.002  -0.004   0.002  0.00  0.00    -0.236 N 
ATOM     26  C   UNL     1       0.005  -0.663  -1.174  0.00  0.00    +0.252 C 
ATOM     27  O   UNL     1      -0.046  -0.054  -2.225  0.00  0.00    -0.269 OA
ATOM     28  C   UNL     1       0.074  -2.138  -1.164  0.00  0.00    +0.066 C 
ATOM     29  C   UNL     1       0.492  -2.733  -0.043  0.00  0.00    +0.007 C 
ATOM     30  C   UNL     1       0.870  -1.873   1.136  0.00  0.00    +0.181 C 
ATOM     31  N   UNL     1       0.022  -0.683   1.183  0.00  0.00    -0.222 NA
ATOM     32  H   UNL     1      -0.912  -0.920   1.479  0.00  0.00    +0.146 HD
ENDBRANCH  20  30
ENDBRANCH  19  22
ENDBRANCH   1  19
TORSDOF 5
