REMARK  Name = ZINC40137833
REMARK  10 active torsions:
REMARK  status: ('A' for Active; 'I' for Inactive)
REMARK    1  A    between atoms: C_1  and  C_2
REMARK    2  A    between atoms: N_9  and  N_10
REMARK    3  A    between atoms: C_11  and  C_13
REMARK    4  A    between atoms: C_17  and  O_19
REMARK    5  A    between atoms: N_22  and  C_23
REMARK    6  A    between atoms: C_23  and  C_24
REMARK    7  A    between atoms: C_24  and  O_25
REMARK    8  A    between atoms: O_25  and  C_26
REMARK    9  A    between atoms: C_29  and  O_32
REMARK   10  A    between atoms: O_32  and  C_33
REMARK                            x       y       z     vdW  Elec       q    Type
REMARK                         _______ _______ _______ _____ _____    ______ ____
ROOT
ATOM      1  C   UNL     1      -0.018   1.503   0.010  0.00  0.00    +0.044 C 
ATOM      2  C   UNL     1       0.002  -0.004   0.002  0.00  0.00    -0.050 A 
ATOM      3  C   UNL     1       0.006  -0.689  -1.201  0.00  0.00    +0.005 A 
ATOM      4  C   UNL     1       0.024  -2.069  -1.225  0.00  0.00    +0.024 A 
ATOM      5  C   UNL     1       0.039  -2.787  -0.034  0.00  0.00    +0.046 A 
ATOM      6  C   UNL     1       0.036  -2.090   1.181  0.00  0.00    +0.029 A 
ATOM      7  C   UNL     1       0.023  -0.700   1.194  0.00  0.00    +0.015 A 
ATOM      8  C   UNL     1       0.056  -3.115   2.251  0.00  0.00    +0.153 C 
ATOM      9  N   UNL     1       0.060  -2.916   3.547  0.00  0.00    -0.174 NA
ATOM     10  C   UNL     1       0.070  -4.409   1.540  0.00  0.00    +0.271 C 
ATOM     11  O   UNL     1       0.088  -5.510   2.056  0.00  0.00    -0.268 OA
ATOM     12  N   UNL     1       0.059  -4.154   0.220  0.00  0.00    -0.262 N 
ENDROOT
BRANCH   9  13
ATOM     13  N   UNL     1       0.079  -4.009   4.423  0.00  0.00    -0.202 N 
ATOM     14  C   UNL     1       0.083  -3.804   5.755  0.00  0.00    +0.263 C 
ATOM     15  O   UNL     1       0.070  -2.672   6.196  0.00  0.00    -0.268 OA
ATOM     16  H   UNL     1       0.090  -4.913   4.071  0.00  0.00    +0.178 HD
BRANCH  14  17
ATOM     17  C   UNL     1       0.104  -4.957   6.679  0.00  0.00    +0.042 A 
ATOM     18  C   UNL     1       0.125  -6.259   6.175  0.00  0.00    +0.013 A 
ATOM     19  C   UNL     1       0.145  -7.333   7.041  0.00  0.00    +0.004 A 
ATOM     20  C   UNL     1       0.143  -7.125   8.409  0.00  0.00    +0.045 A 
ATOM     21  C   UNL     1       0.122  -5.834   8.919  0.00  0.00    +0.118 A 
ATOM     22  C   UNL     1       0.108  -4.748   8.059  0.00  0.00    +0.058 A 
BRANCH  21  23
ATOM     23  O   UNL     1       0.120  -5.635  10.264  0.00  0.00    -0.507 OA
ATOM     24  H   UNL     1       1.003  -5.563  10.652  0.00  0.00    +0.292 HD
ENDBRANCH  21  23
ENDBRANCH  14  17
ENDBRANCH   9  13
BRANCH  12  25
ATOM     25  C   UNL     1       0.068  -5.187  -0.820  0.00  0.00    +0.155 C 
BRANCH  25  26
ATOM     26  C   UNL     1       1.513  -5.526  -1.189  0.00  0.00    +0.248 C 
BRANCH  26  27
ATOM     27  O   UNL     1       2.166  -6.117  -0.064  0.00  0.00    -0.490 OA
BRANCH  27  28
ATOM     28  C   UNL     1       3.467  -6.481  -0.226  0.00  0.00    +0.121 A 
ATOM     29  C   UNL     1       4.100  -6.267  -1.441  0.00  0.00    +0.049 A 
ATOM     30  C   UNL     1       5.421  -6.636  -1.606  0.00  0.00    +0.049 A 
ATOM     31  C   UNL     1       6.114  -7.220  -0.555  0.00  0.00    +0.120 A 
ATOM     32  C   UNL     1       5.480  -7.433   0.660  0.00  0.00    +0.049 A 
ATOM     33  C   UNL     1       4.161  -7.060   0.826  0.00  0.00    +0.049 A 
BRANCH  31  34
ATOM     34  O   UNL     1       7.414  -7.584  -0.718  0.00  0.00    -0.495 OA
ATOM     35  C   UNL     1       8.066  -8.181   0.406  0.00  0.00    +0.277 C 
ENDBRANCH  31  34
ENDBRANCH  27  28
ENDBRANCH  26  27
ENDBRANCH  25  26
ENDBRANCH  12  25
TORSDOF 8
