REMARK  Name = ZINC33048157
REMARK  11 active torsions:
REMARK  status: ('A' for Active; 'I' for Inactive)
REMARK    1  A    between atoms: C_1  and  C_2
REMARK    2  A    between atoms: C_4  and  C_37
REMARK    3  A    between atoms: C_6  and  N_8
REMARK    4  A    between atoms: C_9  and  C_17
REMARK    5  A    between atoms: C_17  and  N_18
REMARK    6  A    between atoms: N_21  and  S_24
REMARK    7  A    between atoms: S_24  and  C_27
REMARK    8  A    between atoms: C_30  and  O_35
REMARK    9  A    between atoms: C_31  and  O_33
REMARK   10  A    between atoms: O_33  and  C_34
REMARK   11  A    between atoms: O_35  and  C_36
REMARK                            x       y       z     vdW  Elec       q    Type
REMARK                         _______ _______ _______ _____ _____    ______ ____
ROOT
ATOM      1  C   UNL     1      -4.250   3.669  -3.100  0.00  0.00    +0.157 C 
ENDROOT
BRANCH   1   3
ATOM      2  N   UNL     1      -5.397   2.344  -4.947  0.00  0.00    -0.281 N 
ATOM      3  C   UNL     1      -5.238   2.663  -3.631  0.00  0.00    +0.108 A 
ATOM      4  N   UNL     1      -6.068   1.977  -2.902  0.00  0.00    -0.341 N 
ATOM      5  C   UNL     1      -6.811   1.167  -3.698  0.00  0.00    +0.084 A 
ATOM      6  C   UNL     1      -6.389   1.387  -5.022  0.00  0.00    +0.163 A 
ATOM      7  N   UNL     1      -6.949   0.725  -6.021  0.00  0.00    -0.236 NA
ATOM      8  C   UNL     1      -7.909  -0.153  -5.815  0.00  0.00    +0.113 A 
ATOM      9  C   UNL     1      -8.376  -0.424  -4.539  0.00  0.00    +0.022 A 
ATOM     10  C   UNL     1      -7.828   0.239  -3.457  0.00  0.00    +0.031 A 
ATOM     11  H   UNL     1      -6.082   2.111  -1.810  0.00  0.00    +0.167 HD
BRANCH   2  17
ATOM     12  C   UNL     1      -4.246   6.222  -7.744  0.00  0.00    +0.044 C 
ATOM     13  C   UNL     1      -4.106   4.761  -7.402  0.00  0.00    -0.048 A 
ATOM     14  C   UNL     1      -3.272   3.952  -8.152  0.00  0.00    +0.006 A 
ATOM     15  C   UNL     1      -3.142   2.611  -7.842  0.00  0.00    -0.048 A 
ATOM     16  C   UNL     1      -3.845   2.075  -6.780  0.00  0.00    +0.029 A 
ATOM     17  C   UNL     1      -4.682   2.885  -6.025  0.00  0.00    +0.050 A 
ATOM     18  C   UNL     1      -4.815   4.230  -6.342  0.00  0.00    +0.029 A 
ATOM     19  C   UNL     1      -2.232   1.734  -8.662  0.00  0.00    +0.044 C 
ENDBRANCH   2  17
ENDBRANCH   1   3
BRANCH   1  20
ATOM     20  N   UNL     1      -2.981   2.994  -2.793  0.00  0.00    -0.293 NA
ATOM     21  C   UNL     1      -2.076   3.886  -2.056  0.00  0.00    +0.102 C 
ATOM     22  C   UNL     1      -0.706   3.213  -1.915  0.00  0.00    +0.125 C 
ATOM     23  N   UNL     1      -0.897   1.885  -1.312  0.00  0.00    -0.174 NA
ATOM     24  C   UNL     1      -1.887   0.982  -1.919  0.00  0.00    +0.125 C 
ATOM     25  C   UNL     1      -3.215   1.745  -2.057  0.00  0.00    +0.102 C 
BRANCH  23  26
ATOM     26  S   UNL     1      -0.017   1.417   0.010  0.00  0.00    +0.061 S 
ATOM     27  O   UNL     1       0.002  -0.004   0.002  0.00  0.00    -0.153 OA
ATOM     28  O   UNL     1       1.172   2.195   0.003  0.00  0.00    -0.153 OA
BRANCH  26  29
ATOM     29  C   UNL     1      -0.927   1.900   1.439  0.00  0.00    +0.109 A 
ATOM     30  C   UNL     1      -0.716   3.145   2.003  0.00  0.00    +0.032 A 
ATOM     31  C   UNL     1      -1.431   3.531   3.121  0.00  0.00    +0.051 A 
ATOM     32  C   UNL     1      -2.353   2.666   3.686  0.00  0.00    +0.162 A 
ATOM     33  C   UNL     1      -2.562   1.410   3.123  0.00  0.00    +0.163 A 
ATOM     34  C   UNL     1      -1.845   1.032   1.999  0.00  0.00    +0.078 A 
BRANCH  33  35
ATOM     35  O   UNL     1      -3.466   0.557   3.674  0.00  0.00    -0.491 OA
ATOM     36  C   UNL     1      -3.627  -0.714   3.042  0.00  0.00    +0.277 C 
ENDBRANCH  33  35
BRANCH  32  37
ATOM     37  O   UNL     1      -3.054   3.042   4.790  0.00  0.00    -0.491 OA
ATOM     38  C   UNL     1      -2.789   4.345   5.314  0.00  0.00    +0.277 C 
ENDBRANCH  32  37
ENDBRANCH  26  29
ENDBRANCH  23  26
ENDBRANCH   1  20
TORSDOF 7
