REMARK  Name = ZINC36220574
REMARK  7 active torsions:
REMARK  status: ('A' for Active; 'I' for Inactive)
REMARK    1  A    between atoms: C_1  and  C_2
REMARK    2  A    between atoms: C_11  and  N_32
REMARK    3  A    between atoms: C_13  and  S_15
REMARK    4  A    between atoms: S_15  and  C_16
REMARK    5  A    between atoms: C_16  and  C_17
REMARK    6  A    between atoms: C_19  and  O_20
REMARK    7  A    between atoms: C_29  and  C_31
REMARK                            x       y       z     vdW  Elec       q    Type
REMARK                         _______ _______ _______ _____ _____    ______ ____
ROOT
ATOM      1  S   UNL     1       2.456  -7.596   0.160  0.00  0.00    -0.081 S 
ENDROOT
BRANCH   1  13
ATOM      2  C   UNL     1       0.500   1.514  -3.982  0.00  0.00    +0.008 C 
ATOM      3  C   UNL     1       0.495   0.051  -3.534  0.00  0.00    -0.009 C 
ATOM      4  C   UNL     1       1.476  -0.753  -4.392  0.00  0.00    +0.008 C 
ATOM      5  C   UNL     1       1.298  -2.246  -4.121  0.00  0.00    +0.037 C 
ATOM      6  C   UNL     1       1.391  -2.491  -2.617  0.00  0.00    -0.025 A 
ATOM      7  C   UNL     1       1.222  -1.474  -1.744  0.00  0.00    -0.004 A 
ATOM      8  S   UNL     1       1.410  -2.201  -0.135  0.00  0.00    -0.073 S 
ATOM      9  C   UNL     1       1.715  -3.866  -0.632  0.00  0.00    +0.115 A 
ATOM     10  C   UNL     1       1.660  -3.802  -2.047  0.00  0.00    +0.051 A 
ATOM     11  C   UNL     1       1.873  -5.019  -2.757  0.00  0.00    +0.129 A 
ATOM     12  N   UNL     1       2.103  -6.097  -2.011  0.00  0.00    -0.207 NA
ATOM     13  C   UNL     1       2.140  -6.084  -0.687  0.00  0.00    +0.191 A 
ATOM     14  N   UNL     1       1.948  -4.978   0.036  0.00  0.00    -0.215 NA
ATOM     15  C   UNL     1       0.933  -0.039  -2.065  0.00  0.00    +0.046 C 
BRANCH  11  16
ATOM     16  N   UNL     1       1.842  -5.078  -4.139  0.00  0.00    -0.343 N 
ATOM     17  H   UNL     1       2.414  -5.704  -4.611  0.00  0.00    +0.144 HD
ATOM     18  H   UNL     1       1.250  -4.492  -4.636  0.00  0.00    +0.144 HD
ENDBRANCH  11  16
ENDBRANCH   1  13
BRANCH   1  19
ATOM     19  C   UNL     1       2.650  -8.813  -1.172  0.00  0.00    +0.113 C 
BRANCH  19  20
ATOM     20  C   UNL     1       2.928 -10.169  -0.577  0.00  0.00    -0.020 A 
ATOM     21  C   UNL     1       4.167 -10.465  -0.045  0.00  0.00    +0.092 A 
ATOM     22  C   UNL     1       4.405 -11.720   0.498  0.00  0.00    +0.285 A 
ATOM     23  O   UNL     1       3.454 -12.660   0.521  0.00  0.00    -0.425 OA
ATOM     24  C   UNL     1       2.226 -12.424   0.015  0.00  0.00    +0.141 A 
ATOM     25  C   UNL     1       1.927 -11.162  -0.546  0.00  0.00    +0.022 A 
ATOM     26  C   UNL     1       0.646 -10.910  -1.070  0.00  0.00    +0.013 A 
ATOM     27  C   UNL     1      -0.305 -11.880  -1.032  0.00  0.00    +0.024 A 
ATOM     28  C   UNL     1      -0.018 -13.136  -0.470  0.00  0.00    +0.037 A 
ATOM     29  C   UNL     1       1.252 -13.405   0.044  0.00  0.00    +0.070 A 
ATOM     30  N   UNL     1      -0.979 -14.099  -0.437  0.00  0.00    -0.286 N 
ATOM     31  C   UNL     1      -0.834 -15.150   0.347  0.00  0.00    +0.214 C 
ATOM     32  O   UNL     1       0.096 -15.200   1.132  0.00  0.00    -0.276 OA
ATOM     33  C   UNL     1      -1.818 -16.288   0.271  0.00  0.00    +0.109 C 
ATOM     34  H   UNL     1      -1.772 -14.012  -0.990  0.00  0.00    +0.155 HD
BRANCH  22  35
ATOM     35  O   UNL     1       5.618 -11.996   1.014  0.00  0.00    -0.480 OA
ATOM     36  H   UNL     1       5.699 -12.891   1.372  0.00  0.00    +0.295 HD
ENDBRANCH  22  35
ENDBRANCH  19  20
ENDBRANCH   1  19
TORSDOF 5
