REMARK  Name = ZINC27056436
REMARK  12 active torsions:
REMARK  status: ('A' for Active; 'I' for Inactive)
REMARK    1  A    between atoms: C_1  and  C_2
REMARK    2  A    between atoms: C_2  and  O_3
REMARK    3  A    between atoms: O_3  and  C_4
REMARK    4  A    between atoms: C_11  and  C_18
REMARK    5  A    between atoms: C_13  and  O_14
REMARK    6  A    between atoms: C_18  and  O_19
REMARK    7  A    between atoms: O_19  and  C_20
REMARK    8  A    between atoms: C_20  and  C_22
REMARK    9  A    between atoms: C_23  and  C_35
REMARK   10  A    between atoms: C_25  and  C_30
REMARK   11  A    between atoms: C_27  and  S_28
REMARK   12  A    between atoms: S_28  and  C_29
REMARK                            x       y       z     vdW  Elec       q    Type
REMARK                         _______ _______ _______ _____ _____    ______ ____
ROOT
ATOM      1  C   UNL     1       9.838   0.873   0.405  0.00  0.00    +0.405 C 
ATOM      2  O   UNL     1       9.593   1.935   0.940  0.00  0.00    -0.226 OA
ATOM      3  N   UNL     1       8.834   0.117  -0.083  0.00  0.00    -0.251 N 
ATOM      4  C   UNL     1       7.526   0.604  -0.073  0.00  0.00    +0.040 A 
ATOM      5  C   UNL     1       6.461  -0.277   0.116  0.00  0.00    +0.024 A 
ATOM      6  C   UNL     1       5.177   0.184   0.127  0.00  0.00    +0.014 A 
ATOM      7  C   UNL     1       4.927   1.551  -0.046  0.00  0.00    +0.024 A 
ATOM      8  C   UNL     1       3.558   2.072  -0.044  0.00  0.00    +0.007 A 
ATOM      9  C   UNL     1       3.380   3.407  -0.223  0.00  0.00    +0.095 A 
ATOM     10  C   UNL     1       4.498   4.246  -0.408  0.00  0.00    +0.285 A 
ATOM     11  O   UNL     1       5.750   3.761  -0.414  0.00  0.00    -0.425 OA
ATOM     12  C   UNL     1       5.997   2.444  -0.242  0.00  0.00    +0.141 A 
ATOM     13  C   UNL     1       7.295   1.960  -0.251  0.00  0.00    +0.070 A 
ATOM     14  H   UNL     1       9.045  -0.883  -0.488  0.00  0.00    +0.158 HD
ENDROOT
BRANCH  10  15
ATOM     15  O   UNL     1       4.324   5.441  -0.567  0.00  0.00    -0.480 OA
ATOM     16  H   UNL     1       5.187   6.107  -0.712  0.00  0.00    +0.295 HD
ENDBRANCH  10  15
BRANCH   1  17
ATOM     17  O   UNL     1      11.111   0.449   0.299  0.00  0.00    -0.450 OA
BRANCH  17  19
ATOM     18  C   UNL     1      13.513   0.671   0.634  0.00  0.00    +0.048 C 
ATOM     19  C   UNL     1      12.141   1.314   0.846  0.00  0.00    +0.230 C 
ENDBRANCH  17  19
ENDBRANCH   1  17
BRANCH   8  20
ATOM     20  C   UNL     1       2.380   1.154   0.156  0.00  0.00    +0.269 C 
BRANCH  20  21
ATOM     21  O   UNL     1       1.152   1.927   0.119  0.00  0.00    -0.456 OA
BRANCH  21  22
ATOM     22  C   UNL     1      -0.002   1.251   0.284  0.00  0.00    +0.344 C 
ATOM     23  O   UNL     1       0.017   0.047   0.454  0.00  0.00    -0.245 OA
BRANCH  22  24
ATOM     24  C   UNL     1      -1.285   1.968   0.253  0.00  0.00    +0.112 A 
ATOM     25  C   UNL     1      -1.848   2.487   1.426  0.00  0.00    +0.057 A 
ATOM     26  N   UNL     1      -3.000   3.124   1.357  0.00  0.00    -0.229 NA
ATOM     27  C   UNL     1      -3.632   3.281   0.196  0.00  0.00    +0.197 A 
ATOM     28  N   UNL     1      -3.139   2.807  -0.943  0.00  0.00    -0.218 NA
ATOM     29  C   UNL     1      -1.982   2.157  -0.963  0.00  0.00    +0.115 A 
ATOM     30  C   UNL     1      -1.146   2.319   2.749  0.00  0.00    +0.066 C 
BRANCH  27  31
ATOM     31  C   UNL     1      -4.917   4.001   0.173  0.00  0.00    +0.172 A 
ATOM     32  C   UNL     1      -5.680   4.241  -0.930  0.00  0.00    +0.053 A 
ATOM     33  C   UNL     1      -6.811   4.953  -0.493  0.00  0.00    +0.042 A 
ATOM     34  C   UNL     1      -6.687   5.112   0.842  0.00  0.00    +0.196 A 
ATOM     35  O   UNL     1      -5.546   4.532   1.240  0.00  0.00    -0.460 OA
ENDBRANCH  27  31
BRANCH  29  36
ATOM     36  S   UNL     1      -1.328   1.536  -2.477  0.00  0.00    -0.108 S 
ATOM     37  C   UNL     1      -2.622   2.074  -3.622  0.00  0.00    +0.091 C 
ENDBRANCH  29  36
ENDBRANCH  22  24
ENDBRANCH  21  22
ENDBRANCH  20  21
ENDBRANCH   8  20
TORSDOF 9
