REMARK  Name = ZINC52878735
REMARK  6 active torsions:
REMARK  status: ('A' for Active; 'I' for Inactive)
REMARK    1  A    between atoms: C_1  and  C_2
REMARK    2  A    between atoms: C_2  and  C_3
REMARK    3  A    between atoms: C_2  and  C_9
REMARK    4  A    between atoms: C_2  and  N_12
REMARK    5  A    between atoms: C_13  and  C_15
REMARK    6  A    between atoms: N_19  and  C_20
REMARK                            x       y       z     vdW  Elec       q    Type
REMARK                         _______ _______ _______ _____ _____    ______ ____
ROOT
ATOM      1  C   UNL     1       0.256   0.647  -0.438  0.00  0.00    +0.049 C 
ATOM      2  C   UNL     1      -0.051  -0.849  -0.335  0.00  0.00    +0.159 C 
ENDROOT
BRANCH   2   3
ATOM      3  C   UNL     1       0.610  -1.413   0.897  0.00  0.00    -0.014 A 
ATOM      4  C   UNL     1       0.025  -2.467   1.574  0.00  0.00    +0.006 A 
ATOM      5  C   UNL     1       0.631  -2.984   2.703  0.00  0.00    +0.000 A 
ATOM      6  C   UNL     1       1.822  -2.448   3.156  0.00  0.00    +0.000 A 
ATOM      7  C   UNL     1       2.407  -1.394   2.478  0.00  0.00    +0.000 A 
ATOM      8  C   UNL     1       1.804  -0.880   1.346  0.00  0.00    +0.006 A 
ENDBRANCH   2   3
BRANCH   2   9
ATOM      9  N   UNL     1      -1.500  -1.044  -0.244  0.00  0.00    -0.291 N 
ATOM     10  C   UNL     1      -2.307  -0.558  -1.208  0.00  0.00    +0.262 C 
ATOM     11  O   UNL     1      -1.827  -0.043  -2.201  0.00  0.00    -0.269 OA
ATOM     12  H   UNL     1      -1.879  -1.524   0.509  0.00  0.00    +0.150 HD
BRANCH  10  13
ATOM     13  C   UNL     1      -3.763  -0.650  -1.060  0.00  0.00    +0.106 A 
ATOM     14  C   UNL     1      -4.441  -1.227  -0.007  0.00  0.00    +0.052 A 
ATOM     15  C   UNL     1      -5.807  -1.092  -0.274  0.00  0.00    +0.059 A 
ATOM     16  C   UNL     1      -5.938  -0.449  -1.459  0.00  0.00    +0.106 A 
ATOM     17  N   UNL     1      -4.702  -0.170  -1.945  0.00  0.00    -0.345 N 
ATOM     18  C   UNL     1      -4.415   0.523  -3.203  0.00  0.00    +0.149 C 
ATOM     19 CL   UNL     1      -7.106  -1.650   0.735  0.00  0.00    -0.082 Cl
ENDBRANCH  10  13
ENDBRANCH   2   9
BRANCH   2  20
ATOM     20  C   UNL     1       0.476  -1.556  -1.556  0.00  0.00    +0.383 C 
ATOM     21  O   UNL     1       1.667  -1.517  -1.817  0.00  0.00    -0.244 OA
ATOM     22  O   UNL     1      -0.287  -2.167  -2.284  0.00  0.00    -0.244 OA
ENDBRANCH   2  20
TORSDOF 4
