REMARK  Name = ZINC16450654
REMARK  6 active torsions:
REMARK  status: ('A' for Active; 'I' for Inactive)
REMARK    1  A    between atoms: C_4  and  C_21
REMARK    2  A    between atoms: C_5  and  C_7
REMARK    3  A    between atoms: C_10  and  C_12
REMARK    4  A    between atoms: C_15  and  N_18
REMARK    5  A    between atoms: C_24  and  C_26
REMARK    6  A    between atoms: C_29  and  N_32
REMARK                            x       y       z     vdW  Elec       q    Type
REMARK                         _______ _______ _______ _____ _____    ______ ____
ROOT
ATOM      1  C   UNL     1       0.027   1.080  -0.085  0.00  0.00    +0.001 A 
ATOM      2  C   UNL     1       1.168   1.795   0.244  0.00  0.00    +0.001 A 
ATOM      3  C   UNL     1       1.127   3.170   0.346  0.00  0.00    +0.014 A 
ATOM      4  C   UNL     1      -0.070   3.851   0.118  0.00  0.00    +0.051 A 
ATOM      5  C   UNL     1      -1.230   3.124  -0.217  0.00  0.00    +0.051 A 
ATOM      6  C   UNL     1      -1.165   1.734  -0.320  0.00  0.00    +0.014 A 
ENDROOT
BRANCH   5   7
ATOM      7  C   UNL     1      -2.502   3.828  -0.461  0.00  0.00    +0.249 A 
ATOM      8  N   UNL     1      -2.700   4.803  -1.321  0.00  0.00    -0.107 NA
ATOM      9  N   UNL     1      -3.930   5.175  -1.270  0.00  0.00    -0.107 NA
ATOM     10  C   UNL     1      -4.565   4.460  -0.368  0.00  0.00    +0.249 A 
ATOM     11  O   UNL     1      -3.676   3.594   0.161  0.00  0.00    -0.416 OA
BRANCH  10  12
ATOM     12  C   UNL     1      -5.991   4.581  -0.002  0.00  0.00    +0.039 A 
ATOM     13  C   UNL     1      -6.538   3.747   0.975  0.00  0.00    +0.015 A 
ATOM     14  C   UNL     1      -7.869   3.869   1.316  0.00  0.00    +0.033 A 
ATOM     15  C   UNL     1      -8.665   4.809   0.684  0.00  0.00    +0.126 A 
ATOM     16  C   UNL     1      -8.131   5.635  -0.289  0.00  0.00    +0.033 A 
ATOM     17  C   UNL     1      -6.800   5.527  -0.636  0.00  0.00    +0.015 A 
BRANCH  15  18
ATOM     18  N   UNL     1     -10.093   4.930   1.051  0.00  0.00    +0.056 N 
ATOM     19  O   UNL     1     -10.796   5.756   0.497  0.00  0.00    -0.126 OA
ATOM     20  O   UNL     1     -10.566   4.205   1.907  0.00  0.00    -0.126 OA
ENDBRANCH  15  18
ENDBRANCH  10  12
ENDBRANCH   5   7
BRANCH   4  21
ATOM     21  C   UNL     1      -0.120   5.321   0.226  0.00  0.00    +0.249 A 
ATOM     22  N   UNL     1      -1.196   6.071   0.142  0.00  0.00    -0.107 NA
ATOM     23  N   UNL     1      -0.868   7.306   0.286  0.00  0.00    -0.107 NA
ATOM     24  C   UNL     1       0.432   7.395   0.458  0.00  0.00    +0.249 A 
ATOM     25  O   UNL     1       0.931   6.143   0.423  0.00  0.00    -0.416 OA
BRANCH  24  26
ATOM     26  C   UNL     1       1.205   8.639   0.653  0.00  0.00    +0.039 A 
ATOM     27  C   UNL     1       2.589   8.584   0.830  0.00  0.00    +0.015 A 
ATOM     28  C   UNL     1       3.305   9.750   1.007  0.00  0.00    +0.033 A 
ATOM     29  C   UNL     1       2.654  10.971   1.019  0.00  0.00    +0.126 A 
ATOM     30  C   UNL     1       1.282  11.032   0.849  0.00  0.00    +0.033 A 
ATOM     31  C   UNL     1       0.554   9.874   0.666  0.00  0.00    +0.015 A 
BRANCH  29  32
ATOM     32  N   UNL     1       3.428  12.217   1.214  0.00  0.00    +0.056 N 
ATOM     33  O   UNL     1       2.858  13.293   1.226  0.00  0.00    -0.126 OA
ATOM     34  O   UNL     1       4.636  12.166   1.364  0.00  0.00    -0.126 OA
ENDBRANCH  29  32
ENDBRANCH  24  26
ENDBRANCH   4  21
TORSDOF 6
