REMARK  Name = ZINC53041650
REMARK  7 active torsions:
REMARK  status: ('A' for Active; 'I' for Inactive)
REMARK    1  A    between atoms: C_1  and  C_2
REMARK    2  A    between atoms: C_5  and  C_7
REMARK    3  A    between atoms: C_7  and  N_8
REMARK    4  A    between atoms: C_9  and  C_17
REMARK    5  A    between atoms: C_10  and  C_16
REMARK    6  A    between atoms: C_11  and  C_14
REMARK    7  A    between atoms: C_12  and  N_13
REMARK                            x       y       z     vdW  Elec       q    Type
REMARK                         _______ _______ _______ _____ _____    ______ ____
ROOT
ATOM      1  N   UNL     1       1.983  -3.620  -1.407  0.00  0.00    -0.325 N 
ATOM      2  C   UNL     1       1.262  -4.519  -2.150  0.00  0.00    +0.022 A 
ATOM      3  C   UNL     1       1.808  -4.625  -3.372  0.00  0.00    -0.011 A 
ATOM      4  C   UNL     1       2.965  -3.719  -3.397  0.00  0.00    +0.094 A 
ATOM      5  C   UNL     1       3.010  -3.122  -2.143  0.00  0.00    +0.115 A 
ATOM      6  C   UNL     1       1.329  -5.503  -4.498  0.00  0.00    +0.047 C 
ATOM      7  C   UNL     1       0.047  -5.271  -1.671  0.00  0.00    +0.064 C 
ENDROOT
BRANCH   5   8
ATOM      8  N   UNL     1       3.939  -2.190  -1.718  0.00  0.00    -0.343 N 
ATOM      9  H   UNL     1       3.889  -1.831  -0.819  0.00  0.00    +0.144 HD
ATOM     10  H   UNL     1       4.640  -1.895  -2.320  0.00  0.00    +0.144 HD
ENDBRANCH   5   8
BRANCH   4  11
ATOM     11  C   UNL     1       3.860  -3.494  -4.492  0.00  0.00    +0.103 C 
ATOM     12  N   UNL     1       4.570  -3.315  -5.360  0.00  0.00    -0.191 NA
ENDBRANCH   4  11
BRANCH   1  13
ATOM     13  C   UNL     1       1.684  -3.245  -0.023  0.00  0.00    +0.197 C 
BRANCH  13  18
ATOM     14  C   UNL     1      -0.018   1.503   0.010  0.00  0.00    +0.086 C 
ATOM     15  C   UNL     1       0.002  -0.004   0.002  0.00  0.00    +0.102 A 
ATOM     16  C   UNL     1      -1.078  -0.805   0.003  0.00  0.00    +0.045 A 
ATOM     17  C   UNL     1      -0.601  -2.136  -0.007  0.00  0.00    +0.047 A 
ATOM     18  C   UNL     1       0.742  -2.069  -0.013  0.00  0.00    +0.125 A 
ATOM     19  O   UNL     1       1.102  -0.775  -0.013  0.00  0.00    -0.463 OA
ENDBRANCH  13  18
ENDBRANCH   1  13
TORSDOF 4
