REMARK  Name = ZINC13526826
REMARK  10 active torsions:
REMARK  status: ('A' for Active; 'I' for Inactive)
REMARK    1  A    between atoms: C_1  and  C_2
REMARK    2  A    between atoms: C_2  and  C_4
REMARK    3  A    between atoms: C_2  and  O_10
REMARK    4  A    between atoms: O_10  and  C_11
REMARK    5  A    between atoms: C_11  and  C_13
REMARK    6  A    between atoms: C_24  and  C_34
REMARK    7  A    between atoms: C_28  and  C_29
REMARK    8  A    between atoms: C_34  and  C_35
REMARK    9  A    between atoms: C_34  and  C_36
REMARK   10  A    between atoms: C_34  and  C_37
REMARK                            x       y       z     vdW  Elec       q    Type
REMARK                         _______ _______ _______ _____ _____    ______ ____
ROOT
ATOM      1  C   UNL     1      -0.373   5.821   1.250  0.00  0.00    +0.073 A 
ATOM      2  C   UNL     1      -0.092   6.586   0.034  0.00  0.00    +0.015 A 
ATOM      3  C   UNL     1       0.787   6.109  -0.944  0.00  0.00    +0.011 A 
ATOM      4  C   UNL     1       1.021   6.856  -2.061  0.00  0.00    +0.001 A 
ATOM      5  C   UNL     1       0.396   8.088  -2.240  0.00  0.00    +0.002 A 
ATOM      6  C   UNL     1      -0.473   8.576  -1.314  0.00  0.00    +0.028 A 
ATOM      7  C   UNL     1      -0.736   7.836  -0.146  0.00  0.00    +0.072 A 
ATOM      8  N   UNL     1      -1.571   8.294   0.787  0.00  0.00    -0.247 NA
ATOM      9  C   UNL     1      -1.840   7.623   1.896  0.00  0.00    +0.072 A 
ATOM     10  C   UNL     1      -1.254   6.373   2.169  0.00  0.00    -0.007 A 
ATOM     11  C   UNL     1      -1.552   5.616   3.433  0.00  0.00    +0.042 C 
ATOM     12  C   UNL     1      -2.883   6.052   4.040  0.00  0.00    +0.003 C 
ATOM     13  C   UNL     1      -2.876   7.573   4.237  0.00  0.00    +0.041 C 
ATOM     14  C   UNL     1      -2.787   8.209   2.866  0.00  0.00    -0.020 C 
ATOM     15  C   UNL     1      -3.546   9.277   2.542  0.00  0.00    +0.020 C 
ENDROOT
BRANCH  15  16
ATOM     16  C   UNL     1      -4.312   9.972   3.578  0.00  0.00    +0.013 A 
ATOM     17  C   UNL     1      -5.249  10.985   3.441  0.00  0.00    +0.015 A 
ATOM     18  C   UNL     1      -5.841  11.483   4.575  0.00  0.00    +0.008 A 
ATOM     19  C   UNL     1      -5.494  10.973   5.787  0.00  0.00    +0.046 A 
ATOM     20  S   UNL     1      -4.290   9.730   5.346  0.00  0.00    -0.097 S 
ENDBRANCH  15  16
BRANCH  12  21
ATOM     21  C   UNL     1      -3.079   5.363   5.391  0.00  0.00    -0.034 C 
ATOM     22  C   UNL     1      -1.938   5.753   6.333  0.00  0.00    +0.011 C 
ATOM     23  C   UNL     1      -4.413   5.801   5.998  0.00  0.00    +0.011 C 
ATOM     24  C   UNL     1      -3.082   3.845   5.195  0.00  0.00    +0.011 C 
ENDBRANCH  12  21
BRANCH   1  25
ATOM     25  C   UNL     1       0.264   4.509   1.492  0.00  0.00    +0.341 C 
ATOM     26  O   UNL     1      -0.278   3.491   1.110  0.00  0.00    -0.245 OA
BRANCH  25  27
ATOM     27  O   UNL     1       1.444   4.443   2.137  0.00  0.00    -0.449 OA
BRANCH  27  29
ATOM     28  C   UNL     1       2.904   2.761   1.151  0.00  0.00    +0.062 C 
ATOM     29  C   UNL     1       2.011   3.121   2.340  0.00  0.00    +0.259 C 
BRANCH  29  30
ATOM     30  C   UNL     1       2.831   3.115   3.605  0.00  0.00    +0.261 C 
ATOM     31  O   UNL     1       3.003   4.145   4.220  0.00  0.00    -0.271 OA
ATOM     32  N   UNL     1       3.373   1.965   4.051  0.00  0.00    -0.237 N 
ATOM     33  C   UNL     1       4.106   1.959   5.182  0.00  0.00    +0.303 C 
ATOM     34  O   UNL     1       4.279   2.992   5.799  0.00  0.00    -0.253 OA
ATOM     35  N   UNL     1       4.648   0.809   5.628  0.00  0.00    -0.313 N 
ATOM     36  H   UNL     1       3.235   1.141   3.558  0.00  0.00    +0.159 HD
ATOM     37  H   UNL     1       4.510  -0.015   5.135  0.00  0.00    +0.146 HD
ATOM     38  H   UNL     1       5.176   0.805   6.442  0.00  0.00    +0.146 HD
ENDBRANCH  29  30
ENDBRANCH  27  29
ENDBRANCH  25  27
ENDBRANCH   1  25
TORSDOF 6
