REMARK  Name = ZINC01371265
REMARK  7 active torsions:
REMARK  status: ('A' for Active; 'I' for Inactive)
REMARK    1  A    between atoms: C_1  and  C_2
REMARK    2  A    between atoms: C_4  and  C_33
REMARK    3  A    between atoms: C_7  and  C_14
REMARK    4  A    between atoms: C_14  and  N_15
REMARK    5  A    between atoms: N_15  and  C_16
REMARK    6  A    between atoms: C_16  and  C_17
REMARK    7  A    between atoms: N_25  and  C_26
REMARK                            x       y       z     vdW  Elec       q    Type
REMARK                         _______ _______ _______ _____ _____    ______ ____
ROOT
ATOM      1  N   UNL     1      -4.609   1.503  -0.828  0.00  0.00    -0.278 N 
ATOM      2  C   UNL     1      -5.158   0.826   0.200  0.00  0.00    +0.307 C 
ATOM      3  O   UNL     1      -6.264   1.130   0.606  0.00  0.00    -0.252 OA
ATOM      4  N   UNL     1      -4.483  -0.187   0.778  0.00  0.00    -0.267 N 
ATOM      5  H   UNL     1      -3.639  -0.483   0.404  0.00  0.00    +0.156 HD
ENDROOT
BRANCH   4   6
ATOM      6  C   UNL     1      -5.001  -0.812   1.920  0.00  0.00    +0.070 A 
ATOM      7  C   UNL     1      -5.877  -0.128   2.751  0.00  0.00    +0.026 A 
ATOM      8  C   UNL     1      -6.386  -0.747   3.876  0.00  0.00    +0.002 A 
ATOM      9  C   UNL     1      -6.025  -2.048   4.176  0.00  0.00    +0.003 A 
ATOM     10  C   UNL     1      -5.153  -2.733   3.351  0.00  0.00    +0.040 A 
ATOM     11  C   UNL     1      -4.643  -2.122   2.220  0.00  0.00    +0.145 A 
ATOM     12  F   UNL     1      -3.795  -2.793   1.411  0.00  0.00    -0.204 F 
ENDBRANCH   4   6
BRANCH   1  13
ATOM     13  C   UNL     1      -5.343   2.604  -1.456  0.00  0.00    +0.150 C 
BRANCH  13  20
ATOM     14  C   UNL     1     -10.520  -0.277  -6.797  0.00  0.00    +0.044 C 
ATOM     15  C   UNL     1      -9.719   0.256  -5.637  0.00  0.00    -0.048 A 
ATOM     16  C   UNL     1     -10.324   0.407  -4.396  0.00  0.00    +0.007 A 
ATOM     17  C   UNL     1      -9.617   0.888  -3.332  0.00  0.00    -0.041 A 
ATOM     18  C   UNL     1      -8.270   1.231  -3.492  0.00  0.00    +0.002 A 
ATOM     19  C   UNL     1      -7.481   1.746  -2.371  0.00  0.00    +0.020 A 
ATOM     20  C   UNL     1      -6.181   2.067  -2.587  0.00  0.00    +0.035 A 
ATOM     21  C   UNL     1      -5.610   1.896  -3.867  0.00  0.00    +0.254 A 
ATOM     22  O   UNL     1      -4.439   2.186  -4.038  0.00  0.00    -0.268 OA
ATOM     23  N   UNL     1      -6.326   1.420  -4.901  0.00  0.00    -0.322 N 
ATOM     24  H   UNL     1      -5.889   1.311  -5.794  0.00  0.00    +0.169 HD
ATOM     25  C   UNL     1      -7.653   1.079  -4.748  0.00  0.00    +0.050 A 
ATOM     26  C   UNL     1      -8.394   0.587  -5.818  0.00  0.00    +0.029 A 
ATOM     27  C   UNL     1     -10.284   1.048  -1.990  0.00  0.00    +0.044 C 
ENDBRANCH  13  20
ENDBRANCH   1  13
BRANCH   1  28
ATOM     28  C   UNL     1      -3.277   1.137  -1.317  0.00  0.00    +0.141 C 
BRANCH  28  29
ATOM     29  C   UNL     1      -2.217   1.937  -0.557  0.00  0.00    +0.136 C 
ATOM     30  C   UNL     1      -0.823   1.653  -1.149  0.00  0.00    +0.035 C 
ATOM     31  C   UNL     1      -0.010   1.098   0.046  0.00  0.00    +0.031 C 
ATOM     32  C   UNL     1      -0.816   1.624   1.261  0.00  0.00    +0.160 C 
ATOM     33  O   UNL     1      -2.189   1.528   0.820  0.00  0.00    -0.375 OA
ENDBRANCH  28  29
ENDBRANCH   1  28
TORSDOF 5
