REMARK  Name = ZINC15620628
REMARK  11 active torsions:
REMARK  status: ('A' for Active; 'I' for Inactive)
REMARK    1  A    between atoms: C_1  and  C_2
REMARK    2  A    between atoms: C_4  and  C_34
REMARK    3  A    between atoms: C_5  and  N_9
REMARK    4  A    between atoms: C_6  and  C_8
REMARK    5  A    between atoms: C_10  and  C_12
REMARK    6  A    between atoms: C_12  and  N_13
REMARK    7  A    between atoms: C_14  and  C_16
REMARK    8  A    between atoms: C_20  and  S_22
REMARK    9  A    between atoms: S_22  and  N_25
REMARK   10  A    between atoms: N_25  and  C_26
REMARK   11  A    between atoms: C_26  and  C_27
REMARK                            x       y       z     vdW  Elec       q    Type
REMARK                         _______ _______ _______ _____ _____    ______ ____
ROOT
ATOM      1  N   UNL     1      -8.706   5.353  -6.069  0.00  0.00    -0.303 N 
ATOM      2  C   UNL     1      -8.404   5.230  -4.761  0.00  0.00    +0.245 C 
ATOM      3  O   UNL     1      -8.746   6.093  -3.975  0.00  0.00    -0.270 OA
ATOM      4  H   UNL     1      -8.433   4.665  -6.696  0.00  0.00    +0.150 HD
ENDROOT
BRANCH   2   5
ATOM      5  C   UNL     1      -7.659   4.047  -4.282  0.00  0.00    +0.039 A 
ATOM      6  C   UNL     1      -7.266   3.055  -5.182  0.00  0.00    +0.014 A 
ATOM      7  C   UNL     1      -6.571   1.954  -4.729  0.00  0.00    +0.023 A 
ATOM      8  C   UNL     1      -6.262   1.830  -3.384  0.00  0.00    +0.067 A 
ATOM      9  C   UNL     1      -6.649   2.812  -2.487  0.00  0.00    +0.124 A 
ATOM     10  C   UNL     1      -7.350   3.915  -2.927  0.00  0.00    +0.043 A 
ATOM     11 CL   UNL     1      -5.387   0.441  -2.822  0.00  0.00    -0.082 Cl
BRANCH   9  12
ATOM     12  S   UNL     1      -6.253   2.646  -0.778  0.00  0.00    +0.060 S 
ATOM     13  O   UNL     1      -6.801   3.781  -0.122  0.00  0.00    -0.153 OA
ATOM     14  O   UNL     1      -4.871   2.320  -0.711  0.00  0.00    -0.153 OA
BRANCH  12  15
ATOM     15  N   UNL     1      -7.078   1.327  -0.209  0.00  0.00    -0.187 NA
ATOM     16  H   UNL     1      -7.771   1.440   0.460  0.00  0.00    +0.148 HD
BRANCH  15  17
ATOM     17  C   UNL     1      -6.761  -0.010  -0.717  0.00  0.00    +0.137 C 
BRANCH  17  18
ATOM     18  C   UNL     1      -7.372  -1.065   0.207  0.00  0.00    +0.134 C 
ATOM     19  C   UNL     1      -7.050  -2.484  -0.310  0.00  0.00    +0.035 C 
ATOM     20  C   UNL     1      -6.814  -3.307   0.976  0.00  0.00    +0.031 C 
ATOM     21  C   UNL     1      -7.018  -2.289   2.120  0.00  0.00    +0.160 C 
ATOM     22  O   UNL     1      -6.762  -1.001   1.515  0.00  0.00    -0.375 OA
ENDBRANCH  17  18
ENDBRANCH  15  17
ENDBRANCH  12  15
ENDBRANCH   9  12
ENDBRANCH   2   5
BRANCH   1  23
ATOM     23  C   UNL     1      -9.444   6.525  -6.543  0.00  0.00    +0.200 C 
BRANCH  23  25
ATOM     24  N   UNL     1     -10.311   7.393  -8.692  0.00  0.00    -0.284 N 
ATOM     25  C   UNL     1      -9.651   6.420  -8.033  0.00  0.00    +0.234 C 
ATOM     26  O   UNL     1      -9.223   5.460  -8.638  0.00  0.00    -0.274 OA
ATOM     27  H   UNL     1     -10.698   8.134  -8.201  0.00  0.00    +0.155 HD
BRANCH  24  32
ATOM     28  C   UNL     1     -10.820   7.151 -14.337  0.00  0.00    +0.044 C 
ATOM     29  C   UNL     1     -10.685   7.215 -12.837  0.00  0.00    -0.050 A 
ATOM     30  C   UNL     1     -11.808   7.392 -12.050  0.00  0.00    +0.008 A 
ATOM     31  C   UNL     1     -11.687   7.451 -10.676  0.00  0.00    -0.029 A 
ATOM     32  C   UNL     1     -10.436   7.333 -10.084  0.00  0.00    +0.039 A 
ATOM     33  C   UNL     1      -9.310   7.161 -10.878  0.00  0.00    -0.029 A 
ATOM     34  C   UNL     1      -9.438   7.097 -12.252  0.00  0.00    +0.008 A 
ATOM     35  C   UNL     1      -7.950   7.039 -10.241  0.00  0.00    +0.045 C 
ATOM     36  C   UNL     1     -12.912   7.644  -9.819  0.00  0.00    +0.045 C 
ENDBRANCH  24  32
ENDBRANCH  23  25
ENDBRANCH   1  23
TORSDOF 8
