REMARK  Name = ZINC48331279
REMARK  8 active torsions:
REMARK  status: ('A' for Active; 'I' for Inactive)
REMARK    1  A    between atoms: C_1  and  N_2
REMARK    2  A    between atoms: N_2  and  C_3
REMARK    3  A    between atoms: N_2  and  C_14
REMARK    4  A    between atoms: C_3  and  C_4
REMARK    5  A    between atoms: C_4  and  O_5
REMARK    6  A    between atoms: O_5  and  C_6
REMARK    7  A    between atoms: C_10  and  C_12
REMARK    8  A    between atoms: C_14  and  C_15
REMARK                            x       y       z     vdW  Elec       q    Type
REMARK                         _______ _______ _______ _____ _____    ______ ____
ROOT
ATOM      1  C   UNL     1       0.706  -0.527   1.180  0.00  0.00    +0.125 C 
ENDROOT
BRANCH   1   3
ATOM      2  C   UNL     1      -0.018   1.465   0.010  0.00  0.00    +0.105 C 
ATOM      3  N   UNL     1       0.002  -0.004   0.002  0.00  0.00    -0.297 NA
BRANCH   3   4
ATOM      4  C   UNL     1       0.600  -0.516  -1.239  0.00  0.00    +0.126 C 
BRANCH   4   5
ATOM      5  C   UNL     1      -0.286  -0.163  -2.406  0.00  0.00    +0.005 A 
ATOM      6  C   UNL     1      -0.262   0.941  -3.192  0.00  0.00    +0.014 A 
ATOM      7  C   UNL     1      -1.183   1.054  -4.218  0.00  0.00    +0.028 A 
ATOM      8  C   UNL     1      -2.082   0.056  -4.406  0.00  0.00    +0.078 A 
ATOM      9  S   UNL     1      -1.634  -1.093  -3.115  0.00  0.00    -0.080 S 
ATOM     10 CL   UNL     1      -3.338  -0.073  -5.597  0.00  0.00    -0.076 Cl
ENDBRANCH   4   5
ENDBRANCH   3   4
ENDBRANCH   1   3
BRANCH   1  11
ATOM     11  C   UNL     1      -0.085  -0.181   2.443  0.00  0.00    +0.244 C 
BRANCH  11  12
ATOM     12  O   UNL     1      -1.341  -0.862   2.420  0.00  0.00    -0.491 OA
BRANCH  12  13
ATOM     13  C   UNL     1      -2.172  -0.661   3.477  0.00  0.00    +0.122 A 
ATOM     14  C   UNL     1      -1.786   0.179   4.512  0.00  0.00    +0.046 A 
ATOM     15  C   UNL     1      -2.627   0.388   5.590  0.00  0.00    +0.005 A 
ATOM     16  C   UNL     1      -3.855  -0.239   5.644  0.00  0.00    +0.019 A 
ATOM     17  C   UNL     1      -4.252  -1.086   4.607  0.00  0.00    +0.055 A 
ATOM     18  C   UNL     1      -3.404  -1.291   3.518  0.00  0.00    +0.064 A 
BRANCH  17  19
ATOM     19  C   UNL     1      -5.525  -1.738   4.660  0.00  0.00    +0.099 C 
ATOM     20  N   UNL     1      -6.536  -2.256   4.702  0.00  0.00    -0.191 NA
ENDBRANCH  17  19
ENDBRANCH  12  13
ENDBRANCH  11  12
ENDBRANCH   1  11
TORSDOF 7
