REMARK  Name = ZINC62766424
REMARK  3 active torsions:
REMARK  status: ('A' for Active; 'I' for Inactive)
REMARK    1  A    between atoms: C_7  and  S_11
REMARK    2  A    between atoms: S_11  and  C_12
REMARK    3  A    between atoms: C_19  and  C_21
REMARK                            x       y       z     vdW  Elec       q    Type
REMARK                         _______ _______ _______ _____ _____    ______ ____
ROOT
ATOM      1  S   UNL     1      -3.000   4.681   0.407  0.00  0.00    -0.100 S 
ENDROOT
BRANCH   1   8
ATOM      2  C   UNL     1       0.392   1.587   0.957  0.00  0.00    +0.199 A 
ATOM      3  N   UNL     1       1.375   2.442   0.999  0.00  0.00    -0.216 NA
ATOM      4  H   UNL     1      -1.661   1.831   0.723  0.00  0.00    +0.167 HD
ATOM      5  C   UNL     1       0.897   3.694   0.867  0.00  0.00    +0.182 A 
ATOM      6  C   UNL     1      -0.497   3.585   0.733  0.00  0.00    +0.117 A 
ATOM      7  N   UNL     1      -0.782   2.237   0.789  0.00  0.00    -0.341 N 
ATOM      8  C   UNL     1      -1.248   4.752   0.580  0.00  0.00    +0.126 A 
ATOM      9  N   UNL     1      -0.610   5.921   0.566  0.00  0.00    -0.227 NA
ATOM     10  C   UNL     1       0.703   5.982   0.694  0.00  0.00    +0.224 A 
ATOM     11  N   UNL     1       1.450   4.910   0.841  0.00  0.00    -0.214 NA
ENDBRANCH   1   8
BRANCH   1  12
ATOM     12  C   UNL     1      -3.496   6.418   0.241  0.00  0.00    +0.067 C 
ATOM     13  C   UNL     1      -3.150   7.146   1.512  0.00  0.00    +0.015 C 
ATOM     14  C   UNL     1      -2.724   8.584   1.152  0.00  0.00    +0.001 C 
ATOM     15  C   UNL     1      -3.863   9.456   0.907  0.00  0.00    +0.000 C 
ATOM     16  C   UNL     1      -4.718   8.985  -0.287  0.00  0.00    +0.001 C 
ATOM     17  C   UNL     1      -5.613   7.868   0.176  0.00  0.00    +0.016 C 
ATOM     18  C   UNL     1      -5.001   6.478  -0.080  0.00  0.00    +0.115 C 
BRANCH  18  19
ATOM     19  C   UNL     1      -5.721   5.464   0.773  0.00  0.00    +0.360 C 
ATOM     20  O   UNL     1      -5.757   5.602   1.984  0.00  0.00    -0.246 OA
ATOM     21  O   UNL     1      -6.267   4.507   0.252  0.00  0.00    -0.246 OA
ENDBRANCH  18  19
ENDBRANCH   1  12
TORSDOF 3
