REMARK  Name = ZINC36497048
REMARK  3 active torsions:
REMARK  status: ('A' for Active; 'I' for Inactive)
REMARK    1  A    between atoms: C_3  and  N_25
REMARK    2  A    between atoms: C_6  and  C_7
REMARK    3  A    between atoms: N_17  and  C_18
REMARK                            x       y       z     vdW  Elec       q    Type
REMARK                         _______ _______ _______ _____ _____    ______ ____
ROOT
ATOM      1  C   UNL     1      -1.166  -0.721  -0.185  0.00  0.00    +0.184 C 
ATOM      2  N   UNL     1      -1.149  -1.967  -0.980  0.00  0.00    -0.269 NA
ATOM      3  C   UNL     1      -0.471  -1.729  -2.277  0.00  0.00    +0.087 C 
ATOM      4  C   UNL     1      -1.165  -2.732  -3.232  0.00  0.00    +0.017 C 
ATOM      5  C   UNL     1      -2.636  -2.700  -2.759  0.00  0.00    +0.029 C 
ATOM      6  C   UNL     1      -2.585  -2.183  -1.310  0.00  0.00    +0.145 C 
ATOM      7  C   UNL     1      -3.204  -0.804  -1.251  0.00  0.00    +0.239 C 
ATOM      8  O   UNL     1      -4.284  -0.494  -1.710  0.00  0.00    -0.273 OA
ATOM      9  N   UNL     1      -2.358   0.024  -0.605  0.00  0.00    -0.250 N 
ENDROOT
BRANCH   9  10
ATOM     10  C   UNL     1      -2.583   1.385  -0.371  0.00  0.00    +0.038 A 
ATOM     11  C   UNL     1      -1.698   2.111   0.416  0.00  0.00    +0.025 A 
ATOM     12  C   UNL     1      -1.922   3.454   0.645  0.00  0.00    +0.022 A 
ATOM     13  C   UNL     1      -3.026   4.077   0.091  0.00  0.00    +0.041 A 
ATOM     14  C   UNL     1      -3.909   3.357  -0.694  0.00  0.00    +0.022 A 
ATOM     15  C   UNL     1      -3.687   2.014  -0.931  0.00  0.00    +0.025 A 
ATOM     16 CL   UNL     1      -3.305   5.766   0.381  0.00  0.00    -0.084 Cl
ENDBRANCH   9  10
BRANCH   1  22
ATOM     17  C   UNL     1       0.106   0.954  -1.543  0.00  0.00    +0.009 A 
ATOM     18  C   UNL     1       1.244   1.696  -1.800  0.00  0.00    +0.033 A 
ATOM     19  C   UNL     1       2.349   1.572  -0.980  0.00  0.00    +0.126 A 
ATOM     20  C   UNL     1       2.318   0.707   0.098  0.00  0.00    +0.033 A 
ATOM     21  C   UNL     1       1.180  -0.035   0.355  0.00  0.00    +0.009 A 
ATOM     22  C   UNL     1       0.074   0.088  -0.465  0.00  0.00    -0.012 A 
BRANCH  19  23
ATOM     23  N   UNL     1       3.568   2.366  -1.256  0.00  0.00    +0.056 N 
ATOM     24  O   UNL     1       3.596   3.122  -2.199  0.00  0.00    -0.126 OA
ATOM     25  O   UNL     1       4.535   2.258  -0.539  0.00  0.00    -0.126 OA
ENDBRANCH  19  23
ENDBRANCH   1  22
TORSDOF 3
