REMARK  Name = ZINC13800328
REMARK  7 active torsions:
REMARK  status: ('A' for Active; 'I' for Inactive)
REMARK    1  A    between atoms: C_3  and  C_9
REMARK    2  A    between atoms: C_5  and  C_7
REMARK    3  A    between atoms: C_9  and  N_10
REMARK    4  A    between atoms: C_13  and  N_17
REMARK    5  A    between atoms: N_17  and  S_18
REMARK    6  A    between atoms: S_18  and  C_21
REMARK    7  A    between atoms: C_24  and  C_27
REMARK                            x       y       z     vdW  Elec       q    Type
REMARK                         _______ _______ _______ _____ _____    ______ ____
ROOT
ATOM      1  N   UNL     1      -2.510   2.451   1.693  0.00  0.00    -0.296 N 
ATOM      2  C   UNL     1      -2.790   2.067   0.304  0.00  0.00    +0.110 C 
ATOM      3  C   UNL     1      -1.877   2.961  -0.564  0.00  0.00    +0.049 C 
ATOM      4  C   UNL     1      -0.728   3.285   0.419  0.00  0.00    +0.164 C 
ATOM      5  C   UNL     1      -1.355   3.132   1.787  0.00  0.00    +0.235 C 
ATOM      6  O   UNL     1      -0.883   3.560   2.819  0.00  0.00    -0.274 OA
ENDROOT
BRANCH   4   7
ATOM      7  N   UNL     1       0.374   2.334   0.250  0.00  0.00    -0.178 NA
ATOM      8  H   UNL     1       0.186   1.409   0.028  0.00  0.00    +0.149 HD
BRANCH   7   9
ATOM      9  S   UNL     1       1.940   2.840   0.433  0.00  0.00    +0.059 S 
ATOM     10  O   UNL     1       2.762   1.699   0.231  0.00  0.00    -0.153 OA
ATOM     11  O   UNL     1       2.077   4.025  -0.340  0.00  0.00    -0.153 OA
BRANCH   9  12
ATOM     12  C   UNL     1       2.141   3.313   2.119  0.00  0.00    +0.105 A 
ATOM     13  C   UNL     1       1.895   4.619   2.502  0.00  0.00    +0.029 A 
ATOM     14  C   UNL     1       2.046   4.993   3.822  0.00  0.00    +0.010 A 
ATOM     15  C   UNL     1       2.458   4.056   4.767  0.00  0.00    -0.018 A 
ATOM     16  C   UNL     1       2.710   2.742   4.374  0.00  0.00    +0.010 A 
ATOM     17  C   UNL     1       2.550   2.377   3.053  0.00  0.00    +0.029 A 
BRANCH  15  18
ATOM     18  C   UNL     1       2.629   4.454   6.186  0.00  0.00    -0.015 A 
ATOM     19  C   UNL     1       3.037   3.525   7.148  0.00  0.00    +0.028 A 
ATOM     20  C   UNL     1       3.188   3.939   8.455  0.00  0.00    +0.111 A 
ATOM     21  N   UNL     1       2.944   5.188   8.803  0.00  0.00    -0.263 NA
ATOM     22  C   UNL     1       2.553   6.094   7.927  0.00  0.00    +0.111 A 
ATOM     23  C   UNL     1       2.382   5.766   6.598  0.00  0.00    +0.028 A 
ENDBRANCH  15  18
ENDBRANCH   9  12
ENDBRANCH   7   9
ENDBRANCH   4   7
BRANCH   1  24
ATOM     24  C   UNL     1      -3.378   2.134   2.830  0.00  0.00    +0.143 C 
BRANCH  24  27
ATOM     25  C   UNL     1      -3.184  -1.583   3.479  0.00  0.00    +0.001 A 
ATOM     26  C   UNL     1      -3.554  -0.360   2.950  0.00  0.00    +0.005 A 
ATOM     27  C   UNL     1      -2.973   0.806   3.416  0.00  0.00    -0.029 A 
ATOM     28  C   UNL     1      -2.027   0.756   4.419  0.00  0.00    +0.016 A 
ATOM     29  C   UNL     1      -1.653  -0.474   4.960  0.00  0.00    +0.012 A 
ATOM     30  C   UNL     1      -2.239  -1.647   4.483  0.00  0.00    +0.011 A 
BRANCH  29  31
ATOM     31  C   UNL     1      -0.639  -0.535   6.038  0.00  0.00    +0.094 C 
ATOM     32  N   UNL     1      -0.272  -1.752   6.570  0.00  0.00    -0.345 N 
ATOM     33  H   UNL     1       0.579   0.625   7.185  0.00  0.00    +0.157 HD
ATOM     34  H   UNL     1      -0.678  -2.568   6.239  0.00  0.00    +0.144 HD
ATOM     35  H   UNL     1       0.392  -1.791   7.276  0.00  0.00    +0.144 HD
ATOM     36  N   UNL     1      -0.123   0.614   6.445  0.00  0.00    -0.387 N 
ATOM     37  H   UNL     1      -0.430   1.495   6.016  0.00  0.00    +0.157 HD
ENDBRANCH  29  31
ENDBRANCH  24  27
ENDBRANCH   1  24
TORSDOF 7
