REMARK  Name = ZINC57416046
REMARK  8 active torsions:
REMARK  status: ('A' for Active; 'I' for Inactive)
REMARK    1  A    between atoms: C_1  and  C_2
REMARK    2  A    between atoms: C_7  and  N_8
REMARK    3  A    between atoms: N_11  and  C_14
REMARK    4  A    between atoms: C_14  and  C_15
REMARK    5  A    between atoms: C_16  and  C_28
REMARK    6  A    between atoms: C_17  and  C_23
REMARK    7  A    between atoms: C_28  and  O_30
REMARK    8  A    between atoms: O_30  and  C_31
REMARK                            x       y       z     vdW  Elec       q    Type
REMARK                         _______ _______ _______ _____ _____    ______ ____
ROOT
ATOM      1  C   UNL     1       1.065   3.825   5.708  0.00  0.00    +0.038 C 
ATOM      2  C   UNL     1       2.165   4.499   5.309  0.00  0.00    +0.080 C 
ATOM      3  C   UNL     1       3.341   4.556   6.264  0.00  0.00    +0.150 C 
ATOM      4  N   UNL     1       3.185   3.867   7.556  0.00  0.00    -0.288 N 
ATOM      5  C   UNL     1       2.022   3.236   7.810  0.00  0.00    +0.304 C 
ATOM      6  O   UNL     1       1.884   2.664   8.874  0.00  0.00    -0.252 OA
ATOM      7  N   UNL     1       1.012   3.222   6.931  0.00  0.00    -0.271 N 
ATOM      8  H   UNL     1       3.903   3.868   8.209  0.00  0.00    +0.151 HD
ATOM      9  H   UNL     1       0.199   2.753   7.176  0.00  0.00    +0.156 HD
ENDROOT
BRANCH   3  10
ATOM     10  C   UNL     1       3.642   6.006   6.544  0.00  0.00    +0.015 A 
ATOM     11  C   UNL     1       4.599   6.799   6.003  0.00  0.00    +0.013 A 
ATOM     12  C   UNL     1       4.691   8.115   6.415  0.00  0.00    +0.008 A 
ATOM     13  C   UNL     1       3.821   8.573   7.348  0.00  0.00    +0.045 A 
ATOM     14  S   UNL     1       2.826   7.127   7.668  0.00  0.00    -0.099 S 
ENDBRANCH   3  10
BRANCH   2  15
ATOM     15  C   UNL     1       2.219   5.129   4.044  0.00  0.00    +0.339 C 
ATOM     16  O   UNL     1       2.816   4.600   3.126  0.00  0.00    -0.245 OA
BRANCH  15  17
ATOM     17  O   UNL     1       1.608   6.318   3.856  0.00  0.00    -0.465 OA
ATOM     18  C   UNL     1       1.704   6.897   2.553  0.00  0.00    +0.280 C 
ENDBRANCH  15  17
ENDBRANCH   2  15
BRANCH   1  19
ATOM     19  C   UNL     1      -0.127   3.744   4.789  0.00  0.00    +0.136 C 
BRANCH  19  23
ATOM     20  N   UNL     1      -0.754   0.112   2.783  0.00  0.00    -0.327 N 
ATOM     21  C   UNL     1      -1.911   0.702   3.471  0.00  0.00    +0.120 C 
ATOM     22  C   UNL     1      -1.633   2.192   3.700  0.00  0.00    +0.103 C 
ATOM     23  N   UNL     1      -0.350   2.346   4.398  0.00  0.00    -0.294 NA
ATOM     24  C   UNL     1       0.764   1.843   3.583  0.00  0.00    +0.103 C 
ATOM     25  C   UNL     1       0.583   0.335   3.352  0.00  0.00    +0.120 C 
BRANCH  20  32
ATOM     26  C   UNL     1      -0.669   1.458   0.278  0.00  0.00    +0.045 C 
ATOM     27  C   UNL     1      -0.887  -0.030   0.377  0.00  0.00    -0.029 A 
ATOM     28  C   UNL     1      -1.047  -0.783  -0.770  0.00  0.00    +0.005 A 
ATOM     29  C   UNL     1      -1.247  -2.148  -0.680  0.00  0.00    +0.000 A 
ATOM     30  C   UNL     1      -1.288  -2.764   0.558  0.00  0.00    +0.002 A 
ATOM     31  C   UNL     1      -1.128  -2.017   1.708  0.00  0.00    +0.023 A 
ATOM     32  C   UNL     1      -0.921  -0.646   1.621  0.00  0.00    +0.033 A 
ENDBRANCH  20  32
ENDBRANCH  19  23
ENDBRANCH   1  19
TORSDOF 6
