REMARK  Name = ZINC49239471
REMARK  8 active torsions:
REMARK  status: ('A' for Active; 'I' for Inactive)
REMARK    1  A    between atoms: C_1  and  C_2
REMARK    2  A    between atoms: C_2  and  C_4
REMARK    3  A    between atoms: C_2  and  O_22
REMARK    4  A    between atoms: C_8  and  S_10
REMARK    5  A    between atoms: S_10  and  N_13
REMARK    6  A    between atoms: C_16  and  C_19
REMARK    7  A    between atoms: C_19  and  C_20
REMARK    8  A    between atoms: C_19  and  C_21
REMARK                            x       y       z     vdW  Elec       q    Type
REMARK                         _______ _______ _______ _____ _____    ______ ____
ROOT
ATOM      1  S   UNL     1      -4.080  -1.775   2.745  0.00  0.00    +0.101 S 
ATOM      2  O   UNL     1      -3.410  -1.038   3.759  0.00  0.00    -0.146 OA
ATOM      3  O   UNL     1      -5.482  -1.680   2.535  0.00  0.00    -0.146 OA
ENDROOT
BRANCH   1   4
ATOM      4  N   UNL     1      -3.750  -3.373   3.025  0.00  0.00    -0.103 NA
ATOM      5  C   UNL     1      -4.207  -3.957   4.105  0.00  0.00    +0.192 A 
ATOM      6  N   UNL     1      -4.048  -5.259   4.529  0.00  0.00    -0.336 N 
ATOM      7  C   UNL     1      -4.628  -5.636   5.705  0.00  0.00    +0.027 A 
ATOM      8  C   UNL     1      -5.330  -4.757   6.418  0.00  0.00    +0.070 A 
ATOM      9  S   UNL     1      -5.199  -3.278   5.427  0.00  0.00    -0.057 S 
ATOM     10  H   UNL     1      -3.535  -5.893   4.003  0.00  0.00    +0.168 HD
BRANCH   7  11
ATOM     11  C   UNL     1      -4.473  -7.052   6.198  0.00  0.00    +0.030 C 
ATOM     12  C   UNL     1      -5.061  -8.018   5.167  0.00  0.00    +0.013 C 
ATOM     13  C   UNL     1      -2.989  -7.363   6.400  0.00  0.00    +0.013 C 
ENDBRANCH   7  11
ENDBRANCH   1   4
BRANCH   1  18
ATOM     14  C   UNL     1      -1.412  -0.526   0.013  0.00  0.00    -0.018 A 
ATOM     15  C   UNL     1      -2.106  -0.666  -1.175  0.00  0.00    +0.006 A 
ATOM     16  C   UNL     1      -3.402  -1.144  -1.165  0.00  0.00    +0.002 A 
ATOM     17  C   UNL     1      -4.005  -1.483   0.032  0.00  0.00    +0.029 A 
ATOM     18  C   UNL     1      -3.311  -1.344   1.219  0.00  0.00    +0.113 A 
ATOM     19  C   UNL     1      -2.013  -0.869   1.209  0.00  0.00    +0.035 A 
BRANCH  14  21
ATOM     20  C   UNL     1      -0.019   1.526   0.010  0.00  0.00    +0.043 C 
ATOM     21  C   UNL     1       0.002  -0.004   0.002  0.00  0.00    +0.141 C 
BRANCH  21  22
ATOM     22  O   UNL     1       0.671  -0.465  -1.174  0.00  0.00    -0.387 OA
ATOM     23  H   UNL     1       1.588  -0.167  -1.247  0.00  0.00    +0.210 HD
ENDBRANCH  21  22
ENDBRANCH  14  21
ENDBRANCH   1  18
TORSDOF 5
