REMARK  Name = ZINC40177834
REMARK  10 active torsions:
REMARK  status: ('A' for Active; 'I' for Inactive)
REMARK    1  A    between atoms: C_1  and  N_2
REMARK    2  A    between atoms: N_2  and  C_3
REMARK    3  A    between atoms: N_2  and  C_4
REMARK    4  A    between atoms: C_4  and  C_5
REMARK    5  A    between atoms: C_5  and  C_6
REMARK    6  A    between atoms: C_6  and  N_7
REMARK    7  A    between atoms: N_7  and  C_8
REMARK    8  A    between atoms: C_9  and  S_20
REMARK    9  A    between atoms: C_11  and  C_13
REMARK   10  A    between atoms: S_20  and  C_23
REMARK                            x       y       z     vdW  Elec       q    Type
REMARK                         _______ _______ _______ _____ _____    ______ ____
ROOT
ATOM      1  C   UNL     1       5.138  -0.478  -3.411  0.00  0.00    +0.233 A 
ATOM      2  C   UNL     1       6.457  -0.175  -3.499  0.00  0.00    +0.243 A 
ATOM      3  N   UNL     1       6.915  -0.680  -4.654  0.00  0.00    -0.188 NA
ATOM      4  C   UNL     1       5.926  -1.278  -5.275  0.00  0.00    +0.231 A 
ATOM      5  O   UNL     1       4.815  -1.171  -4.521  0.00  0.00    -0.420 OA
ENDROOT
BRANCH   4   6
ATOM      6  C   UNL     1       6.018  -1.962  -6.581  0.00  0.00    +0.037 A 
ATOM      7  C   UNL     1       7.236  -2.013  -7.261  0.00  0.00    +0.014 A 
ATOM      8  C   UNL     1       7.314  -2.653  -8.481  0.00  0.00    +0.021 A 
ATOM      9  C   UNL     1       6.189  -3.243  -9.031  0.00  0.00    +0.041 A 
ATOM     10  C   UNL     1       4.978  -3.195  -8.361  0.00  0.00    +0.021 A 
ATOM     11  C   UNL     1       4.887  -2.563  -7.138  0.00  0.00    +0.014 A 
ATOM     12 CL   UNL     1       6.296  -4.045 -10.566  0.00  0.00    -0.084 Cl
ENDBRANCH   4   6
BRANCH   2  13
ATOM     13  S   UNL     1       7.399   0.719  -2.309  0.00  0.00    +0.047 S 
ATOM     14  O   UNL     1       8.505   1.279  -3.005  0.00  0.00    -0.163 OA
ATOM     15  O   UNL     1       6.478   1.515  -1.576  0.00  0.00    -0.163 OA
BRANCH  13  16
ATOM     16  C   UNL     1       8.061  -0.458  -1.177  0.00  0.00    +0.099 A 
ATOM     17  C   UNL     1       7.342  -0.809  -0.049  0.00  0.00    +0.031 A 
ATOM     18  C   UNL     1       7.858  -1.731   0.842  0.00  0.00    +0.051 A 
ATOM     19  C   UNL     1       9.098  -2.307   0.607  0.00  0.00    +0.162 A 
ATOM     20  C   UNL     1       9.819  -1.955  -0.528  0.00  0.00    +0.164 A 
ATOM     21  C   UNL     1       9.294  -1.032  -1.420  0.00  0.00    +0.076 A 
ATOM     22  O   UNL     1      11.034  -2.514  -0.782  0.00  0.00    -0.485 OA
ATOM     23  C   UNL     1      11.689  -3.156   0.316  0.00  0.00    +0.270 C 
ATOM     24  C   UNL     1      10.664  -4.044   1.035  0.00  0.00    +0.270 C 
ATOM     25  O   UNL     1       9.594  -3.210   1.495  0.00  0.00    -0.485 OA
ENDBRANCH  13  16
ENDBRANCH   2  13
BRANCH   1  26
ATOM     26  N   UNL     1       4.282  -0.140  -2.368  0.00  0.00    -0.312 N 
ATOM     27  H   UNL     1       4.615   0.364  -1.610  0.00  0.00    +0.149 HD
BRANCH  26  28
ATOM     28  C   UNL     1       2.875  -0.547  -2.416  0.00  0.00    +0.102 C 
BRANCH  28  29
ATOM     29  C   UNL     1       2.159  -0.053  -1.157  0.00  0.00    +0.000 C 
BRANCH  29  30
ATOM     30  C   UNL     1       0.690  -0.478  -1.207  0.00  0.00    -0.078 C 
BRANCH  30  32
ATOM     31  C   UNL     1      -0.018   1.465   0.010  0.00  0.00    -0.097 C 
ATOM     32  N   UNL     1       0.002  -0.004   0.002  0.00  0.00    +0.376 N 
ATOM     33  C   UNL     1      -1.376  -0.512   0.012  0.00  0.00    -0.097 C 
ATOM     34  H   UNL     1       0.490  -0.338   0.820  0.00  0.00    -0.083 HD
ENDBRANCH  30  32
ENDBRANCH  29  30
ENDBRANCH  28  29
ENDBRANCH  26  28
ENDBRANCH   1  26
TORSDOF 8
