REMARK  Name = ZINC03464789
REMARK  5 active torsions:
REMARK  status: ('A' for Active; 'I' for Inactive)
REMARK    1  A    between atoms: C_1  and  C_2
REMARK    2  A    between atoms: C_7  and  N_8
REMARK    3  A    between atoms: C_9  and  C_11
REMARK    4  A    between atoms: C_11  and  N_12
REMARK    5  A    between atoms: C_20  and  C_22
REMARK                            x       y       z     vdW  Elec       q    Type
REMARK                         _______ _______ _______ _____ _____    ______ ____
ROOT
ATOM      1  N   UNL     1       5.955   2.449  -0.352  0.00  0.00    -0.215 N 
ATOM      2  C   UNL     1       6.630   2.945   0.705  0.00  0.00    +0.247 C 
ATOM      3  O   UNL     1       6.452   2.686   1.876  0.00  0.00    -0.273 OA
ATOM      4  C   UNL     1       7.656   3.890   0.122  0.00  0.00    +0.115 C 
ATOM      5  C   UNL     1       7.421   5.308   0.630  0.00  0.00    +0.035 C 
ATOM      6  C   UNL     1       7.627   5.349   2.147  0.00  0.00    +0.003 C 
ATOM      7  C   UNL     1       9.051   4.900   2.479  0.00  0.00    +0.000 C 
ATOM      8  C   UNL     1       9.266   3.469   1.982  0.00  0.00    +0.006 C 
ATOM      9  C   UNL     1       9.066   3.421   0.465  0.00  0.00    +0.018 C 
ATOM     10  C   UNL     1       9.260   1.986  -0.029  0.00  0.00    +0.010 C 
ATOM     11  N   UNL     1       7.426   3.816  -1.326  0.00  0.00    -0.285 N 
ATOM     12  C   UNL     1       6.416   2.944  -1.507  0.00  0.00    +0.310 C 
ATOM     13  O   UNL     1       5.970   2.644  -2.597  0.00  0.00    -0.252 OA
ATOM     14  H   UNL     1       7.909   4.298  -2.016  0.00  0.00    +0.151 HD
ENDROOT
BRANCH   1  15
ATOM     15  C   UNL     1       4.858   1.483  -0.250  0.00  0.00    +0.214 C 
BRANCH  15  17
ATOM     16  N   UNL     1       2.397   1.533  -0.012  0.00  0.00    -0.284 N 
ATOM     17  C   UNL     1       3.550   2.221  -0.121  0.00  0.00    +0.235 C 
ATOM     18  O   UNL     1       3.536   3.434  -0.115  0.00  0.00    -0.274 OA
ATOM     19  H   UNL     1       2.413   0.565   0.050  0.00  0.00    +0.155 HD
BRANCH  16  26
ATOM     20  C   UNL     1       0.145   0.301  -1.239  0.00  0.00    +0.046 C 
ATOM     21  C   UNL     1       0.051   1.649  -0.574  0.00  0.00    -0.028 A 
ATOM     22  C   UNL     1      -1.153   2.327  -0.551  0.00  0.00    +0.020 A 
ATOM     23  C   UNL     1      -1.241   3.563   0.064  0.00  0.00    +0.018 A 
ATOM     24  C   UNL     1      -0.123   4.128   0.649  0.00  0.00    +0.017 A 
ATOM     25  C   UNL     1       1.084   3.458   0.626  0.00  0.00    +0.024 A 
ATOM     26  C   UNL     1       1.175   2.215   0.013  0.00  0.00    +0.036 A 
ATOM     27 BR   UNL     1      -2.892   4.484   0.098  0.00  0.00    -0.050 Br
ENDBRANCH  16  26
ENDBRANCH  15  17
ENDBRANCH   1  15
TORSDOF 3
