REMARK  Name = ZINC05778107
REMARK  3 active torsions:
REMARK  status: ('A' for Active; 'I' for Inactive)
REMARK    1  A    between atoms: N_9  and  C_12
REMARK    2  A    between atoms: C_12  and  N_14
REMARK    3  A    between atoms: C_15  and  C_17
REMARK                            x       y       z     vdW  Elec       q    Type
REMARK                         _______ _______ _______ _____ _____    ______ ____
ROOT
ATOM      1  C   UNL     1       1.165   2.086  -0.018  0.00  0.00    +0.005 A 
ATOM      2  C   UNL     1       2.349   1.361  -0.034  0.00  0.00    +0.018 A 
ATOM      3  C   UNL     1       2.298  -0.018  -0.038  0.00  0.00    +0.084 A 
ATOM      4  C   UNL     1      -0.010   0.003  -0.012  0.00  0.00    +0.099 A 
ATOM      5  C   UNL     1      -0.033   1.394  -0.007  0.00  0.00    +0.042 A 
ATOM      6  N   UNL     1      -1.206  -0.705   0.000  0.00  0.00    -0.314 N 
ATOM      7  C   UNL     1      -2.039  -0.312   1.144  0.00  0.00    +0.125 C 
ATOM      8  C   UNL     1      -3.415  -0.977   1.022  0.00  0.00    +0.125 C 
ATOM      9  N   UNL     1      -3.221  -2.426   0.862  0.00  0.00    -0.309 N 
ATOM     10  C   UNL     1      -2.291  -2.893  -0.177  0.00  0.00    +0.125 C 
ATOM     11  C   UNL     1      -0.960  -2.154  -0.008  0.00  0.00    +0.125 C 
ATOM     12  N   UNL     1       1.140  -0.731  -0.027  0.00  0.00    -0.350 N 
ATOM     13  H   UNL     1       1.132  -1.758  -0.031  0.00  0.00    +0.166 HD
ENDROOT
BRANCH   9  14
ATOM     14  C   UNL     1      -3.878  -3.303   1.648  0.00  0.00    +0.139 C 
ATOM     15  S   UNL     1      -4.851  -2.734   2.936  0.00  0.00    -0.018 S 
BRANCH  14  16
ATOM     16  N   UNL     1      -3.768  -4.626   1.419  0.00  0.00    -0.264 N 
ATOM     17  C   UNL     1      -4.506  -5.497   2.135  0.00  0.00    +0.250 C 
ATOM     18  O   UNL     1      -5.270  -5.089   2.988  0.00  0.00    -0.270 OA
ATOM     19  H   UNL     1      -3.158  -4.952   0.739  0.00  0.00    +0.157 HD
BRANCH  17  20
ATOM     20  C   UNL     1      -4.386  -6.947   1.885  0.00  0.00    +0.037 A 
ATOM     21  C   UNL     1      -3.512  -7.419   0.901  0.00  0.00    +0.016 A 
ATOM     22  C   UNL     1      -3.399  -8.774   0.676  0.00  0.00    +0.039 A 
ATOM     23  C   UNL     1      -4.160  -9.668   1.415  0.00  0.00    +0.123 A 
ATOM     24  C   UNL     1      -5.033  -9.205   2.387  0.00  0.00    +0.039 A 
ATOM     25  C   UNL     1      -5.149  -7.853   2.626  0.00  0.00    +0.016 A 
ATOM     26  F   UNL     1      -4.050 -10.995   1.185  0.00  0.00    -0.205 F 
ENDBRANCH  17  20
ENDBRANCH  14  16
ENDBRANCH   9  14
TORSDOF 3
