REMARK  Name = ZINC40408644
REMARK  18 active torsions:
REMARK  status: ('A' for Active; 'I' for Inactive)
REMARK    1  A    between atoms: C_1  and  C_2
REMARK    2  A    between atoms: C_2  and  C_3
REMARK    3  A    between atoms: C_3  and  C_4
REMARK    4  A    between atoms: C_4  and  O_5
REMARK    5  A    between atoms: O_5  and  C_6
REMARK    6  A    between atoms: C_6  and  C_7
REMARK    7  A    between atoms: C_7  and  C_9
REMARK    8  A    between atoms: C_7  and  O_38
REMARK    9  A    between atoms: C_9  and  N_10
REMARK   10  A    between atoms: N_10  and  C_11
REMARK   11  A    between atoms: N_10  and  C_17
REMARK   12  A    between atoms: C_11  and  C_12
REMARK   13  A    between atoms: C_17  and  C_18
REMARK   14  A    between atoms: C_19  and  C_37
REMARK   15  A    between atoms: N_21  and  C_31
REMARK   16  A    between atoms: C_22  and  O_23
REMARK   17  A    between atoms: O_23  and  C_24
REMARK   18  A    between atoms: C_28  and  C_30
REMARK                            x       y       z     vdW  Elec       q    Type
REMARK                         _______ _______ _______ _____ _____    ______ ____
ROOT
ATOM      1  C   UNL     1       3.894  -8.599   6.955  0.00  0.00    +0.021 A 
ATOM      2  C   UNL     1       5.108  -8.535   7.647  0.00  0.00    +0.065 A 
ATOM      3  N   UNL     1       4.860  -8.632   8.928  0.00  0.00    -0.168 NA
ATOM      4  N   UNL     1       3.476  -8.762   9.102  0.00  0.00    -0.200 N 
ATOM      5  C   UNL     1       2.898  -8.734   7.871  0.00  0.00    +0.225 A 
ATOM      6  C   UNL     1       6.470  -8.380   7.022  0.00  0.00    +0.068 C 
ENDROOT
BRANCH   4   7
ATOM      7  C   UNL     1       2.806  -8.892  10.326  0.00  0.00    +0.069 A 
ATOM      8  C   UNL     1       1.611  -8.218  10.541  0.00  0.00    +0.028 A 
ATOM      9  C   UNL     1       0.954  -8.348  11.748  0.00  0.00    +0.002 A 
ATOM     10  C   UNL     1       1.484  -9.149  12.743  0.00  0.00    +0.000 A 
ATOM     11  C   UNL     1       2.673  -9.822  12.533  0.00  0.00    +0.002 A 
ATOM     12  C   UNL     1       3.333  -9.700  11.325  0.00  0.00    +0.028 A 
ENDBRANCH   4   7
BRANCH   1  13
ATOM     13  C   UNL     1       3.720  -8.525   5.460  0.00  0.00    -0.035 C 
BRANCH  13  14
ATOM     14  N   UNL     1       3.398  -7.146   5.072  0.00  0.00    +0.389 N 
ATOM     15  H   UNL     1       2.599  -6.826   5.599  0.00  0.00    -0.081 HD
BRANCH  14  16
ATOM     16  C   UNL     1       4.549  -6.277   5.353  0.00  0.00    -0.044 C 
BRANCH  16  17
ATOM     17  C   UNL     1       4.171  -4.822   5.067  0.00  0.00    +0.124 C 
BRANCH  17  18
ATOM     18  O   UNL     1       3.152  -4.406   5.978  0.00  0.00    -0.391 OA
ATOM     19  H   UNL     1       3.412  -4.455   6.908  0.00  0.00    +0.210 HD
ENDBRANCH  17  18
BRANCH  17  20
ATOM     20  C   UNL     1       5.404  -3.932   5.239  0.00  0.00    +0.189 C 
BRANCH  20  21
ATOM     21  O   UNL     1       5.081  -2.592   4.859  0.00  0.00    -0.377 OA
BRANCH  21  22
ATOM     22  C   UNL     1       6.169  -1.675   4.984  0.00  0.00    +0.160 C 
BRANCH  22  23
ATOM     23  C   UNL     1       5.712  -0.280   4.553  0.00  0.00    +0.028 C 
BRANCH  23  25
ATOM     24  C   UNL     1       6.420   2.098   4.255  0.00  0.00    +0.004 C 
ATOM     25  C   UNL     1       6.877   0.703   4.686  0.00  0.00    -0.001 C 
ENDBRANCH  23  25
ENDBRANCH  22  23
ENDBRANCH  21  22
ENDBRANCH  20  21
ENDBRANCH  17  20
ENDBRANCH  16  17
ENDBRANCH  14  16
BRANCH  14  26
ATOM     26  C   UNL     1       3.089  -7.100   3.637  0.00  0.00    -0.003 C 
BRANCH  26  27
ATOM     27  C   UNL     1       1.827  -7.879   3.369  0.00  0.00    +0.089 A 
ATOM     28  C   UNL     1       0.584  -7.369   3.318  0.00  0.00    +0.042 A 
ATOM     29  C   UNL     1      -0.290  -8.447   3.044  0.00  0.00    +0.041 A 
ATOM     30  C   UNL     1       0.472  -9.551   2.944  0.00  0.00    +0.195 A 
ATOM     31  O   UNL     1       1.754  -9.200   3.137  0.00  0.00    -0.470 OA
ENDBRANCH  26  27
ENDBRANCH  14  26
ENDBRANCH  13  14
ENDBRANCH   1  13
BRANCH   5  32
ATOM     32  O   UNL     1       1.570  -8.828   7.605  0.00  0.00    -0.438 OA
BRANCH  32  33
ATOM     33  C   UNL     1       1.027 -10.068   7.499  0.00  0.00    +0.131 A 
ATOM     34  C   UNL     1       1.797 -11.190   7.770  0.00  0.00    +0.046 A 
ATOM     35  C   UNL     1       1.242 -12.450   7.661  0.00  0.00    +0.004 A 
ATOM     36  C   UNL     1      -0.080 -12.594   7.282  0.00  0.00    +0.003 A 
ATOM     37  C   UNL     1      -0.850 -11.478   7.011  0.00  0.00    -0.047 A 
ATOM     38  C   UNL     1      -0.301 -10.215   7.124  0.00  0.00    +0.049 A 
ATOM     39  C   UNL     1      -2.290 -11.639   6.598  0.00  0.00    +0.044 C 
ENDBRANCH  32  33
ENDBRANCH   5  32
TORSDOF 15
