REMARK  Name = ZINC56648539
REMARK  10 active torsions:
REMARK  status: ('A' for Active; 'I' for Inactive)
REMARK    1  A    between atoms: C_1  and  C_2
REMARK    2  A    between atoms: C_4  and  C_26
REMARK    3  A    between atoms: C_7  and  N_8
REMARK    4  A    between atoms: N_11  and  C_12
REMARK    5  A    between atoms: C_12  and  C_14
REMARK    6  A    between atoms: C_12  and  C_15
REMARK    7  A    between atoms: C_15  and  N_16
REMARK    8  A    between atoms: C_18  and  C_25
REMARK    9  A    between atoms: C_21  and  C_24
REMARK   10  A    between atoms: N_28  and  C_29
REMARK                            x       y       z     vdW  Elec       q    Type
REMARK                         _______ _______ _______ _____ _____    ______ ____
ROOT
ATOM      1  N   UNL     1       0.191  -0.169   2.458  0.00  0.00    -0.269 N 
ATOM      2  C   UNL     1       0.006  -0.820   3.623  0.00  0.00    +0.304 C 
ATOM      3  O   UNL     1      -0.072  -2.033   3.636  0.00  0.00    -0.253 OA
ATOM      4  N   UNL     1      -0.091  -0.126   4.774  0.00  0.00    -0.298 N 
ATOM      5  H   UNL     1       0.327   0.792   2.455  0.00  0.00    +0.156 HD
ATOM      6  H   UNL     1      -0.028   0.842   4.764  0.00  0.00    +0.150 HD
ENDROOT
BRANCH   1  13
ATOM      7  C   UNL     1      -0.879   1.115   0.160  0.00  0.00    +0.045 C 
ATOM      8  C   UNL     1      -0.327  -0.286   0.105  0.00  0.00    -0.028 A 
ATOM      9  C   UNL     1      -0.328  -0.980  -1.084  0.00  0.00    +0.018 A 
ATOM     10  C   UNL     1       0.184  -2.279  -1.134  0.00  0.00    +0.037 A 
ATOM     11  C   UNL     1       0.696  -2.870   0.025  0.00  0.00    +0.015 A 
ATOM     12  C   UNL     1       0.693  -2.171   1.211  0.00  0.00    +0.024 A 
ATOM     13  C   UNL     1       0.187  -0.876   1.256  0.00  0.00    +0.038 A 
BRANCH  10  14
ATOM     14  C   UNL     1       0.185  -3.025  -2.407  0.00  0.00    +0.244 C 
ATOM     15  O   UNL     1      -0.260  -2.509  -3.414  0.00  0.00    -0.270 OA
ATOM     16  N   UNL     1       0.680  -4.278  -2.454  0.00  0.00    -0.314 N 
ATOM     17  C   UNL     1       0.681  -5.019  -3.717  0.00  0.00    +0.128 C 
ATOM     18  H   UNL     1       1.035  -4.689  -1.650  0.00  0.00    +0.149 HD
ENDBRANCH  10  14
ENDBRANCH   1  13
BRANCH   4  19
ATOM     19  C   UNL     1      -0.291  -0.834   6.041  0.00  0.00    +0.055 C 
ATOM     20  C   UNL     1       1.067  -1.195   6.645  0.00  0.00    +0.026 C 
BRANCH  19  21
ATOM     21  C   UNL     1      -1.058   0.066   7.013  0.00  0.00    -0.057 C 
BRANCH  21  22
ATOM     22  N   UNL     1      -2.317   0.497   6.391  0.00  0.00    +0.381 N 
ATOM     23  C   UNL     1      -2.979   1.478   7.260  0.00  0.00    -0.076 C 
ATOM     24  C   UNL     1      -4.251   1.990   6.580  0.00  0.00    -0.031 C 
ATOM     25  C   UNL     1      -5.196   0.813   6.324  0.00  0.00    +0.003 C 
ATOM     26  C   UNL     1      -4.469  -0.238   5.479  0.00  0.00    -0.031 C 
ATOM     27  C   UNL     1      -3.190  -0.668   6.199  0.00  0.00    -0.076 C 
ATOM     28  C   UNL     1      -5.378  -1.453   5.281  0.00  0.00    +0.005 C 
ATOM     29  C   UNL     1      -3.888   2.654   5.250  0.00  0.00    +0.005 C 
ATOM     30  H   UNL     1      -2.122   0.921   5.497  0.00  0.00    -0.082 HD
ENDBRANCH  21  22
ENDBRANCH  19  21
ENDBRANCH   4  19
TORSDOF 5
