REMARK  Name = ZINC04654003
REMARK  2 active torsions:
REMARK  status: ('A' for Active; 'I' for Inactive)
REMARK    1  A    between atoms: C_1  and  C_2
REMARK    2  A    between atoms: C_3  and  C_12
REMARK                            x       y       z     vdW  Elec       q    Type
REMARK                         _______ _______ _______ _____ _____    ______ ____
ROOT
ATOM      1  C   UNL     1       0.730  -0.265  -3.278  0.00  0.00    +0.030 C 
ATOM      2  C   UNL     1      -0.254   0.673  -3.326  0.00  0.00    +0.079 C 
ATOM      3  C   UNL     1      -0.715   1.441  -4.435  0.00  0.00    +0.265 C 
ATOM      4  O   UNL     1      -0.216   1.305  -5.538  0.00  0.00    -0.269 OA
ATOM      5  N   UNL     1      -1.697   2.304  -4.239  0.00  0.00    -0.192 N 
ATOM      6  C   UNL     1      -2.253   2.445  -2.978  0.00  0.00    +0.166 C 
ATOM      7  N   UNL     1      -3.218   3.233  -2.592  0.00  0.00    -0.279 NA
ATOM      8  S   UNL     1      -1.317   1.265  -2.017  0.00  0.00    -0.049 S 
ATOM      9  C   UNL     1      -2.174   3.073  -5.302  0.00  0.00    +0.222 A 
ATOM     10  C   UNL     1      -1.701   4.409  -5.673  0.00  0.00    +0.224 A 
ATOM     11  N   UNL     1      -2.378   4.810  -6.713  0.00  0.00    -0.029 NA
ATOM     12  O   UNL     1      -3.294   3.785  -7.057  0.00  0.00    -0.239 OA
ATOM     13  N   UNL     1      -3.112   2.723  -6.138  0.00  0.00    -0.031 NA
ATOM     14  N   UNL     1      -0.697   5.132  -5.023  0.00  0.00    -0.303 N 
ATOM     15  C   UNL     1      -0.522   5.213  -3.670  0.00  0.00    +0.093 A 
ATOM     16  C   UNL     1       0.547   5.997  -3.430  0.00  0.00    +0.019 A 
ATOM     17  C   UNL     1       1.053   6.418  -4.677  0.00  0.00    +0.019 A 
ATOM     18  C   UNL     1       0.277   5.870  -5.634  0.00  0.00    +0.093 A 
ATOM     19  H   UNL     1      -3.460   3.280  -1.653  0.00  0.00    +0.189 HD
ENDROOT
BRANCH   1  22
ATOM     20  C   UNL     1       3.419  -0.467  -1.726  0.00  0.00    +0.064 C 
ATOM     21  C   UNL     1       2.121  -1.134  -1.351  0.00  0.00    +0.021 A 
ATOM     22  C   UNL     1       0.952  -1.030  -2.050  0.00  0.00    +0.004 A 
ATOM     23  C   UNL     1      -0.043  -1.841  -1.323  0.00  0.00    +0.007 A 
ATOM     24  C   UNL     1      -1.390  -2.131  -1.527  0.00  0.00    +0.010 A 
ATOM     25  C   UNL     1      -2.055  -2.947  -0.638  0.00  0.00    +0.001 A 
ATOM     26  C   UNL     1      -1.389  -3.479   0.456  0.00  0.00    +0.002 A 
ATOM     27  C   UNL     1      -0.056  -3.201   0.671  0.00  0.00    +0.026 A 
ATOM     28  C   UNL     1       0.633  -2.380  -0.216  0.00  0.00    +0.047 A 
ATOM     29  N   UNL     1       1.938  -1.935  -0.269  0.00  0.00    -0.358 N 
ATOM     30  H   UNL     1       2.626  -2.161   0.376  0.00  0.00    +0.166 HD
ENDBRANCH   1  22
TORSDOF 1
