REMARK  Name = ZINC15844616
REMARK  9 active torsions:
REMARK  status: ('A' for Active; 'I' for Inactive)
REMARK    1  A    between atoms: C_1  and  C_2
REMARK    2  A    between atoms: C_6  and  N_9
REMARK    3  A    between atoms: C_7  and  C_8
REMARK    4  A    between atoms: N_9  and  C_10
REMARK    5  A    between atoms: C_10  and  N_12
REMARK    6  A    between atoms: N_12  and  N_13
REMARK    7  A    between atoms: C_14  and  C_16
REMARK    8  A    between atoms: C_18  and  S_23
REMARK    9  A    between atoms: S_23  and  C_24
REMARK                            x       y       z     vdW  Elec       q    Type
REMARK                         _______ _______ _______ _____ _____    ______ ____
ROOT
ATOM      1  N   UNL     1      -0.018   5.491  -0.173  0.00  0.00    -0.245 N 
ATOM      2  H   UNL     1      -0.861   5.967  -0.236  0.00  0.00    +0.172 HD
ENDROOT
BRANCH   1   3
ATOM      3  N   UNL     1       1.189   6.201  -0.180  0.00  0.00    -0.231 N 
ATOM      4  C   UNL     1       1.180   7.545  -0.275  0.00  0.00    +0.262 C 
ATOM      5  O   UNL     1       0.124   8.142  -0.354  0.00  0.00    -0.269 OA
ATOM      6  H   UNL     1       2.032   5.725  -0.117  0.00  0.00    +0.173 HD
BRANCH   4   7
ATOM      7  C   UNL     1       2.454   8.294  -0.283  0.00  0.00    +0.057 A 
ATOM      8  C   UNL     1       3.668   7.612  -0.187  0.00  0.00    +0.029 A 
ATOM      9  C   UNL     1       4.859   8.322  -0.200  0.00  0.00    +0.008 A 
ATOM     10  C   UNL     1       4.842   9.709  -0.298  0.00  0.00    +0.016 A 
ATOM     11  C   UNL     1       3.640  10.385  -0.388  0.00  0.00    +0.022 A 
ATOM     12  C   UNL     1       2.447   9.688  -0.381  0.00  0.00    +0.053 A 
ATOM     13 CL   UNL     1       0.941  10.543  -0.495  0.00  0.00    -0.083 Cl
BRANCH   9  14
ATOM     14  S   UNL     1       6.395   7.466  -0.085  0.00  0.00    -0.129 S 
ATOM     15  C   UNL     1       7.638   8.786  -0.133  0.00  0.00    +0.090 C 
ENDBRANCH   9  14
ENDBRANCH   4   7
ENDBRANCH   1   3
BRANCH   1  16
ATOM     16  C   UNL     1      -0.009   4.146  -0.078  0.00  0.00    +0.151 C 
ATOM     17  S   UNL     1      -1.485   3.279  -0.069  0.00  0.00    -0.017 S 
BRANCH  16  18
ATOM     18  N   UNL     1       1.162   3.485   0.009  0.00  0.00    -0.296 N 
ATOM     19  H   UNL     1       1.993   3.979   0.084  0.00  0.00    +0.154 HD
BRANCH  18  25
ATOM     20  C   UNL     1       2.852  -0.750   1.846  0.00  0.00    +0.044 C 
ATOM     21  C   UNL     1       1.988   0.008   0.871  0.00  0.00    -0.046 A 
ATOM     22  C   UNL     1       1.211  -0.680  -0.043  0.00  0.00    +0.004 A 
ATOM     23  C   UNL     1       0.418   0.012  -0.940  0.00  0.00    +0.002 A 
ATOM     24  C   UNL     1       0.399   1.393  -0.925  0.00  0.00    +0.023 A 
ATOM     25  C   UNL     1       1.178   2.086  -0.008  0.00  0.00    +0.036 A 
ATOM     26  C   UNL     1       1.974   1.388   0.891  0.00  0.00    -0.026 A 
ATOM     27  C   UNL     1       2.821   2.137   1.888  0.00  0.00    +0.046 C 
ENDBRANCH  18  25
ENDBRANCH  16  18
ENDBRANCH   1  16
TORSDOF 6
