REMARK  Name = ZINC02659917
REMARK  12 active torsions:
REMARK  status: ('A' for Active; 'I' for Inactive)
REMARK    1  A    between atoms: C_1  and  C_2
REMARK    2  A    between atoms: C_4  and  C_38
REMARK    3  A    between atoms: C_5  and  C_37
REMARK    4  A    between atoms: C_6  and  S_9
REMARK    5  A    between atoms: C_7  and  C_8
REMARK    6  A    between atoms: S_9  and  N_12
REMARK    7  A    between atoms: C_15  and  C_18
REMARK    8  A    between atoms: C_18  and  O_20
REMARK    9  A    between atoms: O_20  and  C_21
REMARK   10  A    between atoms: C_21  and  C_23
REMARK   11  A    between atoms: C_21  and  C_24
REMARK   12  A    between atoms: N_26  and  C_27
REMARK                            x       y       z     vdW  Elec       q    Type
REMARK                         _______ _______ _______ _____ _____    ______ ____
ROOT
ATOM      1  N   UNL     1       6.596  -9.114  -0.305  0.00  0.00    -0.177 NA
ATOM      2  C   UNL     1       7.227  -9.172  -1.631  0.00  0.00    +0.110 C 
ATOM      3  C   UNL     1       7.860  -7.811  -1.936  0.00  0.00    +0.032 C 
ATOM      4  C   UNL     1       6.800  -6.716  -1.792  0.00  0.00    +0.100 C 
ATOM      5  C   UNL     1       6.279  -6.695  -0.353  0.00  0.00    +0.032 C 
ATOM      6  C   UNL     1       5.628  -8.043  -0.030  0.00  0.00    +0.110 C 
ENDROOT
BRANCH   1   7
ATOM      7  S   UNL     1       6.969 -10.233   0.856  0.00  0.00    +0.061 S 
ATOM      8  O   UNL     1       5.844 -10.310   1.722  0.00  0.00    -0.153 OA
ATOM      9  O   UNL     1       7.485 -11.369   0.175  0.00  0.00    -0.153 OA
BRANCH   7  15
ATOM     10  C   UNL     1       8.799  -7.811   5.111  0.00  0.00    +0.044 C 
ATOM     11  C   UNL     1       9.078  -8.459   3.780  0.00  0.00    -0.045 A 
ATOM     12  C   UNL     1      10.375  -8.536   3.307  0.00  0.00    +0.007 A 
ATOM     13  C   UNL     1      10.632  -9.131   2.086  0.00  0.00    -0.045 A 
ATOM     14  C   UNL     1       9.591  -9.649   1.337  0.00  0.00    -0.021 A 
ATOM     15  C   UNL     1       8.295  -9.573   1.810  0.00  0.00    +0.112 A 
ATOM     16  C   UNL     1       8.037  -8.973   3.029  0.00  0.00    -0.021 A 
ATOM     17  C   UNL     1       6.623  -8.885   3.542  0.00  0.00    +0.046 C 
ATOM     18  C   UNL     1       9.871 -10.297   0.006  0.00  0.00    +0.046 C 
ATOM     19  C   UNL     1      12.045  -9.214   1.571  0.00  0.00    +0.044 C 
ENDBRANCH   7  15
ENDBRANCH   1   7
BRANCH   4  20
ATOM     20  C   UNL     1       7.411  -5.379  -2.124  0.00  0.00    +0.311 C 
ATOM     21  O   UNL     1       8.574  -5.309  -2.444  0.00  0.00    -0.251 OA
BRANCH  20  22
ATOM     22  O   UNL     1       6.663  -4.266  -2.066  0.00  0.00    -0.452 OA
BRANCH  22  23
ATOM     23  C   UNL     1       7.317  -3.014  -2.399  0.00  0.00    +0.259 C 
ATOM     24  C   UNL     1       7.917  -2.398  -1.133  0.00  0.00    +0.062 C 
BRANCH  23  25
ATOM     25  C   UNL     1       6.309  -2.062  -2.991  0.00  0.00    +0.258 C 
ATOM     26  O   UNL     1       5.137  -2.371  -3.036  0.00  0.00    -0.271 OA
ATOM     27  N   UNL     1       6.710  -0.868  -3.471  0.00  0.00    -0.282 N 
ATOM     28  H   UNL     1       7.655  -0.653  -3.507  0.00  0.00    +0.155 HD
BRANCH  27  29
ATOM     29  C   UNL     1       5.762   0.062  -3.916  0.00  0.00    +0.037 A 
ATOM     30  C   UNL     1       4.526   0.148  -3.289  0.00  0.00    +0.027 A 
ATOM     31  C   UNL     1       3.591   1.065  -3.728  0.00  0.00    +0.051 A 
ATOM     32  C   UNL     1       3.883   1.902  -4.795  0.00  0.00    +0.162 A 
ATOM     33  C   UNL     1       5.120   1.820  -5.423  0.00  0.00    +0.164 A 
ATOM     34  C   UNL     1       6.058   0.899  -4.982  0.00  0.00    +0.072 A 
ATOM     35  O   UNL     1       5.428   2.639  -6.465  0.00  0.00    -0.485 OA
ATOM     36  C   UNL     1       4.332   3.289  -7.118  0.00  0.00    +0.270 C 
ATOM     37  C   UNL     1       3.408   3.872  -6.041  0.00  0.00    +0.270 C 
ATOM     38  O   UNL     1       2.945   2.794  -5.219  0.00  0.00    -0.485 OA
ENDBRANCH  27  29
ENDBRANCH  23  25
ENDBRANCH  22  23
ENDBRANCH  20  22
ENDBRANCH   4  20
TORSDOF 7
