REMARK  Name = ZINC36207832
REMARK  15 active torsions:
REMARK  status: ('A' for Active; 'I' for Inactive)
REMARK    1  A    between atoms: C_1  and  O_2
REMARK    2  A    between atoms: O_2  and  C_3
REMARK    3  A    between atoms: C_3  and  C_4
REMARK    4  A    between atoms: C_4  and  N_5
REMARK    5  A    between atoms: N_5  and  C_6
REMARK    6  A    between atoms: N_5  and  C_26
REMARK    7  A    between atoms: C_6  and  C_7
REMARK    8  A    between atoms: C_13  and  C_18
REMARK    9  A    between atoms: C_21  and  O_24
REMARK   10  A    between atoms: O_24  and  C_25
REMARK   11  A    between atoms: C_26  and  C_27
REMARK   12  A    between atoms: C_27  and  C_29
REMARK   13  A    between atoms: C_27  and  O_37
REMARK   14  A    between atoms: C_29  and  O_30
REMARK   15  A    between atoms: O_30  and  C_31
REMARK                            x       y       z     vdW  Elec       q    Type
REMARK                         _______ _______ _______ _____ _____    ______ ____
ROOT
ATOM      1  C   UNL     1      -0.912  -3.969  -0.629  0.00  0.00    -0.003 C 
ENDROOT
BRANCH   1   2
ATOM      2  C   UNL     1      -0.380  -4.173   0.766  0.00  0.00    +0.094 A 
ATOM      3  N   UNL     1      -0.397  -5.416   1.312  0.00  0.00    -0.312 N 
ATOM      4  H   UNL     1      -0.751  -6.157   0.796  0.00  0.00    +0.170 HD
ATOM      5  C   UNL     1       0.070  -5.641   2.554  0.00  0.00    +0.260 A 
ATOM      6  O   UNL     1       0.048  -6.763   3.030  0.00  0.00    -0.267 OA
ATOM      7  C   UNL     1       0.592  -4.542   3.309  0.00  0.00    +0.080 A 
ATOM      8  C   UNL     1       1.148  -4.529   4.656  0.00  0.00    +0.004 A 
ATOM      9  C   UNL     1       1.586  -3.355   5.170  0.00  0.00    +0.056 A 
ATOM     10  S   UNL     1       1.273  -2.189   3.858  0.00  0.00    -0.076 S 
ATOM     11  C   UNL     1       0.568  -3.295   2.663  0.00  0.00    +0.116 A 
ATOM     12  N   UNL     1       0.095  -3.151   1.428  0.00  0.00    -0.229 NA
BRANCH   8  13
ATOM     13  C   UNL     1       1.232  -5.779   5.450  0.00  0.00    -0.016 A 
ATOM     14  C   UNL     1       0.113  -6.602   5.578  0.00  0.00    +0.012 A 
ATOM     15  C   UNL     1       0.195  -7.763   6.317  0.00  0.00    +0.046 A 
ATOM     16  C   UNL     1       1.388  -8.114   6.933  0.00  0.00    +0.120 A 
ATOM     17  C   UNL     1       2.503  -7.296   6.809  0.00  0.00    +0.046 A 
ATOM     18  C   UNL     1       2.430  -6.136   6.066  0.00  0.00    +0.012 A 
BRANCH  16  19
ATOM     19  O   UNL     1       1.465  -9.259   7.661  0.00  0.00    -0.495 OA
ATOM     20  C   UNL     1       2.724  -9.559   8.268  0.00  0.00    +0.277 C 
ENDBRANCH  16  19
ENDBRANCH   8  13
ENDBRANCH   1   2
BRANCH   1  21
ATOM     21  N   UNL     1      -0.783  -2.554  -1.000  0.00  0.00    +0.388 N 
ATOM     22  H   UNL     1      -1.241  -1.981  -0.307  0.00  0.00    -0.081 HD
BRANCH  21  23
ATOM     23  C   UNL     1       0.640  -2.193  -1.070  0.00  0.00    -0.050 C 
BRANCH  23  24
ATOM     24  C   UNL     1       0.773  -0.687  -1.302  0.00  0.00    +0.141 C 
BRANCH  24  26
ATOM     25  C   UNL     1       0.306   1.439  -0.299  0.00  0.00    +0.193 C 
ATOM     26  O   UNL     1       0.231   0.017  -0.183  0.00  0.00    -0.385 OA
ENDBRANCH  24  26
ENDBRANCH  23  24
ENDBRANCH  21  23
BRANCH  21  27
ATOM     27  C   UNL     1      -1.409  -2.332  -2.311  0.00  0.00    -0.043 C 
BRANCH  27  28
ATOM     28  C   UNL     1      -2.917  -2.567  -2.201  0.00  0.00    +0.135 C 
BRANCH  28  29
ATOM     29  O   UNL     1      -3.473  -1.655  -1.252  0.00  0.00    -0.390 OA
ATOM     30  H   UNL     1      -3.413  -0.727  -1.516  0.00  0.00    +0.210 HD
ENDBRANCH  28  29
BRANCH  28  31
ATOM     31  C   UNL     1      -3.568  -2.342  -3.567  0.00  0.00    +0.258 C 
BRANCH  31  32
ATOM     32  O   UNL     1      -4.957  -2.673  -3.493  0.00  0.00    -0.489 OA
BRANCH  32  33
ATOM     33  C   UNL     1      -5.687  -2.528  -4.630  0.00  0.00    +0.121 A 
ATOM     34  C   UNL     1      -5.079  -2.081  -5.794  0.00  0.00    +0.045 A 
ATOM     35  C   UNL     1      -5.823  -1.935  -6.949  0.00  0.00    +0.004 A 
ATOM     36  C   UNL     1      -7.173  -2.233  -6.944  0.00  0.00    +0.000 A 
ATOM     37  C   UNL     1      -7.782  -2.678  -5.785  0.00  0.00    +0.004 A 
ATOM     38  C   UNL     1      -7.040  -2.832  -4.630  0.00  0.00    +0.045 A 
ENDBRANCH  32  33
ENDBRANCH  31  32
ENDBRANCH  28  31
ENDBRANCH  27  28
ENDBRANCH  21  27
ENDBRANCH   1  21
TORSDOF 13
