REMARK  Name = ZINC63259001
REMARK  5 active torsions:
REMARK  status: ('A' for Active; 'I' for Inactive)
REMARK    1  A    between atoms: C_1  and  C_2
REMARK    2  A    between atoms: C_9  and  C_11
REMARK    3  A    between atoms: C_23  and  C_25
REMARK    4  A    between atoms: C_23  and  C_26
REMARK    5  A    between atoms: N_27  and  C_29
REMARK                            x       y       z     vdW  Elec       q    Type
REMARK                         _______ _______ _______ _____ _____    ______ ____
ROOT
ATOM      1  C   UNL     1       0.506   1.222  -0.245  0.00  0.00    +0.030 C 
ATOM      2  C   UNL     1       0.031  -0.227  -0.125  0.00  0.00    +0.100 C 
ATOM      3  C   UNL     1      -1.433  -0.275   0.214  0.00  0.00    -0.003 C 
ATOM      4  C   UNL     1      -1.545  -0.893   1.394  0.00  0.00    +0.110 C 
ATOM      5  N   UNL     1      -2.796  -1.095   1.979  0.00  0.00    -0.305 N 
ATOM      6  C   UNL     1      -3.920  -0.934   1.209  0.00  0.00    +0.017 C 
ATOM      7  C   UNL     1      -3.885  -0.321   0.006  0.00  0.00    +0.023 C 
ATOM      8  C   UNL     1      -2.604   0.249  -0.564  0.00  0.00    +0.083 C 
ATOM      9  C   UNL     1      -5.047  -0.189  -0.774  0.00  0.00    +0.162 C 
ATOM     10  O   UNL     1      -4.980   0.373  -1.849  0.00  0.00    -0.292 OA
ATOM     11  C   UNL     1      -6.370  -0.728  -0.307  0.00  0.00    +0.086 C 
ATOM     12  C   UNL     1      -6.121  -1.926   0.616  0.00  0.00    -0.023 C 
ATOM     13  C   UNL     1      -5.219  -1.470   1.764  0.00  0.00    +0.058 C 
ATOM     14  C   UNL     1      -5.432  -3.045  -0.167  0.00  0.00    +0.011 C 
ATOM     15  C   UNL     1      -7.452  -2.431   1.176  0.00  0.00    +0.011 C 
ATOM     16  N   UNL     1      -0.308  -1.261   1.879  0.00  0.00    -0.222 N 
ATOM     17  N   UNL     1       0.692  -0.895   1.017  0.00  0.00    -0.227 NA
ATOM     18  H   UNL     1      -2.870  -1.344   2.913  0.00  0.00    +0.153 HD
ATOM     19  H   UNL     1       1.220  -1.699   0.710  0.00  0.00    +0.145 HD
ENDROOT
BRANCH   8  20
ATOM     20  C   UNL     1      -2.636   1.753  -0.470  0.00  0.00    -0.030 C 
ATOM     21  C   UNL     1      -2.567   2.633  -1.494  0.00  0.00    -0.000 A 
ATOM     22  C   UNL     1      -2.445   2.461  -2.947  0.00  0.00    +0.010 A 
ATOM     23  C   UNL     1      -2.398   3.558  -3.736  0.00  0.00    +0.001 A 
ATOM     24  C   UNL     1      -2.463   4.853  -3.203  0.00  0.00    +0.002 A 
ATOM     25  C   UNL     1      -2.576   5.091  -1.879  0.00  0.00    +0.026 A 
ATOM     26  C   UNL     1      -2.635   4.011  -0.956  0.00  0.00    +0.043 A 
ATOM     27  N   UNL     1      -2.741   3.983   0.350  0.00  0.00    -0.380 N 
ATOM     28  C   UNL     1      -2.759   2.583   0.788  0.00  0.00    +0.145 C 
ATOM     29  H   UNL     1      -2.802   4.758   0.930  0.00  0.00    +0.160 HD
ENDBRANCH   8  20
BRANCH  16  30
ATOM     30  C   UNL     1      -0.101  -1.924   3.091  0.00  0.00    +0.053 A 
ATOM     31  C   UNL     1      -0.869  -3.034   3.418  0.00  0.00    +0.025 A 
ATOM     32  C   UNL     1      -0.662  -3.687   4.617  0.00  0.00    +0.003 A 
ATOM     33  C   UNL     1       0.309  -3.237   5.493  0.00  0.00    +0.020 A 
ATOM     34  C   UNL     1       1.077  -2.132   5.171  0.00  0.00    +0.043 A 
ATOM     35  C   UNL     1       0.878  -1.477   3.970  0.00  0.00    +0.045 A 
ATOM     36 CL   UNL     1       2.295  -1.570   6.273  0.00  0.00    -0.083 Cl
ENDBRANCH  16  30
TORSDOF 2
