REMARK  Name = ZINC17157831
REMARK  10 active torsions:
REMARK  status: ('A' for Active; 'I' for Inactive)
REMARK    1  A    between atoms: C_1  and  C_2
REMARK    2  A    between atoms: C_5  and  S_8
REMARK    3  A    between atoms: S_8  and  N_11
REMARK    4  A    between atoms: N_11  and  C_12
REMARK    5  A    between atoms: C_12  and  C_14
REMARK    6  A    between atoms: C_12  and  C_17
REMARK    7  A    between atoms: C_14  and  C_15
REMARK    8  A    between atoms: C_14  and  C_16
REMARK    9  A    between atoms: N_19  and  N_20
REMARK   10  A    between atoms: C_21  and  C_23
REMARK                            x       y       z     vdW  Elec       q    Type
REMARK                         _______ _______ _______ _____ _____    ______ ____
ROOT
ATOM      1  C   UNL     1       0.126   2.039   1.331  0.00  0.00    +0.248 C 
ATOM      2  O   UNL     1       0.298   1.336   2.305  0.00  0.00    -0.273 OA
ATOM      3  N   UNL     1       0.119   3.381   1.461  0.00  0.00    -0.233 N 
ATOM      4  H   UNL     1      -0.118   4.016   0.595  0.00  0.00    +0.173 HD
ENDROOT
BRANCH   3   5
ATOM      5  N   UNL     1       0.414   3.966   2.700  0.00  0.00    -0.234 N 
ATOM      6  C   UNL     1       0.407   5.307   2.830  0.00  0.00    +0.235 C 
ATOM      7  O   UNL     1       0.146   6.008   1.875  0.00  0.00    -0.274 OA
ATOM      8  H   UNL     1       0.651   3.330   3.566  0.00  0.00    +0.173 HD
BRANCH   6   9
ATOM      9  C   UNL     1       0.724   5.936   4.162  0.00  0.00    +0.049 C 
ATOM     10  C   UNL     1      -0.288   5.458   5.206  0.00  0.00    +0.019 C 
ATOM     11  C   UNL     1       0.034   6.098   6.558  0.00  0.00    -0.009 C 
ATOM     12  C   UNL     1      -0.043   7.620   6.434  0.00  0.00    +0.007 C 
ATOM     13  C   UNL     1       0.969   8.098   5.390  0.00  0.00    -0.009 C 
ATOM     14  C   UNL     1       0.647   7.460   4.038  0.00  0.00    +0.019 C 
ATOM     15  C   UNL     1       2.379   7.692   5.824  0.00  0.00    +0.007 C 
ATOM     16  C   UNL     1       2.456   6.169   5.948  0.00  0.00    -0.009 C 
ATOM     17  C   UNL     1       1.444   5.691   6.991  0.00  0.00    +0.007 C 
ATOM     18  C   UNL     1       2.134   5.530   4.595  0.00  0.00    +0.019 C 
ENDBRANCH   6   9
ENDBRANCH   3   5
BRANCH   1  19
ATOM     19  C   UNL     1      -0.079   1.413  -0.024  0.00  0.00    +0.166 C 
BRANCH  19  20
ATOM     20  C   UNL     1      -1.575   1.352  -0.337  0.00  0.00    +0.010 C 
ATOM     21  C   UNL     1      -1.781   0.765  -1.734  0.00  0.00    +0.009 C 
ATOM     22  C   UNL     1      -2.277   0.468   0.696  0.00  0.00    +0.009 C 
ENDBRANCH  19  20
BRANCH  19  23
ATOM     23  N   UNL     1       0.475   0.056  -0.024  0.00  0.00    -0.178 NA
ATOM     24  H   UNL     1       0.181  -0.658   0.759  0.00  0.00    +0.149 HD
BRANCH  23  25
ATOM     25  S   UNL     1       1.722  -0.329  -1.043  0.00  0.00    +0.059 S 
ATOM     26  O   UNL     1       2.046  -1.690  -0.792  0.00  0.00    -0.153 OA
ATOM     27  O   UNL     1       1.353   0.141  -2.332  0.00  0.00    -0.153 OA
BRANCH  25  32
ATOM     28  C   UNL     1       6.503   2.926   0.677  0.00  0.00    +0.044 C 
ATOM     29  C   UNL     1       5.309   2.113   0.248  0.00  0.00    -0.050 A 
ATOM     30  C   UNL     1       5.094   0.860   0.791  0.00  0.00    +0.005 A 
ATOM     31  C   UNL     1       3.999   0.115   0.397  0.00  0.00    +0.029 A 
ATOM     32  C   UNL     1       3.118   0.622  -0.540  0.00  0.00    +0.105 A 
ATOM     33  C   UNL     1       3.336   1.872  -1.087  0.00  0.00    +0.029 A 
ATOM     34  C   UNL     1       4.429   2.620  -0.690  0.00  0.00    +0.005 A 
ENDBRANCH  25  32
ENDBRANCH  23  25
ENDBRANCH  19  23
ENDBRANCH   1  19
TORSDOF 7
