REMARK  Name = ZINC59789861
REMARK  10 active torsions:
REMARK  status: ('A' for Active; 'I' for Inactive)
REMARK    1  A    between atoms: C_4  and  C_7
REMARK    2  A    between atoms: C_7  and  C_8
REMARK    3  A    between atoms: C_7  and  N_14
REMARK    4  A    between atoms: C_15  and  C_17
REMARK    5  A    between atoms: C_17  and  C_18
REMARK    6  A    between atoms: C_18  and  S_19
REMARK    7  A    between atoms: S_19  and  C_20
REMARK    8  A    between atoms: C_23  and  C_26
REMARK    9  A    between atoms: N_24  and  N_25
REMARK   10  A    between atoms: C_30  and  N_32
REMARK                            x       y       z     vdW  Elec       q    Type
REMARK                         _______ _______ _______ _____ _____    ______ ____
ROOT
ATOM      1  C   UNL     1       4.007  -2.468  -4.609  0.00  0.00    +0.086 C 
ENDROOT
BRANCH   1   2
ATOM      2  C   UNL     1       3.722  -2.906  -3.171  0.00  0.00    +0.107 C 
BRANCH   2   4
ATOM      3  N   UNL     1       3.611  -1.865  -0.930  0.00  0.00    -0.304 N 
ATOM      4  C   UNL     1       3.825  -1.716  -2.253  0.00  0.00    +0.215 C 
ATOM      5  O   UNL     1       4.099  -0.624  -2.704  0.00  0.00    -0.276 OA
ATOM      6  H   UNL     1       3.392  -2.738  -0.569  0.00  0.00    +0.150 HD
BRANCH   3   7
ATOM      7  C   UNL     1       3.711  -0.707  -0.038  0.00  0.00    +0.134 C 
BRANCH   7  11
ATOM      8  C   UNL     1      -0.017   1.378   0.010  0.00  0.00    +0.000 A 
ATOM      9  C   UNL     1       1.171   2.086   0.002  0.00  0.00    +0.000 A 
ATOM     10  C   UNL     1       2.377   1.411  -0.013  0.00  0.00    +0.006 A 
ATOM     11  C   UNL     1       2.396   0.029  -0.020  0.00  0.00    -0.023 A 
ATOM     12  C   UNL     1       1.208  -0.679  -0.012  0.00  0.00    +0.006 A 
ATOM     13  C   UNL     1       0.002  -0.004   0.002  0.00  0.00    +0.000 A 
ENDBRANCH   7  11
BRANCH   7  14
ATOM     14  C   UNL     1       4.044  -1.175   1.356  0.00  0.00    -0.023 A 
ATOM     15  C   UNL     1       3.455  -2.320   1.860  0.00  0.00    +0.006 A 
ATOM     16  C   UNL     1       3.760  -2.748   3.138  0.00  0.00    +0.000 A 
ATOM     17  C   UNL     1       4.654  -2.033   3.912  0.00  0.00    +0.000 A 
ATOM     18  C   UNL     1       5.243  -0.888   3.408  0.00  0.00    +0.000 A 
ATOM     19  C   UNL     1       4.941  -0.462   2.128  0.00  0.00    +0.006 A 
ENDBRANCH   7  14
ENDBRANCH   3   7
ENDBRANCH   2   4
ENDBRANCH   1   2
BRANCH   1  20
ATOM     20  S   UNL     1       3.884  -3.901  -5.714  0.00  0.00    -0.084 S 
BRANCH  20  21
ATOM     21  C   UNL     1       4.234  -3.240  -7.309  0.00  0.00    +0.209 A 
ATOM     22  N   UNL     1       4.521  -1.988  -7.589  0.00  0.00    -0.121 NA
ATOM     23  N   UNL     1       4.722  -1.853  -8.851  0.00  0.00    -0.127 NA
ATOM     24  C   UNL     1       4.576  -3.009  -9.455  0.00  0.00    +0.182 A 
ATOM     25  N   UNL     1       4.264  -3.934  -8.485  0.00  0.00    -0.224 N 
BRANCH  24  26
ATOM     26  C   UNL     1       4.723  -3.270 -10.902  0.00  0.00    +0.023 A 
ATOM     27  C   UNL     1       4.236  -4.456 -11.454  0.00  0.00    +0.012 A 
ATOM     28  C   UNL     1       4.378  -4.693 -12.806  0.00  0.00    +0.003 A 
ATOM     29  C   UNL     1       5.001  -3.758 -13.614  0.00  0.00    +0.033 A 
ATOM     30  C   UNL     1       5.486  -2.581 -13.073  0.00  0.00    +0.127 A 
ATOM     31  C   UNL     1       5.346  -2.329 -11.724  0.00  0.00    +0.044 A 
BRANCH  30  32
ATOM     32  N   UNL     1       6.152  -1.587 -13.945  0.00  0.00    +0.056 N 
ATOM     33  O   UNL     1       6.271  -1.804 -15.128  0.00  0.00    -0.126 OA
ATOM     34  O   UNL     1       6.576  -0.557 -13.473  0.00  0.00    -0.126 OA
ENDBRANCH  30  32
ENDBRANCH  24  26
BRANCH  25  35
ATOM     35  N   UNL     1       4.029  -5.268  -8.662  0.00  0.00    -0.295 N 
ATOM     36  H   UNL     1       3.051  -5.444  -8.837  0.00  0.00    +0.163 HD
ATOM     37  H   UNL     1       4.602  -5.641  -9.404  0.00  0.00    +0.163 HD
ENDBRANCH  25  35
ENDBRANCH  20  21
ENDBRANCH   1  20
TORSDOF 10
