REMARK  Name = ZINC13115961
REMARK  9 active torsions:
REMARK  status: ('A' for Active; 'I' for Inactive)
REMARK    1  A    between atoms: C_1  and  C_2
REMARK    2  A    between atoms: C_5  and  C_35
REMARK    3  A    between atoms: N_8  and  S_10
REMARK    4  A    between atoms: S_10  and  C_13
REMARK    5  A    between atoms: C_17  and  C_19
REMARK    6  A    between atoms: N_21  and  C_22
REMARK    7  A    between atoms: C_22  and  C_23
REMARK    8  A    between atoms: C_23  and  C_25
REMARK    9  A    between atoms: C_23  and  N_65
REMARK                            x       y       z     vdW  Elec       q    Type
REMARK                         _______ _______ _______ _____ _____    ______ ____
ROOT
ATOM      1  C   UNL     1      -0.513   1.798   3.098  0.00  0.00    +0.106 A 
ATOM      2  C   UNL     1      -0.163   2.721   4.069  0.00  0.00    +0.030 A 
ATOM      3  C   UNL     1      -0.800   2.719   5.296  0.00  0.00    +0.022 A 
ATOM      4  C   UNL     1      -1.785   1.788   5.564  0.00  0.00    +0.053 A 
ATOM      5  C   UNL     1      -2.139   0.851   4.591  0.00  0.00    +0.057 A 
ATOM      6  C   UNL     1      -1.494   0.863   3.353  0.00  0.00    +0.043 A 
ATOM      7 CL   UNL     1      -2.579   1.782   7.108  0.00  0.00    -0.083 Cl
ENDROOT
BRANCH   5   8
ATOM      8  C   UNL     1      -3.191  -0.148   4.871  0.00  0.00    +0.246 C 
ATOM      9  O   UNL     1      -3.751  -0.156   5.950  0.00  0.00    -0.270 OA
ATOM     10  N   UNL     1      -3.530  -1.051   3.929  0.00  0.00    -0.312 N 
ATOM     11  H   UNL     1      -3.084  -1.045   3.068  0.00  0.00    +0.149 HD
BRANCH  10  12
ATOM     12  C   UNL     1      -4.574  -2.041   4.206  0.00  0.00    +0.097 C 
BRANCH  12  13
ATOM     13  C   UNL     1      -4.763  -2.939   2.982  0.00  0.00    +0.016 C 
BRANCH  13  18
ATOM     14  C   UNL     1      -2.838  -4.202   3.772  0.00  0.00    -0.078 C 
ATOM     15  C   UNL     1      -1.831  -5.179   3.115  0.00  0.00    -0.020 C 
ATOM     16  C   UNL     1      -2.594  -5.673   1.864  0.00  0.00    -0.020 C 
ATOM     17  C   UNL     1      -3.655  -4.591   1.587  0.00  0.00    -0.078 C 
ATOM     18  N   UNL     1      -3.457  -3.556   2.603  0.00  0.00    +0.387 N 
ATOM     19  H   UNL     1      -2.833  -2.827   2.239  0.00  0.00    -0.081 HD
ENDBRANCH  13  18
BRANCH  13  20
ATOM     20  C   UNL     1      -5.747  -4.033   3.308  0.00  0.00    +0.093 A 
ATOM     21  C   UNL     1      -7.011  -4.114   2.856  0.00  0.00    +0.043 A 
ATOM     22  C   UNL     1      -7.567  -5.292   3.405  0.00  0.00    +0.041 A 
ATOM     23  C   UNL     1      -6.612  -5.856   4.166  0.00  0.00    +0.195 A 
ATOM     24  O   UNL     1      -5.512  -5.089   4.103  0.00  0.00    -0.469 OA
ENDBRANCH  13  20
ENDBRANCH  12  13
ENDBRANCH  10  12
ENDBRANCH   5   8
BRANCH   1  25
ATOM     25  S   UNL     1       0.301   1.814   1.536  0.00  0.00    +0.061 S 
ATOM     26  O   UNL     1       0.179   0.503   1.001  0.00  0.00    -0.153 OA
ATOM     27  O   UNL     1       1.561   2.439   1.741  0.00  0.00    -0.153 OA
BRANCH  25  33
ATOM     28  C   UNL     1      -4.041   2.650  -0.957  0.00  0.00    +0.009 C 
ATOM     29  C   UNL     1      -2.927   3.100  -0.009  0.00  0.00    +0.002 C 
ATOM     30  C   UNL     1      -2.631   4.584  -0.237  0.00  0.00    +0.009 C 
ATOM     31  C   UNL     1      -1.541   5.043   0.734  0.00  0.00    +0.002 C 
ATOM     32  C   UNL     1      -0.258   4.248   0.467  0.00  0.00    +0.112 C 
ATOM     33  N   UNL     1      -0.567   2.814   0.541  0.00  0.00    -0.176 NA
ATOM     34  C   UNL     1      -1.657   2.282  -0.288  0.00  0.00    +0.112 C 
ATOM     35  C   UNL     1      -2.002   4.801   2.172  0.00  0.00    +0.009 C 
ENDBRANCH  25  33
ENDBRANCH   1  25
TORSDOF 7
