REMARK  Name = ZINC09726543
REMARK  5 active torsions:
REMARK  status: ('A' for Active; 'I' for Inactive)
REMARK    1  A    between atoms: C_1  and  C_2
REMARK    2  A    between atoms: C_6  and  C_8
REMARK    3  A    between atoms: N_10  and  C_11
REMARK    4  A    between atoms: C_11  and  C_12
REMARK    5  A    between atoms: C_17  and  C_20
REMARK                            x       y       z     vdW  Elec       q    Type
REMARK                         _______ _______ _______ _____ _____    ______ ____
ROOT
ATOM      1  C   UNL     1       0.104  -6.416   3.418  0.00  0.00    +0.236 C 
ATOM      2  O   UNL     1       0.104  -6.810   2.271  0.00  0.00    -0.274 OA
ATOM      3  N   UNL     1       0.120  -7.301   4.434  0.00  0.00    -0.263 N 
ATOM      4  C   UNL     1       0.137  -8.665   4.167  0.00  0.00    +0.165 A 
ATOM      5  N   UNL     1       0.149  -9.662   5.023  0.00  0.00    -0.225 NA
ATOM      6  C   UNL     1       0.164 -10.922   4.608  0.00  0.00    +0.082 A 
ATOM      7  C   UNL     1       0.167 -11.121   3.256  0.00  0.00    +0.077 A 
ATOM      8  S   UNL     1       0.140  -9.434   2.671  0.00  0.00    -0.060 S 
ATOM      9  H   UNL     1       0.120  -6.986   5.351  0.00  0.00    +0.157 HD
ENDROOT
BRANCH   6  10
ATOM     10  C   UNL     1       0.178 -12.057   5.563  0.00  0.00    +0.026 A 
ATOM     11  C   UNL     1       0.200 -13.375   5.252  0.00  0.00    +0.093 A 
ATOM     12  N   UNL     1       0.207 -14.121   6.399  0.00  0.00    -0.360 N 
ATOM     13  H   UNL     1       0.223 -15.090   6.431  0.00  0.00    +0.165 HD
ATOM     14  C   UNL     1       0.189 -13.294   7.501  0.00  0.00    +0.047 A 
ATOM     15  C   UNL     1       0.176 -11.969   7.032  0.00  0.00    +0.009 A 
ATOM     16  C   UNL     1       0.162 -10.909   7.938  0.00  0.00    +0.010 A 
ATOM     17  C   UNL     1       0.164 -11.164   9.281  0.00  0.00    +0.001 A 
ATOM     18  C   UNL     1       0.180 -12.470   9.750  0.00  0.00    +0.002 A 
ATOM     19  C   UNL     1       0.187 -13.531   8.872  0.00  0.00    +0.026 A 
ENDBRANCH   6  10
BRANCH   1  20
ATOM     20  C   UNL     1       0.086  -4.937   3.707  0.00  0.00    +0.200 C 
BRANCH  20  23
ATOM     21  C   UNL     1       0.052  -2.845   2.458  0.00  0.00    +0.244 C 
ATOM     22  O   UNL     1       0.049  -2.248   3.516  0.00  0.00    -0.270 OA
ATOM     23  N   UNL     1       0.070  -4.193   2.445  0.00  0.00    -0.303 N 
ATOM     24  H   UNL     1       0.072  -4.670   1.601  0.00  0.00    +0.150 HD
BRANCH  21  30
ATOM     25  C   UNL     1      -0.018   1.503   0.010  0.00  0.00    +0.044 C 
ATOM     26  C   UNL     1       0.002  -0.004   0.002  0.00  0.00    -0.050 A 
ATOM     27  C   UNL     1       0.006  -0.688  -1.201  0.00  0.00    +0.003 A 
ATOM     28  C   UNL     1       0.025  -2.071  -1.218  0.00  0.00    +0.001 A 
ATOM     29  C   UNL     1       0.040  -2.778  -0.033  0.00  0.00    +0.013 A 
ATOM     30  C   UNL     1       0.036  -2.095   1.184  0.00  0.00    +0.037 A 
ATOM     31  C   UNL     1       0.023  -0.699   1.194  0.00  0.00    +0.016 A 
ENDBRANCH  21  30
ENDBRANCH  20  23
ENDBRANCH   1  20
TORSDOF 4
