REMARK  Name = ZINC50036904
REMARK  4 active torsions:
REMARK  status: ('A' for Active; 'I' for Inactive)
REMARK    1  A    between atoms: C_2  and  C_10
REMARK    2  A    between atoms: C_3  and  N_9
REMARK    3  A    between atoms: N_14  and  C_15
REMARK    4  A    between atoms: C_15  and  C_16
REMARK                            x       y       z     vdW  Elec       q    Type
REMARK                         _______ _______ _______ _____ _____    ______ ____
ROOT
ATOM      1  C   UNL     1       1.234   3.595   0.072  0.00  0.00    +0.184 A 
ATOM      2  N   UNL     1       2.315   4.347   0.101  0.00  0.00    -0.108 NA
ATOM      3  N   UNL     1       2.011   5.579  -0.098  0.00  0.00    -0.023 NA
ATOM      4  N   UNL     1       0.740   5.707  -0.266  0.00  0.00    -0.044 NA
ATOM      5  N   UNL     1       0.183   4.420  -0.168  0.00  0.00    -0.225 N 
ENDROOT
BRANCH   1   7
ATOM      6  C   UNL     1       0.474   1.335  -0.646  0.00  0.00    +0.054 A 
ATOM      7  C   UNL     1       1.177   2.130   0.260  0.00  0.00    +0.044 A 
ATOM      8  C   UNL     1       1.829   1.534   1.347  0.00  0.00    +0.038 A 
ATOM      9  C   UNL     1       1.771   0.158   1.515  0.00  0.00    +0.064 A 
ATOM     10  C   UNL     1       1.072  -0.621   0.612  0.00  0.00    +0.160 A 
ATOM     11  C   UNL     1       0.424  -0.033  -0.467  0.00  0.00    +0.159 A 
ATOM     12  F   UNL     1      -0.257  -0.802  -1.345  0.00  0.00    -0.202 F 
ATOM     13  F   UNL     1       1.018  -1.960   0.779  0.00  0.00    -0.202 F 
BRANCH   8  14
ATOM     14  N   UNL     1       2.534   2.321   2.257  0.00  0.00    -0.357 N 
ATOM     15  H   UNL     1       2.488   3.288   2.200  0.00  0.00    +0.142 HD
ATOM     16  H   UNL     1       3.072   1.901   2.947  0.00  0.00    +0.142 HD
ENDBRANCH   8  14
ENDBRANCH   1   7
BRANCH   5  17
ATOM     17  C   UNL     1      -1.228   4.048  -0.294  0.00  0.00    +0.151 C 
BRANCH  17  18
ATOM     18  C   UNL     1      -1.885   4.061   1.087  0.00  0.00    +0.011 C 
ATOM     19  C   UNL     1      -1.890   5.489   1.637  0.00  0.00    +0.005 C 
ATOM     20  C   UNL     1      -2.547   5.501   3.018  0.00  0.00    +0.000 C 
ATOM     21  C   UNL     1      -3.985   4.994   2.904  0.00  0.00    +0.000 C 
ATOM     22  C   UNL     1      -3.980   3.566   2.354  0.00  0.00    +0.000 C 
ATOM     23  C   UNL     1      -3.324   3.553   0.973  0.00  0.00    +0.005 C 
ENDBRANCH  17  18
ENDBRANCH   5  17
TORSDOF 4
