REMARK  Name = ZINC01701136
REMARK  2 active torsions:
REMARK  status: ('A' for Active; 'I' for Inactive)
REMARK    1  A    between atoms: C_4  and  C_7
REMARK    2  A    between atoms: C_9  and  C_17
REMARK                            x       y       z     vdW  Elec       q    Type
REMARK                         _______ _______ _______ _____ _____    ______ ____
ROOT
ATOM      1  C   UNL     1       1.457  -0.523  -0.057  0.00  0.00    +0.085 C 
ATOM      2  C   UNL     1       0.003  -0.010  -0.164  0.00  0.00    +0.194 C 
ATOM      3  C   UNL     1      -0.658  -0.458   1.124  0.00  0.00    +0.320 C 
ATOM      4  O   UNL     1      -1.846  -0.569   1.309  0.00  0.00    -0.250 OA
ATOM      5  O   UNL     1       0.309  -0.711   2.028  0.00  0.00    -0.457 OA
ATOM      6  C   UNL     1       1.476  -1.208   1.320  0.00  0.00    +0.122 C 
ATOM      7  C   UNL     1       1.955  -2.647   1.477  0.00  0.00    +0.052 C 
ATOM      8  C   UNL     1       2.789  -1.493   2.040  0.00  0.00    +0.052 C 
ENDROOT
BRANCH   1  12
ATOM      9  C   UNL     1       4.221   2.733  -0.166  0.00  0.00    +0.000 A 
ATOM     10  C   UNL     1       4.137   1.861  -1.236  0.00  0.00    +0.000 A 
ATOM     11  C   UNL     1       3.242   0.808  -1.201  0.00  0.00    +0.004 A 
ATOM     12  C   UNL     1       2.432   0.625  -0.095  0.00  0.00    -0.039 A 
ATOM     13  C   UNL     1       2.513   1.500   0.972  0.00  0.00    +0.004 A 
ATOM     14  C   UNL     1       3.411   2.550   0.939  0.00  0.00    +0.000 A 
ENDBRANCH   1  12
BRANCH   2  15
ATOM     15  C   UNL     1      -0.018   1.493  -0.270  0.00  0.00    +0.225 C 
ATOM     16  O   UNL     1      -0.150   2.169   0.728  0.00  0.00    -0.275 OA
ATOM     17  N   UNL     1       0.116   2.086  -1.473  0.00  0.00    -0.329 N 
ATOM     18  H   UNL     1       0.226   1.545  -2.271  0.00  0.00    +0.145 HD
ATOM     19  H   UNL     1       0.103   3.053  -1.541  0.00  0.00    +0.145 HD
ENDBRANCH   2  15
TORSDOF 2
