REMARK  Name = ZINC21543503
REMARK  7 active torsions:
REMARK  status: ('A' for Active; 'I' for Inactive)
REMARK    1  A    between atoms: C_4  and  C_7
REMARK    2  A    between atoms: C_12  and  C_19
REMARK    3  A    between atoms: C_19  and  O_21
REMARK    4  A    between atoms: O_21  and  C_22
REMARK    5  A    between atoms: C_22  and  C_23
REMARK    6  A    between atoms: N_28  and  C_29
REMARK    7  A    between atoms: C_29  and  C_30
REMARK                            x       y       z     vdW  Elec       q    Type
REMARK                         _______ _______ _______ _____ _____    ______ ____
ROOT
ATOM      1  C   UNL     1       4.804   1.381  -0.036  0.00  0.00    +0.340 C 
ATOM      2  O   UNL     1       4.979   0.179  -0.044  0.00  0.00    -0.245 OA
ENDROOT
BRANCH   1   7
ATOM      3  C   UNL     1      10.733   3.108  -0.592  0.00  0.00    +0.211 C 
ATOM      4  C   UNL     1       9.741   2.069  -0.069  0.00  0.00    +0.085 C 
ATOM      5  C   UNL     1       8.345   2.634  -0.063  0.00  0.00    -0.029 A 
ATOM      6  C   UNL     1       7.261   1.780  -0.058  0.00  0.00    +0.019 A 
ATOM      7  C   UNL     1       5.965   2.298  -0.043  0.00  0.00    +0.059 A 
ATOM      8  C   UNL     1       5.761   3.679  -0.039  0.00  0.00    +0.016 A 
ATOM      9  C   UNL     1       6.844   4.533  -0.041  0.00  0.00    +0.016 A 
ATOM     10  C   UNL     1       8.138   4.013  -0.058  0.00  0.00    +0.062 A 
ATOM     11  C   UNL     1       9.309   4.925  -0.071  0.00  0.00    +0.340 C 
ATOM     12  O   UNL     1       9.179   6.121  -0.241  0.00  0.00    -0.245 OA
ATOM     13  O   UNL     1      10.530   4.366   0.117  0.00  0.00    -0.453 OA
BRANCH   3  17
ATOM     14  C   UNL     1      14.723   1.730   0.062  0.00  0.00    +0.000 A 
ATOM     15  C   UNL     1      14.145   1.607  -1.188  0.00  0.00    +0.000 A 
ATOM     16  C   UNL     1      12.854   2.053  -1.399  0.00  0.00    +0.007 A 
ATOM     17  C   UNL     1      12.140   2.622  -0.361  0.00  0.00    -0.007 A 
ATOM     18  C   UNL     1      12.720   2.750   0.887  0.00  0.00    +0.007 A 
ATOM     19  C   UNL     1      14.009   2.299   1.100  0.00  0.00    +0.000 A 
ENDBRANCH   3  17
ENDBRANCH   1   7
BRANCH   1  20
ATOM     20  O   UNL     1       3.553   1.878  -0.022  0.00  0.00    -0.452 OA
BRANCH  20  21
ATOM     21  C   UNL     1       2.462   0.920  -0.017  0.00  0.00    +0.328 C 
BRANCH  21  22
ATOM     22  C   UNL     1       1.147   1.655   0.000  0.00  0.00    +0.258 C 
ATOM     23  O   UNL     1       1.130   2.868   0.007  0.00  0.00    -0.272 OA
ATOM     24  N   UNL     1      -0.011   0.966   0.007  0.00  0.00    -0.237 N 
ATOM     25  C   UNL     1      -1.187   1.624   0.017  0.00  0.00    +0.306 C 
ATOM     26  O   UNL     1      -1.204   2.839   0.023  0.00  0.00    -0.252 OA
ATOM     27  N   UNL     1      -2.345   0.934   0.018  0.00  0.00    -0.292 N 
ATOM     28  H   UNL     1       0.004  -0.134   0.006  0.00  0.00    +0.159 HD
ATOM     29  H   UNL     1      -2.330  -0.166   0.012  0.00  0.00    +0.151 HD
BRANCH  27  30
ATOM     30  C   UNL     1      -3.624   1.649   0.028  0.00  0.00    +0.180 C 
BRANCH  30  31
ATOM     31  C   UNL     1      -4.756   0.654   0.028  0.00  0.00    +0.122 A 
ATOM     32  C   UNL     1      -5.341   0.129   1.119  0.00  0.00    +0.046 A 
ATOM     33  C   UNL     1      -6.348  -0.751   0.660  0.00  0.00    +0.041 A 
ATOM     34  C   UNL     1      -6.317  -0.711  -0.684  0.00  0.00    +0.195 A 
ATOM     35  O   UNL     1      -5.355   0.146  -1.061  0.00  0.00    -0.466 OA
ENDBRANCH  30  31
ENDBRANCH  27  30
ENDBRANCH  21  22
ENDBRANCH  20  21
ENDBRANCH   1  20
TORSDOF 7
