REMARK  Name = ZINC65892594
REMARK  9 active torsions:
REMARK  status: ('A' for Active; 'I' for Inactive)
REMARK    1  A    between atoms: C_1  and  C_2
REMARK    2  A    between atoms: C_5  and  N_14
REMARK    3  A    between atoms: C_6  and  O_8
REMARK    4  A    between atoms: O_8  and  C_9
REMARK    5  A    between atoms: C_9  and  C_10
REMARK    6  A    between atoms: C_15  and  C_17
REMARK    7  A    between atoms: C_17  and  N_18
REMARK    8  A    between atoms: N_18  and  C_19
REMARK    9  A    between atoms: C_24  and  N_25
REMARK                            x       y       z     vdW  Elec       q    Type
REMARK                         _______ _______ _______ _____ _____    ______ ____
ROOT
ATOM      1  N   UNL     1       0.109  -4.180  -0.030  0.00  0.00    -0.281 N 
ATOM      2  C   UNL     1      -0.000  -4.845  -1.197  0.00  0.00    +0.234 C 
ATOM      3  O   UNL     1      -0.014  -4.233  -2.244  0.00  0.00    -0.274 OA
ATOM      4  H   UNL     1       0.203  -4.672   0.801  0.00  0.00    +0.155 HD
ENDROOT
BRANCH   1   9
ATOM      5  C   UNL     1       0.012   1.497   0.023  0.00  0.00    +0.044 C 
ATOM      6  C   UNL     1       0.039  -0.010   0.011  0.00  0.00    -0.047 A 
ATOM      7  C   UNL     1      -0.558  -0.702  -1.026  0.00  0.00    +0.005 A 
ATOM      8  C   UNL     1      -0.537  -2.084  -1.042  0.00  0.00    +0.027 A 
ATOM      9  C   UNL     1       0.086  -2.779  -0.016  0.00  0.00    +0.076 A 
ATOM     10  C   UNL     1       0.689  -2.081   1.028  0.00  0.00    +0.142 A 
ATOM     11  C   UNL     1       0.667  -0.696   1.034  0.00  0.00    +0.051 A 
BRANCH  10  12
ATOM     12  O   UNL     1       1.301  -2.758   2.036  0.00  0.00    -0.481 OA
BRANCH  12  13
ATOM     13  C   UNL     1       1.897  -1.976   3.073  0.00  0.00    +0.342 C 
BRANCH  13  14
ATOM     14  C   UNL     1       2.532  -2.905   4.111  0.00  0.00    +0.424 C 
ATOM     15  F   UNL     1       3.513  -3.690   3.495  0.00  0.00    -0.167 F 
ATOM     16  F   UNL     1       3.116  -2.140   5.126  0.00  0.00    -0.167 F 
ATOM     17  F   UNL     1       1.547  -3.734   4.659  0.00  0.00    -0.167 F 
ENDBRANCH  13  14
ENDBRANCH  12  13
ENDBRANCH  10  12
ENDBRANCH   1   9
BRANCH   2  18
ATOM     18  C   UNL     1      -0.105  -6.348  -1.202  0.00  0.00    +0.198 C 
BRANCH  18  19
ATOM     19  N   UNL     1      -0.212  -6.826  -2.583  0.00  0.00    -0.334 N 
ATOM     20  H   UNL     1      -0.208  -6.192  -3.317  0.00  0.00    +0.147 HD
BRANCH  19  21
ATOM     21  C   UNL     1      -0.322  -8.194  -2.842  0.00  0.00    +0.058 A 
ATOM     22  C   UNL     1      -0.437  -9.095  -1.790  0.00  0.00    +0.025 A 
ATOM     23  C   UNL     1      -0.545 -10.447  -2.050  0.00  0.00    +0.002 A 
ATOM     24  C   UNL     1      -0.538 -10.904  -3.355  0.00  0.00    +0.002 A 
ATOM     25  C   UNL     1      -0.423 -10.011  -4.404  0.00  0.00    +0.034 A 
ATOM     26  C   UNL     1      -0.321  -8.657  -4.152  0.00  0.00    +0.147 A 
BRANCH  26  27
ATOM     27  N   UNL     1      -0.203  -7.700  -5.275  0.00  0.00    +0.058 N 
ATOM     28  O   UNL     1      -0.727  -6.613  -5.200  0.00  0.00    -0.126 OA
ATOM     29  O   UNL     1       0.416  -8.006  -6.267  0.00  0.00    -0.126 OA
ENDBRANCH  26  27
ENDBRANCH  19  21
ENDBRANCH  18  19
ENDBRANCH   2  18
TORSDOF 8
