REMARK  Name = ZINC13712296
REMARK  7 active torsions:
REMARK  status: ('A' for Active; 'I' for Inactive)
REMARK    1  A    between atoms: C_1  and  O_2
REMARK    2  A    between atoms: O_2  and  C_3
REMARK    3  A    between atoms: C_6  and  C_11
REMARK    4  A    between atoms: C_7  and  O_9
REMARK    5  A    between atoms: O_9  and  C_10
REMARK    6  A    between atoms: C_16  and  N_18
REMARK    7  A    between atoms: N_18  and  C_19
REMARK                            x       y       z     vdW  Elec       q    Type
REMARK                         _______ _______ _______ _____ _____    ______ ____
ROOT
ATOM      1  C   UNL     1       2.345  -2.459  -4.428  0.00  0.00    +0.032 C 
ATOM      2  C   UNL     1       2.860  -1.702  -5.433  0.00  0.00    +0.080 C 
ATOM      3  C   UNL     1       3.563  -2.117  -6.667  0.00  0.00    +0.276 C 
ATOM      4  O   UNL     1       3.769  -3.292  -6.926  0.00  0.00    -0.267 OA
ATOM      5  N   UNL     1       3.954  -1.151  -7.469  0.00  0.00    -0.152 NA
ATOM      6  C   UNL     1       3.736   0.127  -7.200  0.00  0.00    +0.175 C 
ATOM      7  S   UNL     1       2.870   0.074  -5.639  0.00  0.00    -0.050 S 
ENDROOT
BRANCH   1  11
ATOM      8  C   UNL     1      -0.076  -0.659  -1.453  0.00  0.00    +0.124 A 
ATOM      9  C   UNL     1       0.131  -0.016  -2.671  0.00  0.00    +0.046 A 
ATOM     10  C   UNL     1       0.911  -0.593  -3.632  0.00  0.00    +0.015 A 
ATOM     11  C   UNL     1       1.508  -1.838  -3.397  0.00  0.00    +0.018 A 
ATOM     12  C   UNL     1       1.301  -2.489  -2.168  0.00  0.00    +0.131 A 
ATOM     13  C   UNL     1       0.512  -1.890  -1.202  0.00  0.00    +0.091 A 
BRANCH   8  15
ATOM     14  C   UNL     1      -1.429   1.192  -0.829  0.00  0.00    +0.277 C 
ATOM     15  O   UNL     1      -0.853  -0.075  -0.506  0.00  0.00    -0.495 OA
ENDBRANCH   8  15
BRANCH  12  16
ATOM     16  O   UNL     1       1.875  -3.695  -1.929  0.00  0.00    -0.494 OA
ATOM     17  C   UNL     1       1.619  -4.295  -0.658  0.00  0.00    +0.277 C 
ENDBRANCH  12  16
ENDBRANCH   1  11
BRANCH   6  18
ATOM     18  N   UNL     1       4.087   1.225  -7.942  0.00  0.00    -0.190 NA
BRANCH  18  19
ATOM     19  C   UNL     1       4.564   1.064  -9.247  0.00  0.00    +0.074 A 
ATOM     20  C   UNL     1       4.232  -0.072  -9.974  0.00  0.00    +0.026 A 
ATOM     21  C   UNL     1       4.705  -0.229 -11.263  0.00  0.00    +0.002 A 
ATOM     22  C   UNL     1       5.508   0.744 -11.829  0.00  0.00    +0.002 A 
ATOM     23  C   UNL     1       5.842   1.876 -11.109  0.00  0.00    +0.022 A 
ATOM     24  C   UNL     1       5.367   2.042  -9.821  0.00  0.00    +0.064 A 
ATOM     25 CL   UNL     1       5.780   3.467  -8.920  0.00  0.00    -0.082 Cl
ENDBRANCH  18  19
ENDBRANCH   6  18
TORSDOF 5
