REMARK  Name = ZINC20212545
REMARK  10 active torsions:
REMARK  status: ('A' for Active; 'I' for Inactive)
REMARK    1  A    between atoms: C_1  and  C_2
REMARK    2  A    between atoms: C_2  and  C_3
REMARK    3  A    between atoms: C_6  and  C_9
REMARK    4  A    between atoms: C_10  and  C_15
REMARK    5  A    between atoms: N_16  and  N_17
REMARK    6  A    between atoms: N_17  and  S_18
REMARK    7  A    between atoms: S_18  and  C_21
REMARK    8  A    between atoms: C_24  and  C_27
REMARK    9  A    between atoms: C_27  and  C_28
REMARK   10  A    between atoms: C_27  and  C_29
REMARK                            x       y       z     vdW  Elec       q    Type
REMARK                         _______ _______ _______ _____ _____    ______ ____
ROOT
ATOM      1  C   UNL     1       1.529   4.239   0.651  0.00  0.00    +0.143 C 
ATOM      2  N   UNL     1       1.015   5.426   0.745  0.00  0.00    -0.174 NA
ENDROOT
BRANCH   1   4
ATOM      3  C   UNL     1       1.066   1.675   0.313  0.00  0.00    +0.101 A 
ATOM      4  C   UNL     1       0.649   3.061   0.537  0.00  0.00    +0.040 A 
ATOM      5  C   UNL     1      -0.716   3.050   0.619  0.00  0.00    +0.115 A 
ATOM      6  N   UNL     1      -1.133   1.779   0.464  0.00  0.00    -0.284 N 
ATOM      7  H   UNL     1      -2.208   1.546   0.493  0.00  0.00    +0.188 HD
ATOM      8  N   UNL     1      -0.027   0.944   0.281  0.00  0.00    -0.173 NA
BRANCH   3  12
ATOM      9  C   UNL     1       5.056   0.278  -0.135  0.00  0.00    -0.048 A 
ATOM     10  C   UNL     1       4.150  -0.453   0.612  0.00  0.00    +0.004 A 
ATOM     11  C   UNL     1       2.853  -0.004   0.761  0.00  0.00    +0.010 A 
ATOM     12  C   UNL     1       2.458   1.188   0.157  0.00  0.00    +0.003 A 
ATOM     13  C   UNL     1       3.374   1.918  -0.598  0.00  0.00    +0.010 A 
ATOM     14  C   UNL     1       4.669   1.461  -0.737  0.00  0.00    +0.004 A 
BRANCH   9  16
ATOM     15  C   UNL     1       6.561  -1.114  -1.531  0.00  0.00    +0.009 C 
ATOM     16  C   UNL     1       6.470  -0.218  -0.294  0.00  0.00    +0.032 C 
ENDBRANCH   9  16
ENDBRANCH   3  12
ENDBRANCH   1   4
BRANCH   2  17
ATOM     17  N   UNL     1       1.849   6.552   0.748  0.00  0.00    -0.137 N 
ATOM     18  H   UNL     1       2.813   6.442   0.752  0.00  0.00    +0.197 HD
BRANCH  17  19
ATOM     19  S   UNL     1       1.189   8.071   0.743  0.00  0.00    +0.086 S 
ATOM     20  O   UNL     1       2.263   8.981   0.934  0.00  0.00    -0.149 OA
ATOM     21  O   UNL     1       0.327   8.136  -0.385  0.00  0.00    -0.149 OA
BRANCH  19  22
ATOM     22  C   UNL     1       0.162   8.197   2.169  0.00  0.00    +0.110 A 
ATOM     23  C   UNL     1      -1.146   7.752   2.121  0.00  0.00    +0.029 A 
ATOM     24  C   UNL     1      -1.950   7.847   3.241  0.00  0.00    +0.006 A 
ATOM     25  C   UNL     1      -1.449   8.396   4.407  0.00  0.00    -0.045 A 
ATOM     26  C   UNL     1      -0.143   8.846   4.453  0.00  0.00    +0.006 A 
ATOM     27  C   UNL     1       0.662   8.747   3.334  0.00  0.00    +0.029 A 
BRANCH  25  28
ATOM     28  C   UNL     1      -2.327   8.503   5.627  0.00  0.00    +0.013 C 
ATOM     29  C   UNL     1      -3.546   9.370   5.304  0.00  0.00    +0.012 C 
ATOM     30  C   UNL     1      -2.792   7.107   6.045  0.00  0.00    +0.012 C 
ENDBRANCH  25  28
ENDBRANCH  19  22
ENDBRANCH  17  19
ENDBRANCH   2  17
TORSDOF 7
