REMARK  Name = ZINC06077513
REMARK  11 active torsions:
REMARK  status: ('A' for Active; 'I' for Inactive)
REMARK    1  A    between atoms: C_1  and  C_2
REMARK    2  A    between atoms: C_2  and  C_3
REMARK    3  A    between atoms: C_3  and  C_4
REMARK    4  A    between atoms: C_3  and  C_5
REMARK    5  A    between atoms: C_3  and  N_6
REMARK    6  A    between atoms: C_7  and  C_11
REMARK    7  A    between atoms: C_11  and  C_13
REMARK    8  A    between atoms: C_11  and  N_71
REMARK    9  A    between atoms: C_17  and  C_26
REMARK   10  A    between atoms: C_18  and  C_25
REMARK   11  A    between atoms: N_29  and  C_32
REMARK                            x       y       z     vdW  Elec       q    Type
REMARK                         _______ _______ _______ _____ _____    ______ ____
ROOT
ATOM      1  C   UNL     1      -4.670   3.732   0.215  0.00  0.00    +0.039 C 
ENDROOT
BRANCH   1   2
ATOM      2  C   UNL     1      -3.385   2.985   0.464  0.00  0.00    +0.011 A 
ATOM      3  C   UNL     1      -2.252   3.670   0.758  0.00  0.00    +0.017 A 
ATOM      4  C   UNL     1      -1.019   2.914   0.991  0.00  0.00    -0.001 A 
ATOM      5  C   UNL     1       0.184   3.565   1.283  0.00  0.00    +0.013 A 
ATOM      6  C   UNL     1       1.317   2.832   1.494  0.00  0.00    -0.047 A 
ATOM      7  C   UNL     1       1.285   1.446   1.421  0.00  0.00    -0.046 A 
ATOM      8  C   UNL     1       0.111   0.783   1.135  0.00  0.00    +0.030 A 
ATOM      9  C   UNL     1      -1.055   1.509   0.911  0.00  0.00    +0.049 A 
ATOM     10  N   UNL     1      -2.242   0.873   0.617  0.00  0.00    -0.322 N 
ATOM     11  H   UNL     1      -2.266  -0.125   0.564  0.00  0.00    +0.169 HD
ATOM     12  C   UNL     1      -3.368   1.575   0.400  0.00  0.00    +0.251 A 
ATOM     13  O   UNL     1      -4.399   0.980   0.143  0.00  0.00    -0.268 OA
ATOM     14  C   UNL     1       2.547   0.657   1.657  0.00  0.00    +0.044 C 
ATOM     15  C   UNL     1       2.612   3.534   1.809  0.00  0.00    +0.044 C 
ENDBRANCH   1   2
BRANCH   1  21
ATOM     16  C   UNL     1      -4.212   3.498  -2.151  0.00  0.00    -0.058 C 
ATOM     17  C   UNL     1      -4.794   3.008  -3.479  0.00  0.00    +0.086 C 
ATOM     18  N   UNL     1      -6.007   3.776  -3.792  0.00  0.00    -0.331 N 
ATOM     19  C   UNL     1      -7.013   3.622  -2.732  0.00  0.00    +0.086 C 
ATOM     20  C   UNL     1      -6.431   4.111  -1.404  0.00  0.00    -0.058 C 
ATOM     21  N   UNL     1      -5.225   3.316  -1.091  0.00  0.00    +0.391 N 
ATOM     22  H   UNL     1      -5.483   2.323  -1.042  0.00  0.00    -0.080 HD
BRANCH  18  23
ATOM     23  C   UNL     1      -6.528   3.406  -5.036  0.00  0.00    +0.065 A 
ATOM     24  C   UNL     1      -7.635   4.067  -5.551  0.00  0.00    +0.026 A 
ATOM     25  C   UNL     1      -8.145   3.701  -6.782  0.00  0.00    +0.002 A 
ATOM     26  C   UNL     1      -7.561   2.672  -7.497  0.00  0.00    +0.003 A 
ATOM     27  C   UNL     1      -6.462   2.007  -6.986  0.00  0.00    +0.040 A 
ATOM     28  C   UNL     1      -5.943   2.370  -5.756  0.00  0.00    +0.144 A 
ATOM     29  F   UNL     1      -4.869   1.721  -5.256  0.00  0.00    -0.204 F 
ENDBRANCH  18  23
ENDBRANCH   1  21
BRANCH   1  31
ATOM     30  N   UNL     1      -6.102   4.218   2.269  0.00  0.00    -0.225 N 
ATOM     31  C   UNL     1      -5.664   3.396   1.296  0.00  0.00    +0.143 A 
ATOM     32  N   UNL     1      -6.266   2.246   1.477  0.00  0.00    -0.115 NA
ATOM     33  N   UNL     1      -7.037   2.356   2.503  0.00  0.00    -0.023 NA
ATOM     34  N   UNL     1      -6.943   3.547   2.982  0.00  0.00    -0.043 NA
BRANCH  30  35
ATOM     35  C   UNL     1      -5.702   5.612   2.476  0.00  0.00    +0.061 C 
ATOM     36  C   UNL     1      -4.183   5.686   2.647  0.00  0.00    +0.036 C 
ATOM     37  C   UNL     1      -6.121   6.448   1.265  0.00  0.00    +0.036 C 
BRANCH  35  39
ATOM     38  C   UNL     1      -5.966   7.612   3.949  0.00  0.00    +0.006 C 
ATOM     39  C   UNL     1      -6.384   6.156   3.733  0.00  0.00    +0.026 C 
ENDBRANCH  35  39
ENDBRANCH  30  35
ENDBRANCH   1  31
TORSDOF 6
