REMARK  Name = ZINC08774084
REMARK  9 active torsions:
REMARK  status: ('A' for Active; 'I' for Inactive)
REMARK    1  A    between atoms: C_1  and  C_2
REMARK    2  A    between atoms: C_2  and  C_4
REMARK    3  A    between atoms: C_2  and  O_23
REMARK    4  A    between atoms: N_6  and  C_7
REMARK    5  A    between atoms: O_23  and  C_24
REMARK    6  A    between atoms: C_24  and  C_26
REMARK    7  A    between atoms: C_26  and  N_34
REMARK    8  A    between atoms: C_27  and  C_28
REMARK    9  A    between atoms: C_35  and  C_37
REMARK                            x       y       z     vdW  Elec       q    Type
REMARK                         _______ _______ _______ _____ _____    ______ ____
ROOT
ATOM      1  C   UNL     1      -0.735   3.564   0.676  0.00  0.00    +0.258 C 
ATOM      2  O   UNL     1       0.200   4.322   0.525  0.00  0.00    -0.271 OA
ATOM      3  N   UNL     1      -0.517   2.239   0.784  0.00  0.00    -0.282 N 
ATOM      4  H   UNL     1      -1.268   1.626   0.830  0.00  0.00    +0.155 HD
ENDROOT
BRANCH   3   5
ATOM      5  C   UNL     1       0.787   1.748   0.828  0.00  0.00    +0.034 A 
ATOM      6  C   UNL     1       1.093   0.538   0.215  0.00  0.00    +0.024 A 
ATOM      7  C   UNL     1       2.379   0.039   0.257  0.00  0.00    +0.014 A 
ATOM      8  C   UNL     1       3.381   0.750   0.917  0.00  0.00    +0.033 A 
ATOM      9  C   UNL     1       3.076   1.976   1.538  0.00  0.00    +0.035 A 
ATOM     10  C   UNL     1       1.778   2.469   1.490  0.00  0.00    +0.035 A 
ATOM     11  C   UNL     1       4.134   2.735   2.238  0.00  0.00    +0.195 C 
ATOM     12  O   UNL     1       3.871   3.792   2.775  0.00  0.00    -0.287 OA
ATOM     13  C   UNL     1       5.513   2.204   2.284  0.00  0.00    +0.033 A 
ATOM     14  C   UNL     1       6.516   2.910   2.942  0.00  0.00    +0.012 A 
ATOM     15  C   UNL     1       7.803   2.404   2.981  0.00  0.00    +0.001 A 
ATOM     16  C   UNL     1       8.102   1.200   2.370  0.00  0.00    +0.001 A 
ATOM     17  C   UNL     1       7.117   0.485   1.712  0.00  0.00    +0.012 A 
ATOM     18  C   UNL     1       5.816   0.979   1.663  0.00  0.00    +0.033 A 
ATOM     19  C   UNL     1       4.758   0.222   0.963  0.00  0.00    +0.195 C 
ATOM     20  O   UNL     1       5.021  -0.837   0.426  0.00  0.00    -0.287 OA
ENDBRANCH   3   5
BRANCH   1  22
ATOM     21  C   UNL     1      -2.939   3.599  -0.459  0.00  0.00    +0.062 C 
ATOM     22  C   UNL     1      -2.140   4.105   0.743  0.00  0.00    +0.259 C 
BRANCH  22  23
ATOM     23  O   UNL     1      -2.102   5.556   0.722  0.00  0.00    -0.448 OA
BRANCH  23  24
ATOM     24  C   UNL     1      -3.093   6.204   1.368  0.00  0.00    +0.354 C 
ATOM     25  O   UNL     1      -3.965   5.573   1.933  0.00  0.00    -0.244 OA
BRANCH  24  26
ATOM     26  C   UNL     1      -3.119   7.672   1.389  0.00  0.00    +0.119 C 
ATOM     27  C   UNL     1      -4.113   8.323   2.037  0.00  0.00    +0.038 C 
BRANCH  27  28
ATOM     28  C   UNL     1      -4.072   9.787   2.166  0.00  0.00    -0.023 A 
ATOM     29  C   UNL     1      -2.846  10.460   2.155  0.00  0.00    +0.008 A 
ATOM     30  C   UNL     1      -2.816  11.834   2.272  0.00  0.00    +0.001 A 
ATOM     31  C   UNL     1      -3.995  12.546   2.410  0.00  0.00    +0.000 A 
ATOM     32  C   UNL     1      -5.212  11.887   2.427  0.00  0.00    +0.001 A 
ATOM     33  C   UNL     1      -5.259  10.514   2.306  0.00  0.00    +0.008 A 
ENDBRANCH  27  28
BRANCH  26  34
ATOM     34  N   UNL     1      -2.115   8.399   0.739  0.00  0.00    -0.280 N 
ATOM     35  C   UNL     1      -0.822   8.198   1.061  0.00  0.00    +0.214 C 
ATOM     36  O   UNL     1      -0.520   7.321   1.842  0.00  0.00    -0.276 OA
ATOM     37  C   UNL     1       0.250   9.064   0.451  0.00  0.00    +0.109 C 
ATOM     38  H   UNL     1      -2.350   9.047   0.057  0.00  0.00    +0.155 HD
ENDBRANCH  26  34
ENDBRANCH  24  26
ENDBRANCH  23  24
ENDBRANCH  22  23
ENDBRANCH   1  22
TORSDOF 7
