REMARK  Name = ZINC20881549
REMARK  5 active torsions:
REMARK  status: ('A' for Active; 'I' for Inactive)
REMARK    1  A    between atoms: C_1  and  C_2
REMARK    2  A    between atoms: C_2  and  C_3
REMARK    3  A    between atoms: C_6  and  C_9
REMARK    4  A    between atoms: C_14  and  C_24
REMARK    5  A    between atoms: C_29  and  O_30
REMARK                            x       y       z     vdW  Elec       q    Type
REMARK                         _______ _______ _______ _____ _____    ______ ____
ROOT
ATOM      1  C   UNL     1      -4.831  -0.107   2.876  0.00  0.00    +0.032 C 
ATOM      2  C   UNL     1      -4.385  -0.165   1.415  0.00  0.00    +0.059 C 
ATOM      3  C   UNL     1      -3.629   1.102   1.054  0.00  0.00    +0.017 C 
ATOM      4  C   UNL     1      -3.949   2.275   1.629  0.00  0.00    +0.037 C 
ATOM      5  C   UNL     1      -3.292   3.605   1.352  0.00  0.00    +0.139 C 
ATOM      6  N   UNL     1      -2.419   3.619   0.210  0.00  0.00    -0.331 N 
ATOM      7  C   UNL     1      -1.252   2.855   0.175  0.00  0.00    +0.049 A 
ATOM      8  C   UNL     1       0.001   3.444   0.148  0.00  0.00    +0.025 A 
ATOM      9  C   UNL     1       1.129   2.644   0.204  0.00  0.00    +0.002 A 
ATOM     10  C   UNL     1       1.007   1.268   0.286  0.00  0.00    +0.002 A 
ATOM     11  C   UNL     1      -0.244   0.676   0.297  0.00  0.00    +0.025 A 
ATOM     12  C   UNL     1      -1.373   1.474   0.217  0.00  0.00    +0.052 A 
ATOM     13  N   UNL     1      -2.653   0.942   0.126  0.00  0.00    -0.316 N 
ATOM     14  C   UNL     1      -4.981   2.335   2.595  0.00  0.00    +0.163 C 
ATOM     15  O   UNL     1      -5.265   3.412   3.083  0.00  0.00    -0.292 OA
ATOM     16  C   UNL     1      -5.737   1.119   3.039  0.00  0.00    +0.088 C 
ATOM     17  H   UNL     1      -2.665   4.243  -0.663  0.00  0.00    +0.147 HD
ATOM     18  H   UNL     1      -2.849   0.353  -0.783  0.00  0.00    +0.152 HD
ENDROOT
BRANCH   5  19
ATOM     19  C   UNL     1      -2.486   4.000   2.563  0.00  0.00    +0.020 A 
ATOM     20  C   UNL     1      -2.156   3.052   3.513  0.00  0.00    +0.029 A 
ATOM     21  C   UNL     1      -1.417   3.414   4.625  0.00  0.00    +0.042 A 
ATOM     22  C   UNL     1      -1.007   4.726   4.789  0.00  0.00    +0.023 A 
ATOM     23  C   UNL     1      -1.336   5.676   3.842  0.00  0.00    +0.047 A 
ATOM     24  C   UNL     1      -2.071   5.314   2.723  0.00  0.00    +0.122 A 
ATOM     25 CL   UNL     1      -1.003   2.221   5.816  0.00  0.00    -0.084 Cl
BRANCH  24  26
ATOM     26  O   UNL     1      -2.391   6.246   1.787  0.00  0.00    -0.506 OA
ATOM     27  H   UNL     1      -2.061   7.288   1.914  0.00  0.00    +0.292 HD
ENDBRANCH  24  26
ENDBRANCH   5  19
BRANCH   1  31
ATOM     28  C   UNL     1      -6.996  -3.653   3.870  0.00  0.00    -0.048 A 
ATOM     29  C   UNL     1      -5.838  -3.336   4.555  0.00  0.00    +0.004 A 
ATOM     30  C   UNL     1      -5.137  -2.188   4.233  0.00  0.00    +0.004 A 
ATOM     31  C   UNL     1      -5.595  -1.358   3.226  0.00  0.00    -0.043 A 
ATOM     32  C   UNL     1      -6.755  -1.673   2.545  0.00  0.00    +0.004 A 
ATOM     33  C   UNL     1      -7.454  -2.823   2.864  0.00  0.00    +0.004 A 
BRANCH  28  35
ATOM     34  C   UNL     1      -8.791  -4.585   5.305  0.00  0.00    +0.009 C 
ATOM     35  C   UNL     1      -7.760  -4.904   4.221  0.00  0.00    +0.032 C 
ENDBRANCH  28  35
ENDBRANCH   1  31
TORSDOF 4
