REMARK  Name = ZINC34932397
REMARK  8 active torsions:
REMARK  status: ('A' for Active; 'I' for Inactive)
REMARK    1  A    between atoms: C_1  and  C_2
REMARK    2  A    between atoms: C_2  and  C_33
REMARK    3  A    between atoms: C_7  and  C_11
REMARK    4  A    between atoms: C_11  and  N_12
REMARK    5  A    between atoms: N_12  and  C_13
REMARK    6  A    between atoms: C_13  and  C_14
REMARK    7  A    between atoms: C_14  and  C_15
REMARK    8  A    between atoms: C_25  and  C_27
REMARK                            x       y       z     vdW  Elec       q    Type
REMARK                         _______ _______ _______ _____ _____    ______ ____
ROOT
ATOM      1  N   UNL     1       2.725  -2.581  -0.113  0.00  0.00    -0.293 N 
ATOM      2  C   UNL     1       2.756  -3.645  -0.940  0.00  0.00    +0.247 C 
ATOM      3  O   UNL     1       2.349  -4.724  -0.555  0.00  0.00    -0.270 OA
ENDROOT
BRANCH   2   4
ATOM      4  C   UNL     1       3.283  -3.500  -2.313  0.00  0.00    +0.037 A 
ATOM      5  C   UNL     1       4.282  -2.564  -2.585  0.00  0.00    +0.013 A 
ATOM      6  C   UNL     1       4.770  -2.434  -3.869  0.00  0.00    +0.001 A 
ATOM      7  C   UNL     1       4.271  -3.229  -4.886  0.00  0.00    +0.000 A 
ATOM      8  C   UNL     1       3.280  -4.158  -4.623  0.00  0.00    +0.001 A 
ATOM      9  C   UNL     1       2.788  -4.302  -3.342  0.00  0.00    +0.013 A 
ENDBRANCH   2   4
BRANCH   1  10
ATOM     10  C   UNL     1       2.070  -2.686   1.193  0.00  0.00    +0.138 C 
BRANCH  10  16
ATOM     11  C   UNL     1      -0.839   1.254  -0.025  0.00  0.00    +0.012 C 
ATOM     12  C   UNL     1      -0.668  -0.260   0.115  0.00  0.00    -0.025 C 
ATOM     13  C   UNL     1      -1.730  -0.927   1.013  0.00  0.00    -0.000 C 
ATOM     14  C   UNL     1      -1.753  -2.446   0.793  0.00  0.00    +0.031 C 
ATOM     15  C   UNL     1      -0.352  -2.997   0.901  0.00  0.00    -0.025 C 
ATOM     16  C   UNL     1       0.656  -2.177   1.088  0.00  0.00    -0.053 C 
ATOM     17  C   UNL     1       0.337  -0.675   1.206  0.00  0.00    +0.022 C 
ATOM     18  C   UNL     1      -0.843  -0.488   2.191  0.00  0.00    +0.012 C 
ATOM     19  C   UNL     1      -0.453  -0.965  -1.226  0.00  0.00    +0.012 C 
ENDBRANCH  10  16
ENDBRANCH   1  10
BRANCH   1  20
ATOM     20  C   UNL     1       3.347  -1.319  -0.522  0.00  0.00    +0.113 C 
BRANCH  20  21
ATOM     21  C   UNL     1       4.720  -1.189   0.141  0.00  0.00    +0.056 C 
BRANCH  21  22
ATOM     22  C   UNL     1       5.360   0.109  -0.279  0.00  0.00    -0.021 A 
ATOM     23  C   UNL     1       6.222   0.283  -1.292  0.00  0.00    +0.087 A 
ATOM     24  N   UNL     1       6.590   1.599  -1.372  0.00  0.00    -0.360 N 
ATOM     25  H   UNL     1       7.205   1.967  -2.025  0.00  0.00    +0.165 HD
ATOM     26  C   UNL     1       5.957   2.322  -0.386  0.00  0.00    +0.047 A 
ATOM     27  C   UNL     1       5.154   1.422   0.338  0.00  0.00    +0.003 A 
ATOM     28  C   UNL     1       4.383   1.881   1.407  0.00  0.00    +0.010 A 
ATOM     29  C   UNL     1       4.409   3.206   1.743  0.00  0.00    +0.001 A 
ATOM     30  C   UNL     1       5.197   4.098   1.030  0.00  0.00    +0.002 A 
ATOM     31  C   UNL     1       5.973   3.665  -0.023  0.00  0.00    +0.026 A 
ENDBRANCH  21  22
ENDBRANCH  20  21
ENDBRANCH   1  20
TORSDOF 6
