REMARK  Name = ZINC36204952
REMARK  16 active torsions:
REMARK  status: ('A' for Active; 'I' for Inactive)
REMARK    1  A    between atoms: C_1  and  C_2
REMARK    2  A    between atoms: C_15  and  C_17
REMARK    3  A    between atoms: C_17  and  N_18
REMARK    4  A    between atoms: N_18  and  C_19
REMARK    5  A    between atoms: N_18  and  C_23
REMARK    6  A    between atoms: C_19  and  C_20
REMARK    7  A    between atoms: C_20  and  O_21
REMARK    8  A    between atoms: O_21  and  C_22
REMARK    9  A    between atoms: C_23  and  C_24
REMARK   10  A    between atoms: C_24  and  C_26
REMARK   11  A    between atoms: C_24  and  O_32
REMARK   12  A    between atoms: C_26  and  O_27
REMARK   13  A    between atoms: O_27  and  C_28
REMARK   14  A    between atoms: C_28  and  C_29
REMARK   15  A    between atoms: C_29  and  C_30
REMARK   16  A    between atoms: C_29  and  C_31
REMARK                            x       y       z     vdW  Elec       q    Type
REMARK                         _______ _______ _______ _____ _____    ______ ____
ROOT
ATOM      1  C   UNL     1      -0.496  -7.801   3.290  0.00  0.00    -0.003 C 
ENDROOT
BRANCH   1  15
ATOM      2  C   UNL     1      -7.158 -11.706   9.575  0.00  0.00    +0.008 C 
ATOM      3  C   UNL     1      -6.323 -10.803   8.666  0.00  0.00    -0.009 C 
ATOM      4  C   UNL     1      -6.750 -11.004   7.209  0.00  0.00    +0.008 C 
ATOM      5  C   UNL     1      -6.103  -9.936   6.326  0.00  0.00    +0.037 C 
ATOM      6  C   UNL     1      -4.596  -9.939   6.572  0.00  0.00    -0.023 A 
ATOM      7  C   UNL     1      -4.083 -10.503   7.690  0.00  0.00    -0.004 A 
ATOM      8  S   UNL     1      -2.327 -10.280   7.559  0.00  0.00    -0.073 S 
ATOM      9  C   UNL     1      -2.285  -9.434   6.011  0.00  0.00    +0.116 A 
ATOM     10  C   UNL     1      -3.646  -9.352   5.644  0.00  0.00    +0.075 A 
ATOM     11  C   UNL     1      -3.948  -8.703   4.400  0.00  0.00    +0.260 A 
ATOM     12  O   UNL     1      -5.090  -8.580   3.993  0.00  0.00    -0.267 OA
ATOM     13  N   UNL     1      -2.882  -8.235   3.708  0.00  0.00    -0.312 N 
ATOM     14  H   UNL     1      -3.040  -7.788   2.862  0.00  0.00    +0.170 HD
ATOM     15  C   UNL     1      -1.605  -8.360   4.143  0.00  0.00    +0.094 A 
ATOM     16  N   UNL     1      -1.289  -8.948   5.276  0.00  0.00    -0.229 NA
ATOM     17  C   UNL     1      -4.838 -11.169   8.801  0.00  0.00    +0.046 C 
ENDBRANCH   1  15
BRANCH   1  18
ATOM     18  N   UNL     1       0.802  -8.172   3.868  0.00  0.00    +0.388 N 
ATOM     19  H   UNL     1       0.829  -7.896   4.838  0.00  0.00    -0.081 HD
BRANCH  18  20
ATOM     20  C   UNL     1       1.877  -7.492   3.134  0.00  0.00    -0.050 C 
BRANCH  20  21
ATOM     21  C   UNL     1       1.711  -5.977   3.275  0.00  0.00    +0.141 C 
BRANCH  21  22
ATOM     22  O   UNL     1       1.838  -5.609   4.650  0.00  0.00    -0.385 OA
ATOM     23  C   UNL     1       1.590  -4.226   4.907  0.00  0.00    +0.193 C 
ENDBRANCH  21  22
ENDBRANCH  20  21
ENDBRANCH  18  20
BRANCH  18  24
ATOM     24  C   UNL     1       0.985  -9.626   3.767  0.00  0.00    -0.044 C 
BRANCH  24  25
ATOM     25  C   UNL     1       2.232 -10.039   4.551  0.00  0.00    +0.124 C 
BRANCH  25  26
ATOM     26  O   UNL     1       3.395  -9.518   3.903  0.00  0.00    -0.391 OA
ATOM     27  H   UNL     1       3.512  -9.829   2.995  0.00  0.00    +0.210 HD
ENDBRANCH  25  26
BRANCH  25  28
ATOM     28  C   UNL     1       2.319 -11.566   4.604  0.00  0.00    +0.189 C 
BRANCH  28  29
ATOM     29  O   UNL     1       3.418 -11.951   5.433  0.00  0.00    -0.377 OA
BRANCH  29  30
ATOM     30  C   UNL     1       3.589 -13.365   5.551  0.00  0.00    +0.163 C 
BRANCH  30  31
ATOM     31  C   UNL     1       4.787 -13.661   6.455  0.00  0.00    +0.009 C 
ATOM     32  C   UNL     1       4.895 -15.170   6.682  0.00  0.00    +0.009 C 
ATOM     33  C   UNL     1       6.067 -13.153   5.787  0.00  0.00    +0.009 C 
ENDBRANCH  30  31
ENDBRANCH  29  30
ENDBRANCH  28  29
ENDBRANCH  25  28
ENDBRANCH  24  25
ENDBRANCH  18  24
ENDBRANCH   1  18
TORSDOF 12
