REMARK  Name = ZINC04537326
REMARK  6 active torsions:
REMARK  status: ('A' for Active; 'I' for Inactive)
REMARK    1  A    between atoms: C_3  and  C_6
REMARK    2  A    between atoms: C_9  and  S_12
REMARK    3  A    between atoms: N_10  and  N_11
REMARK    4  A    between atoms: S_12  and  C_13
REMARK    5  A    between atoms: C_13  and  C_14
REMARK    6  A    between atoms: N_16  and  C_17
REMARK                            x       y       z     vdW  Elec       q    Type
REMARK                         _______ _______ _______ _____ _____    ______ ____
ROOT
ATOM      1  C   UNL     1       0.919   5.124  -0.005  0.00  0.00    +0.188 A 
ATOM      2  N   UNL     1       0.215   6.201  -0.277  0.00  0.00    -0.126 NA
ATOM      3  N   UNL     1       0.955   7.247  -0.173  0.00  0.00    -0.121 NA
ATOM      4  C   UNL     1       2.178   6.904   0.163  0.00  0.00    +0.209 A 
ATOM      5  N   UNL     1       2.199   5.542   0.282  0.00  0.00    -0.223 N 
ENDROOT
BRANCH   1   8
ATOM      6  C   UNL     1      -1.073   1.912  -0.025  0.00  0.00    +0.008 A 
ATOM      7  C   UNL     1      -0.859   3.272  -0.012  0.00  0.00    +0.019 A 
ATOM      8  C   UNL     1       0.432   3.735  -0.012  0.00  0.00    +0.058 A 
ATOM      9  S   UNL     1       1.368   2.215  -0.022  0.00  0.00    -0.093 S 
ATOM     10  C   UNL     1      -0.004   1.073  -0.026  0.00  0.00    +0.046 A 
ENDBRANCH   1   8
BRANCH   5  11
ATOM     11  N   UNL     1       3.268   4.759   0.616  0.00  0.00    -0.295 N 
ATOM     12  H   UNL     1       3.780   4.476  -0.206  0.00  0.00    +0.163 HD
ATOM     13  H   UNL     1       3.871   5.231   1.273  0.00  0.00    +0.163 HD
ENDBRANCH   5  11
BRANCH   4  14
ATOM     14  S   UNL     1       3.538   7.996   0.413  0.00  0.00    -0.075 S 
BRANCH  14  15
ATOM     15  C   UNL     1       2.732   9.582   0.078  0.00  0.00    +0.173 C 
BRANCH  15  16
ATOM     16  C   UNL     1       3.734  10.697   0.236  0.00  0.00    +0.227 C 
ATOM     17  O   UNL     1       4.879  10.445   0.545  0.00  0.00    -0.275 OA
ATOM     18  N   UNL     1       3.356  11.976   0.035  0.00  0.00    -0.285 N 
ATOM     19  H   UNL     1       2.459  12.173  -0.277  0.00  0.00    +0.155 HD
BRANCH  18  20
ATOM     20  C   UNL     1       4.259  13.018   0.275  0.00  0.00    +0.033 A 
ATOM     21  C   UNL     1       3.804  14.230   0.776  0.00  0.00    +0.025 A 
ATOM     22  C   UNL     1       4.697  15.256   1.017  0.00  0.00    +0.022 A 
ATOM     23  C   UNL     1       6.044  15.079   0.749  0.00  0.00    +0.041 A 
ATOM     24  C   UNL     1       6.499  13.873   0.245  0.00  0.00    +0.022 A 
ATOM     25  C   UNL     1       5.610  12.843   0.008  0.00  0.00    +0.025 A 
ATOM     26 CL   UNL     1       7.163  16.372   1.048  0.00  0.00    -0.084 Cl
ENDBRANCH  18  20
ENDBRANCH  15  16
ENDBRANCH  14  15
ENDBRANCH   4  14
TORSDOF 6
