REMARK  Name = ZINC09600940
REMARK  10 active torsions:
REMARK  status: ('A' for Active; 'I' for Inactive)
REMARK    1  A    between atoms: C_1  and  C_2
REMARK    2  A    between atoms: C_5  and  C_7
REMARK    3  A    between atoms: C_12  and  C_17
REMARK    4  A    between atoms: C_23  and  C_37
REMARK    5  A    between atoms: C_24  and  C_25
REMARK    6  A    between atoms: C_25  and  O_27
REMARK    7  A    between atoms: O_27  and  C_28
REMARK    8  A    between atoms: C_28  and  C_29
REMARK    9  A    between atoms: C_29  and  O_30
REMARK   10  A    between atoms: O_30  and  C_31
REMARK                            x       y       z     vdW  Elec       q    Type
REMARK                         _______ _______ _______ _____ _____    ______ ____
ROOT
ATOM      1  C   UNL     1       4.863   7.656   0.085  0.00  0.00    +0.128 C 
ATOM      2  C   UNL     1       3.785   6.604   0.006  0.00  0.00    +0.027 C 
ATOM      3  C   UNL     1       3.302   6.026   1.126  0.00  0.00    +0.016 C 
ATOM      4  C   UNL     1       2.226   4.971   1.054  0.00  0.00    +0.060 C 
ATOM      5  C   UNL     1       2.357   4.192  -0.257  0.00  0.00    +0.039 C 
ATOM      6  C   UNL     1       2.248   5.181  -1.422  0.00  0.00    +0.088 C 
ATOM      7  C   UNL     1       3.302   6.242  -1.264  0.00  0.00    +0.162 C 
ATOM      8  O   UNL     1       3.744   6.797  -2.251  0.00  0.00    -0.292 OA
ATOM      9  N   UNL     1       3.780   6.389   2.357  0.00  0.00    -0.321 N 
ATOM     10  C   UNL     1       4.435   7.576   2.527  0.00  0.00    +0.016 C 
ATOM     11  C   UNL     1       4.965   8.219   1.472  0.00  0.00    +0.068 C 
ATOM     12  C   UNL     1       4.563   8.169   3.907  0.00  0.00    +0.061 C 
ATOM     13  H   UNL     1       3.638   5.723   3.220  0.00  0.00    +0.152 HD
ENDROOT
BRANCH   1  18
ATOM     14  C   UNL     1       8.907   4.641   0.116  0.00  0.00    +0.086 C 
ATOM     15  C   UNL     1       7.943   5.729  -0.283  0.00  0.00    +0.102 A 
ATOM     16  C   UNL     1       8.099   6.580  -1.312  0.00  0.00    +0.044 A 
ATOM     17  C   UNL     1       6.966   7.425  -1.321  0.00  0.00    +0.046 A 
ATOM     18  C   UNL     1       6.184   7.039  -0.296  0.00  0.00    +0.117 A 
ATOM     19  O   UNL     1       6.784   6.015   0.333  0.00  0.00    -0.464 OA
ENDBRANCH   1  18
BRANCH   5  20
ATOM     20  C   UNL     1       1.252   3.172  -0.352  0.00  0.00    -0.006 A 
ATOM     21  C   UNL     1       1.342   1.824  -0.456  0.00  0.00    +0.011 A 
ATOM     22  C   UNL     1       0.180   1.078  -0.532  0.00  0.00    +0.008 A 
ATOM     23  C   UNL     1      -1.015   1.719  -0.506  0.00  0.00    +0.045 A 
ATOM     24  S   UNL     1      -0.515   3.426  -0.360  0.00  0.00    -0.101 S 
ENDBRANCH   5  20
BRANCH  11  25
ATOM     25  C   UNL     1       5.632   9.450   1.674  0.00  0.00    +0.338 C 
ATOM     26  O   UNL     1       5.631   9.970   2.774  0.00  0.00    -0.245 OA
BRANCH  25  27
ATOM     27  O   UNL     1       6.269  10.049   0.645  0.00  0.00    -0.458 OA
BRANCH  27  28
ATOM     28  C   UNL     1       6.921  11.290   0.921  0.00  0.00    +0.273 C 
BRANCH  28  29
ATOM     29  C   UNL     1       7.583  11.812  -0.356  0.00  0.00    +0.270 C 
BRANCH  29  30
ATOM     30  O   UNL     1       6.576  12.120  -1.323  0.00  0.00    -0.489 OA
BRANCH  30  31
ATOM     31  C   UNL     1       6.999  12.600  -2.522  0.00  0.00    +0.121 A 
ATOM     32  C   UNL     1       8.354  12.775  -2.762  0.00  0.00    +0.045 A 
ATOM     33  C   UNL     1       8.781  13.258  -3.984  0.00  0.00    +0.004 A 
ATOM     34  C   UNL     1       7.858  13.575  -4.964  0.00  0.00    +0.000 A 
ATOM     35  C   UNL     1       6.507  13.406  -4.725  0.00  0.00    +0.004 A 
ATOM     36  C   UNL     1       6.075  12.919  -3.506  0.00  0.00    +0.045 A 
ENDBRANCH  30  31
ENDBRANCH  29  30
ENDBRANCH  28  29
ENDBRANCH  27  28
ENDBRANCH  25  27
ENDBRANCH  11  25
TORSDOF 8
