REMARK  Name = ZINC50322523
REMARK  8 active torsions:
REMARK  status: ('A' for Active; 'I' for Inactive)
REMARK    1  A    between atoms: C_1  and  C_2
REMARK    2  A    between atoms: C_2  and  C_3
REMARK    3  A    between atoms: C_3  and  C_4
REMARK    4  A    between atoms: C_5  and  N_22
REMARK    5  A    between atoms: C_6  and  C_10
REMARK    6  A    between atoms: N_12  and  C_13
REMARK    7  A    between atoms: N_12  and  C_14
REMARK    8  A    between atoms: C_14  and  C_15
REMARK                            x       y       z     vdW  Elec       q    Type
REMARK                         _______ _______ _______ _____ _____    ______ ____
ROOT
ATOM      1  C   UNL     1       0.329  -2.147  -0.365  0.00  0.00    +0.057 A 
ATOM      2  C   UNL     1      -0.563  -2.933  -1.024  0.00  0.00    +0.078 A 
ATOM      3  C   UNL     1       0.022  -4.226  -1.053  0.00  0.00    +0.168 A 
ATOM      4  N   UNL     1       1.184  -4.138  -0.433  0.00  0.00    -0.167 NA
ATOM      5  N   UNL     1       1.384  -2.935  -0.030  0.00  0.00    -0.279 N 
ATOM      6  H   UNL     1       2.173  -2.633   0.447  0.00  0.00    +0.189 HD
ENDROOT
BRANCH   3   7
ATOM      7  C   UNL     1      -0.559  -5.438  -1.659  0.00  0.00    +0.269 C 
ATOM      8  O   UNL     1      -1.683  -5.407  -2.122  0.00  0.00    -0.268 OA
ATOM      9  N   UNL     1       0.156  -6.579  -1.701  0.00  0.00    -0.295 N 
ATOM     10  C   UNL     1       1.487  -6.633  -1.090  0.00  0.00    +0.132 C 
BRANCH   9  11
ATOM     11  C   UNL     1      -0.397  -7.767  -2.357  0.00  0.00    +0.142 C 
BRANCH  11  12
ATOM     12  C   UNL     1      -0.006  -7.765  -3.812  0.00  0.00    -0.030 A 
ATOM     13  C   UNL     1      -0.818  -7.149  -4.745  0.00  0.00    +0.006 A 
ATOM     14  C   UNL     1      -0.460  -7.147  -6.080  0.00  0.00    +0.020 A 
ATOM     15  C   UNL     1       0.712  -7.763  -6.482  0.00  0.00    +0.041 A 
ATOM     16  C   UNL     1       1.525  -8.380  -5.547  0.00  0.00    +0.020 A 
ATOM     17  C   UNL     1       1.168  -8.376  -4.212  0.00  0.00    +0.006 A 
ATOM     18 CL   UNL     1       1.163  -7.761  -8.159  0.00  0.00    -0.084 Cl
ENDBRANCH  11  12
ENDBRANCH   9  11
ENDBRANCH   3   7
BRANCH   2  19
ATOM     19  N   UNL     1      -1.800  -2.549  -1.562  0.00  0.00    -0.355 N 
ATOM     20  H   UNL     1      -2.099  -1.629  -1.482  0.00  0.00    +0.142 HD
ATOM     21  H   UNL     1      -2.356  -3.202  -2.014  0.00  0.00    +0.142 HD
ENDBRANCH   2  19
BRANCH   1  22
ATOM     22  C   UNL     1       0.179  -0.677  -0.069  0.00  0.00    +0.056 C 
BRANCH  22  24
ATOM     23  C   UNL     1      -0.770   0.996   1.525  0.00  0.00    +0.004 C 
ATOM     24  C   UNL     1      -0.618  -0.496   1.224  0.00  0.00    +0.003 C 
ENDBRANCH  22  24
ENDBRANCH   1  22
TORSDOF 6
