REMARK  Name = ZINC35730694
REMARK  10 active torsions:
REMARK  status: ('A' for Active; 'I' for Inactive)
REMARK    1  A    between atoms: C_1  and  C_2
REMARK    2  A    between atoms: C_2  and  C_3
REMARK    3  A    between atoms: C_2  and  C_4
REMARK    4  A    between atoms: C_4  and  N_5
REMARK    5  A    between atoms: C_6  and  N_16
REMARK    6  A    between atoms: N_16  and  C_17
REMARK    7  A    between atoms: C_20  and  C_23
REMARK    8  A    between atoms: N_28  and  C_31
REMARK    9  A    between atoms: C_31  and  C_32
REMARK   10  A    between atoms: C_33  and  C_34
REMARK                            x       y       z     vdW  Elec       q    Type
REMARK                         _______ _______ _______ _____ _____    ______ ____
ROOT
ATOM      1  C   UNL     1      -1.507   3.100  -0.101  0.00  0.00    +0.029 A 
ATOM      2  C   UNL     1      -2.549   3.005   0.817  0.00  0.00    +0.024 A 
ATOM      3  C   UNL     1      -2.581   3.836   1.913  0.00  0.00    +0.015 A 
ATOM      4  C   UNL     1      -1.566   4.778   2.103  0.00  0.00    +0.037 A 
ATOM      5  C   UNL     1      -0.521   4.872   1.179  0.00  0.00    +0.015 A 
ATOM      6  C   UNL     1      -0.492   4.034   0.089  0.00  0.00    +0.024 A 
ENDROOT
BRANCH   4   7
ATOM      7  C   UNL     1      -1.598   5.672   3.277  0.00  0.00    +0.247 C 
ATOM      8  O   UNL     1      -1.294   6.843   3.158  0.00  0.00    -0.270 OA
ATOM      9  N   UNL     1      -1.963   5.190   4.481  0.00  0.00    -0.295 N 
ATOM     10  C   UNL     1      -2.211   3.753   4.676  0.00  0.00    +0.123 C 
ATOM     11  C   UNL     1      -1.400   3.279   5.887  0.00  0.00    +0.103 C 
ATOM     12  N   UNL     1      -1.715   4.126   7.045  0.00  0.00    -0.296 NA
ATOM     13  C   UNL     1      -1.318   5.520   6.809  0.00  0.00    +0.103 C 
ATOM     14  C   UNL     1      -2.119   6.085   5.637  0.00  0.00    +0.123 C 
BRANCH  12  15
ATOM     15  C   UNL     1      -1.091   3.600   8.266  0.00  0.00    +0.111 C 
BRANCH  15  16
ATOM     16  C   UNL     1      -1.628   4.341   9.464  0.00  0.00    -0.011 C 
ATOM     17  C   UNL     1      -2.176   3.670  10.467  0.00  0.00    +0.005 C 
BRANCH  17  18
ATOM     18  C   UNL     1      -2.703   4.397  11.642  0.00  0.00    -0.025 A 
ATOM     19  C   UNL     1      -2.630   5.790  11.694  0.00  0.00    +0.008 A 
ATOM     20  C   UNL     1      -3.124   6.462  12.793  0.00  0.00    +0.001 A 
ATOM     21  C   UNL     1      -3.689   5.759  13.842  0.00  0.00    +0.000 A 
ATOM     22  C   UNL     1      -3.764   4.378  13.796  0.00  0.00    +0.001 A 
ATOM     23  C   UNL     1      -3.280   3.694  12.700  0.00  0.00    +0.008 A 
ENDBRANCH  17  18
ENDBRANCH  15  16
ENDBRANCH  12  15
ENDBRANCH   4   7
BRANCH   1  24
ATOM     24  N   UNL     1      -1.478   2.259  -1.208  0.00  0.00    -0.322 N 
ATOM     25  H   UNL     1      -0.696   2.239  -1.782  0.00  0.00    +0.148 HD
BRANCH  24  27
ATOM     26  N   UNL     1      -2.322   0.009  -1.159  0.00  0.00    -0.275 N 
ATOM     27  C   UNL     1      -2.628   1.401  -1.506  0.00  0.00    +0.193 C 
ATOM     28  C   UNL     1      -2.914   1.414  -2.987  0.00  0.00    +0.003 A 
ATOM     29  C   UNL     1      -3.255   2.409  -3.873  0.00  0.00    +0.008 A 
ATOM     30  C   UNL     1      -3.460   2.107  -5.209  0.00  0.00    +0.000 A 
ATOM     31  C   UNL     1      -3.323   0.804  -5.656  0.00  0.00    +0.001 A 
ATOM     32  C   UNL     1      -2.981  -0.202  -4.776  0.00  0.00    +0.013 A 
ATOM     33  C   UNL     1      -2.772   0.096  -3.428  0.00  0.00    +0.043 A 
ATOM     34  C   UNL     1      -2.402  -0.742  -2.271  0.00  0.00    +0.249 C 
ATOM     35  O   UNL     1      -2.200  -1.939  -2.317  0.00  0.00    -0.270 OA
BRANCH  26  36
ATOM     36  C   UNL     1      -1.981  -0.481   0.179  0.00  0.00    +0.113 C 
BRANCH  36  38
ATOM     37  C   UNL     1      -3.936  -2.036   0.238  0.00  0.00    +0.009 C 
ATOM     38  C   UNL     1      -3.262  -0.849   0.930  0.00  0.00    +0.000 C 
ATOM     39  C   UNL     1      -2.917  -1.228   2.371  0.00  0.00    +0.009 C 
ENDBRANCH  36  38
ENDBRANCH  26  36
ENDBRANCH  24  27
ENDBRANCH   1  24
TORSDOF 8
