REMARK  Name = ZINC21242586
REMARK  8 active torsions:
REMARK  status: ('A' for Active; 'I' for Inactive)
REMARK    1  A    between atoms: C_1  and  C_2
REMARK    2  A    between atoms: C_2  and  N_3
REMARK    3  A    between atoms: C_12  and  S_13
REMARK    4  A    between atoms: S_13  and  C_14
REMARK    5  A    between atoms: C_14  and  C_15
REMARK    6  A    between atoms: C_17  and  O_18
REMARK    7  A    between atoms: C_27  and  C_29
REMARK    8  A    between atoms: C_31  and  C_35
REMARK                            x       y       z     vdW  Elec       q    Type
REMARK                         _______ _______ _______ _____ _____    ______ ____
ROOT
ATOM      1  S   UNL     1       1.305  -7.403   0.929  0.00  0.00    -0.083 S 
ENDROOT
BRANCH   1  11
ATOM      2  N   UNL     1       1.933  -8.711   3.216  0.00  0.00    -0.288 N 
ATOM      3  C   UNL     1       1.679  -9.353   4.372  0.00  0.00    +0.263 A 
ATOM      4  O   UNL     1       2.595  -9.769   5.061  0.00  0.00    -0.267 OA
ATOM      5  C   UNL     1       0.321  -9.541   4.779  0.00  0.00    +0.076 A 
ATOM      6  C   UNL     1      -0.182 -10.203   5.984  0.00  0.00    -0.023 A 
ATOM      7  C   UNL     1      -1.520 -10.253   6.142  0.00  0.00    -0.004 A 
ATOM      8  S   UNL     1      -2.183  -9.433   4.717  0.00  0.00    -0.073 S 
ATOM      9  C   UNL     1      -0.655  -9.024   3.911  0.00  0.00    +0.117 A 
ATOM     10  N   UNL     1      -0.338  -8.394   2.786  0.00  0.00    -0.216 NA
ATOM     11  C   UNL     1       0.921  -8.239   2.432  0.00  0.00    +0.173 A 
ATOM     12  C   UNL     1      -2.278 -10.868   7.279  0.00  0.00    +0.046 C 
ATOM     13  C   UNL     1      -1.300 -11.112   8.437  0.00  0.00    -0.009 C 
ATOM     14  C   UNL     1      -0.047 -11.799   7.884  0.00  0.00    +0.008 C 
ATOM     15  C   UNL     1       0.749 -10.815   7.027  0.00  0.00    +0.037 C 
ATOM     16  C   UNL     1      -1.959 -12.013   9.484  0.00  0.00    +0.008 C 
BRANCH   2  18
ATOM     17  C   UNL     1       3.844  -7.190   3.353  0.00  0.00    +0.027 C 
ATOM     18  C   UNL     1       3.322  -8.515   2.793  0.00  0.00    +0.124 C 
ENDBRANCH   2  18
ENDBRANCH   1  11
BRANCH   1  19
ATOM     19  C   UNL     1      -0.366  -7.024   0.344  0.00  0.00    +0.113 C 
BRANCH  19  20
ATOM     20  C   UNL     1      -0.284  -6.287  -0.967  0.00  0.00    -0.020 A 
ATOM     21  C   UNL     1      -0.277  -6.961  -2.147  0.00  0.00    +0.092 A 
ATOM     22  C   UNL     1      -0.199  -6.248  -3.361  0.00  0.00    +0.285 A 
ATOM     23  O   UNL     1      -0.132  -4.908  -3.389  0.00  0.00    -0.425 OA
ATOM     24  C   UNL     1      -0.135  -4.178  -2.253  0.00  0.00    +0.141 A 
ATOM     25  C   UNL     1      -0.210  -4.825  -1.005  0.00  0.00    +0.022 A 
ATOM     26  C   UNL     1      -0.215  -4.073   0.175  0.00  0.00    +0.013 A 
ATOM     27  C   UNL     1      -0.140  -2.712   0.112  0.00  0.00    +0.024 A 
ATOM     28  C   UNL     1      -0.071  -2.064  -1.121  0.00  0.00    +0.037 A 
ATOM     29  C   UNL     1      -0.065  -2.794  -2.300  0.00  0.00    +0.070 A 
ATOM     30  N   UNL     1       0.000  -0.672  -1.169  0.00  0.00    -0.286 N 
ATOM     31  C   UNL     1      -0.606  -0.000  -2.168  0.00  0.00    +0.214 C 
ATOM     32  O   UNL     1      -1.141  -0.609  -3.070  0.00  0.00    -0.276 OA
ATOM     33  C   UNL     1      -0.617   1.507  -2.165  0.00  0.00    +0.109 C 
ATOM     34  H   UNL     1       0.550  -0.122  -0.391  0.00  0.00    +0.155 HD
BRANCH  22  35
ATOM     35  O   UNL     1      -0.193  -6.865  -4.412  0.00  0.00    -0.480 OA
ATOM     36  H   UNL     1      -0.133  -6.323  -5.367  0.00  0.00    +0.295 HD
ENDBRANCH  22  35
ENDBRANCH  19  20
ENDBRANCH   1  19
TORSDOF 5
