REMARK  Name = ZINC12078234
REMARK  11 active torsions:
REMARK  status: ('A' for Active; 'I' for Inactive)
REMARK    1  A    between atoms: C_1  and  C_2
REMARK    2  A    between atoms: C_4  and  C_11
REMARK    3  A    between atoms: C_9  and  C_10
REMARK    4  A    between atoms: N_13  and  C_14
REMARK    5  A    between atoms: N_13  and  C_38
REMARK    6  A    between atoms: C_14  and  C_15
REMARK    7  A    between atoms: C_24  and  C_25
REMARK    8  A    between atoms: C_29  and  O_33
REMARK    9  A    between atoms: C_30  and  O_31
REMARK   10  A    between atoms: O_31  and  C_32
REMARK   11  A    between atoms: O_33  and  C_34
REMARK                            x       y       z     vdW  Elec       q    Type
REMARK                         _______ _______ _______ _____ _____    ______ ____
ROOT
ATOM      1  C   UNL     1      -2.982   0.403  -1.064  0.00  0.00    -0.003 A 
ATOM      2  C   UNL     1      -3.463   1.647  -0.785  0.00  0.00    +0.017 A 
ATOM      3  C   UNL     1      -2.732   2.763  -1.238  0.00  0.00    +0.001 A 
ATOM      4  C   UNL     1      -3.165   4.072  -0.982  0.00  0.00    +0.014 A 
ATOM      5  C   UNL     1      -2.439   5.133  -1.440  0.00  0.00    -0.043 A 
ATOM      6  C   UNL     1      -1.264   4.932  -2.164  0.00  0.00    -0.042 A 
ATOM      7  C   UNL     1      -0.815   3.671  -2.428  0.00  0.00    +0.032 A 
ATOM      8  C   UNL     1      -1.537   2.555  -1.972  0.00  0.00    +0.072 A 
ATOM      9  N   UNL     1      -1.115   1.312  -2.220  0.00  0.00    -0.246 NA
ATOM     10  C   UNL     1      -1.791   0.262  -1.795  0.00  0.00    +0.080 A 
ATOM     11  C   UNL     1      -0.668   6.272  -2.545  0.00  0.00    +0.036 C 
ATOM     12  C   UNL     1      -1.814   7.290  -2.369  0.00  0.00    +0.009 C 
ATOM     13  C   UNL     1      -2.697   6.619  -1.296  0.00  0.00    +0.036 C 
ENDROOT
BRANCH  10  14
ATOM     14  C   UNL     1      -1.282  -1.097  -2.095  0.00  0.00    +0.046 A 
ATOM     15  C   UNL     1      -2.126  -2.051  -2.665  0.00  0.00    +0.014 A 
ATOM     16  C   UNL     1      -1.650  -3.314  -2.944  0.00  0.00    +0.004 A 
ATOM     17  C   UNL     1      -0.335  -3.643  -2.661  0.00  0.00    +0.049 A 
ATOM     18  C   UNL     1       0.513  -2.706  -2.095  0.00  0.00    +0.162 A 
ATOM     19  C   UNL     1       0.046  -1.426  -1.813  0.00  0.00    +0.171 A 
BRANCH  19  20
ATOM     20  O   UNL     1       0.877  -0.502  -1.264  0.00  0.00    -0.491 OA
ATOM     21  C   UNL     1       0.931  -0.446   0.163  0.00  0.00    +0.277 C 
ENDBRANCH  19  20
BRANCH  18  22
ATOM     22  O   UNL     1       1.804  -3.034  -1.820  0.00  0.00    -0.491 OA
ATOM     23  C   UNL     1       2.217  -4.364  -2.140  0.00  0.00    +0.277 C 
ENDBRANCH  18  22
ENDBRANCH  10  14
BRANCH   1  24
ATOM     24  C   UNL     1      -3.729  -0.819  -0.595  0.00  0.00    +0.145 C 
BRANCH  24  27
ATOM     25  C   UNL     1      -3.937  -0.698   1.830  0.00  0.00    +0.252 C 
ATOM     26  O   UNL     1      -5.145  -0.565   1.798  0.00  0.00    -0.270 OA
ATOM     27  N   UNL     1      -3.282  -1.177   0.753  0.00  0.00    -0.290 N 
BRANCH  25  31
ATOM     28  C   UNL     1      -3.622  -0.307   6.805  0.00  0.00    +0.045 C 
ATOM     29  C   UNL     1      -3.023  -0.142   5.432  0.00  0.00    -0.031 A 
ATOM     30  C   UNL     1      -3.760  -0.502   4.304  0.00  0.00    +0.023 A 
ATOM     31  C   UNL     1      -3.189  -0.336   3.044  0.00  0.00    +0.101 A 
ATOM     32  C   UNL     1      -1.872   0.183   2.953  0.00  0.00    +0.261 A 
ATOM     33  O   UNL     1      -1.348   0.334   1.863  0.00  0.00    -0.267 OA
ATOM     34  N   UNL     1      -1.204   0.514   4.074  0.00  0.00    -0.326 N 
ATOM     35  H   UNL     1      -0.305   0.872   4.006  0.00  0.00    +0.169 HD
ATOM     36  C   UNL     1      -1.768   0.355   5.296  0.00  0.00    +0.019 A 
ATOM     37  C   UNL     1      -0.986   0.739   6.526  0.00  0.00    +0.063 C 
ENDBRANCH  25  31
BRANCH  27  38
ATOM     38  C   UNL     1      -2.124  -2.056   0.932  0.00  0.00    +0.077 C 
ATOM     39  C   UNL     1      -2.328  -3.338   1.742  0.00  0.00    +0.024 C 
ATOM     40  C   UNL     1      -1.535  -2.172   2.339  0.00  0.00    +0.024 C 
ENDBRANCH  27  38
ENDBRANCH  24  27
ENDBRANCH   1  24
TORSDOF 7
