REMARK  Name = ZINC39851691
REMARK  14 active torsions:
REMARK  status: ('A' for Active; 'I' for Inactive)
REMARK    1  A    between atoms: C_1  and  C_2
REMARK    2  A    between atoms: C_2  and  C_3
REMARK    3  A    between atoms: C_3  and  C_4
REMARK    4  A    between atoms: C_4  and  C_5
REMARK    5  A    between atoms: C_5  and  N_6
REMARK    6  A    between atoms: C_10  and  C_11
REMARK    7  A    between atoms: C_12  and  C_32
REMARK    8  A    between atoms: C_13  and  C_30
REMARK    9  A    between atoms: N_16  and  C_27
REMARK   10  A    between atoms: C_17  and  N_18
REMARK   11  A    between atoms: N_18  and  C_19
REMARK   12  A    between atoms: C_19  and  C_20
REMARK   13  A    between atoms: C_27  and  C_28
REMARK   14  A    between atoms: C_28  and  C_29
REMARK                            x       y       z     vdW  Elec       q    Type
REMARK                         _______ _______ _______ _____ _____    ______ ____
ROOT
ATOM      1  C   UNL     1      -2.801  -6.523  -3.542  0.00  0.00    +0.019 A 
ATOM      2  C   UNL     1      -2.699  -5.190  -3.974  0.00  0.00    -0.017 A 
ATOM      3  C   UNL     1      -2.558  -4.933  -5.335  0.00  0.00    +0.120 A 
ATOM      4  C   UNL     1      -2.521  -6.017  -6.249  0.00  0.00    +0.270 A 
ATOM      5  O   UNL     1      -2.397  -5.799  -7.441  0.00  0.00    -0.266 OA
ATOM      6  N   UNL     1      -2.621  -7.285  -5.809  0.00  0.00    -0.295 N 
ATOM      7  C   UNL     1      -2.754  -7.561  -4.486  0.00  0.00    +0.109 A 
ATOM      8  C   UNL     1      -2.742  -4.057  -2.982  0.00  0.00    +0.046 C 
ENDROOT
BRANCH   1  13
ATOM      9  N   UNL     1      -6.060  -8.725  -1.758  0.00  0.00    -0.255 N 
ATOM     10  C   UNL     1      -5.151  -8.024  -2.412  0.00  0.00    +0.258 C 
ATOM     11  O   UNL     1      -5.280  -7.781  -3.598  0.00  0.00    -0.269 OA
ATOM     12  C   UNL     1      -4.013  -7.559  -1.685  0.00  0.00    +0.077 C 
ATOM     13  C   UNL     1      -2.950  -6.827  -2.117  0.00  0.00    +0.032 C 
ATOM     14  S   UNL     1      -4.365  -8.199  -0.054  0.00  0.00    -0.061 S 
ATOM     15  C   UNL     1      -5.920  -8.989  -0.440  0.00  0.00    +0.121 C 
ATOM     16  S   UNL     1      -6.965  -9.863   0.597  0.00  0.00    -0.027 S 
BRANCH   9  17
ATOM     17  C   UNL     1      -7.241  -9.219  -2.470  0.00  0.00    +0.115 C 
BRANCH  17  18
ATOM     18  C   UNL     1      -8.355  -8.172  -2.399  0.00  0.00    +0.019 C 
BRANCH  18  19
ATOM     19  C   UNL     1      -9.588  -8.688  -3.143  0.00  0.00    +0.001 C 
BRANCH  19  21
ATOM     20  C   UNL     1     -11.935  -8.156  -3.816  0.00  0.00    +0.004 C 
ATOM     21  C   UNL     1     -10.701  -7.641  -3.072  0.00  0.00    -0.003 C 
ENDBRANCH  19  21
ENDBRANCH  18  19
ENDBRANCH  17  18
ENDBRANCH   9  17
ENDBRANCH   1  13
BRANCH   7  22
ATOM     22  N   UNL     1      -2.847  -8.858  -4.072  0.00  0.00    -0.326 N 
ATOM     23  H   UNL     1      -3.704  -9.312  -4.090  0.00  0.00    +0.148 HD
BRANCH  22  24
ATOM     24  C   UNL     1      -1.653  -9.564  -3.601  0.00  0.00    +0.138 C 
BRANCH  24  25
ATOM     25  C   UNL     1      -1.997 -11.005  -3.327  0.00  0.00    -0.030 A 
ATOM     26  C   UNL     1      -2.439 -11.383  -2.072  0.00  0.00    +0.008 A 
ATOM     27  C   UNL     1      -2.756 -12.704  -1.820  0.00  0.00    +0.038 A 
ATOM     28  C   UNL     1      -2.629 -13.650  -2.823  0.00  0.00    +0.123 A 
ATOM     29  C   UNL     1      -2.186 -13.270  -4.079  0.00  0.00    +0.038 A 
ATOM     30  C   UNL     1      -1.875 -11.947  -4.331  0.00  0.00    +0.008 A 
ATOM     31  F   UNL     1      -2.938 -14.942  -2.578  0.00  0.00    -0.205 F 
ENDBRANCH  24  25
ENDBRANCH  22  24
ENDBRANCH   7  22
BRANCH   3  32
ATOM     32  C   UNL     1      -2.451  -3.586  -5.809  0.00  0.00    +0.105 C 
ATOM     33  N   UNL     1      -2.367  -2.517  -6.184  0.00  0.00    -0.191 NA
ENDBRANCH   3  32
BRANCH   6  34
ATOM     34  C   UNL     1      -2.580  -8.386  -6.774  0.00  0.00    +0.126 C 
BRANCH  34  35
ATOM     35  C   UNL     1      -1.124  -8.742  -7.081  0.00  0.00    +0.018 C 
ATOM     36  C   UNL     1      -1.080  -9.806  -8.180  0.00  0.00    +0.005 C 
ENDBRANCH  34  35
ENDBRANCH   6  34
TORSDOF 11
