REMARK  Name = ZINC29898610
REMARK  8 active torsions:
REMARK  status: ('A' for Active; 'I' for Inactive)
REMARK    1  A    between atoms: C_3  and  C_6
REMARK    2  A    between atoms: C_6  and  C_8
REMARK    3  A    between atoms: C_6  and  N_26
REMARK    4  A    between atoms: C_8  and  N_9
REMARK    5  A    between atoms: C_10  and  C_12
REMARK    6  A    between atoms: C_12  and  C_13
REMARK    7  A    between atoms: C_13  and  C_14
REMARK    8  A    between atoms: C_17  and  C_19
REMARK                            x       y       z     vdW  Elec       q    Type
REMARK                         _______ _______ _______ _____ _____    ______ ____
ROOT
ATOM      1  N   UNL     1       0.807   2.238   0.559  0.00  0.00    -0.316 N 
ATOM      2  C   UNL     1       0.743   3.467   1.108  0.00  0.00    +0.213 C 
ATOM      3  O   UNL     1      -0.289   3.852   1.614  0.00  0.00    -0.276 OA
ATOM      4  H   UNL     1       1.744   1.889   0.100  0.00  0.00    +0.149 HD
ENDROOT
BRANCH   1   5
ATOM      5  C   UNL     1      -0.371   1.368   0.572  0.00  0.00    +0.096 C 
BRANCH   5   6
ATOM      6  C   UNL     1       0.001  -0.003   0.004  0.00  0.00    +0.016 C 
BRANCH   6   7
ATOM      7  N   UNL     1       1.100  -0.578   0.791  0.00  0.00    +0.387 N 
ATOM      8  C   UNL     1       1.529  -1.866   0.234  0.00  0.00    -0.078 C 
ATOM      9  C   UNL     1       2.765  -2.364   0.987  0.00  0.00    -0.019 C 
ATOM     10  C   UNL     1       2.423  -2.518   2.472  0.00  0.00    -0.004 C 
ATOM     11  C   UNL     1       1.933  -1.173   3.017  0.00  0.00    -0.019 C 
ATOM     12  C   UNL     1       0.721  -0.711   2.204  0.00  0.00    -0.078 C 
ATOM     13  H   UNL     1       1.954   0.113   0.737  0.00  0.00    -0.081 HD
ENDBRANCH   6   7
BRANCH   6  16
ATOM     14  C   UNL     1      -2.939  -2.176  -0.464  0.00  0.00    +0.041 A 
ATOM     15  C   UNL     1      -1.920  -1.343  -0.980  0.00  0.00    +0.043 A 
ATOM     16  C   UNL     1      -1.196  -0.916   0.071  0.00  0.00    +0.093 A 
ATOM     17  O   UNL     1      -1.725  -1.438   1.190  0.00  0.00    -0.469 OA
ATOM     18  C   UNL     1      -2.782  -2.203   0.872  0.00  0.00    +0.195 A 
ENDBRANCH   6  16
ENDBRANCH   5   6
ENDBRANCH   1   5
BRANCH   2  19
ATOM     19  C   UNL     1       1.956   4.362   1.095  0.00  0.00    +0.105 C 
BRANCH  19  20
ATOM     20  C   UNL     1       1.617   5.689   1.777  0.00  0.00    +0.105 C 
BRANCH  20  21
ATOM     21  C   UNL     1       2.830   6.584   1.763  0.00  0.00    +0.197 A 
ATOM     22  N   UNL     1       3.134   7.431   0.821  0.00  0.00    -0.221 NA
ATOM     23  C   UNL     1       4.276   8.054   1.148  0.00  0.00    +0.161 A 
ATOM     24  C   UNL     1       4.687   7.554   2.342  0.00  0.00    +0.155 A 
ATOM     25  O   UNL     1       3.771   6.633   2.716  0.00  0.00    -0.440 OA
BRANCH  24  26
ATOM     26  C   UNL     1       5.902   7.941   3.088  0.00  0.00    +0.019 A 
ATOM     27  C   UNL     1       6.193   7.340   4.314  0.00  0.00    +0.013 A 
ATOM     28  C   UNL     1       7.332   7.702   5.003  0.00  0.00    +0.021 A 
ATOM     29  C   UNL     1       8.180   8.668   4.487  0.00  0.00    +0.041 A 
ATOM     30  C   UNL     1       7.893   9.272   3.274  0.00  0.00    +0.021 A 
ATOM     31  C   UNL     1       6.761   8.914   2.573  0.00  0.00    +0.013 A 
ATOM     32 CL   UNL     1       9.606   9.124   5.364  0.00  0.00    -0.084 Cl
ENDBRANCH  24  26
ENDBRANCH  20  21
ENDBRANCH  19  20
ENDBRANCH   2  19
TORSDOF 8
