REMARK  Name = ZINC02108443
REMARK  12 active torsions:
REMARK  status: ('A' for Active; 'I' for Inactive)
REMARK    1  A    between atoms: C_1  and  C_2
REMARK    2  A    between atoms: C_2  and  C_3
REMARK    3  A    between atoms: C_3  and  C_4
REMARK    4  A    between atoms: C_4  and  C_5
REMARK    5  A    between atoms: C_5  and  C_6
REMARK    6  A    between atoms: C_6  and  C_8
REMARK    7  A    between atoms: C_6  and  N_9
REMARK    8  A    between atoms: C_10  and  C_12
REMARK    9  A    between atoms: C_17  and  N_18
REMARK   10  A    between atoms: C_21  and  C_39
REMARK   11  A    between atoms: C_26  and  O_32
REMARK   12  A    between atoms: O_32  and  C_33
REMARK                            x       y       z     vdW  Elec       q    Type
REMARK                         _______ _______ _______ _____ _____    ______ ____
ROOT
ATOM      1  N   UNL     1      -5.259   2.893  -5.810  0.00  0.00    -0.191 N 
ATOM      2  C   UNL     1      -5.413   4.097  -5.218  0.00  0.00    +0.257 C 
ATOM      3  O   UNL     1      -5.704   4.314  -4.061  0.00  0.00    -0.272 OA
ATOM      4  C   UNL     1      -5.145   5.116  -6.300  0.00  0.00    +0.153 C 
ATOM      5  C   UNL     1      -4.022   6.051  -5.917  0.00  0.00    +0.053 A 
ATOM      6  C   UNL     1      -2.923   6.232  -6.683  0.00  0.00    -0.015 A 
ATOM      7  C   UNL     1      -2.094   7.205  -5.994  0.00  0.00    +0.007 A 
ATOM      8  C   UNL     1      -0.858   7.780  -6.307  0.00  0.00    +0.056 A 
ATOM      9  C   UNL     1      -0.346   8.693  -5.396  0.00  0.00    +0.121 A 
ATOM     10  C   UNL     1      -1.025   9.022  -4.229  0.00  0.00    +0.047 A 
ATOM     11  C   UNL     1      -2.248   8.463  -3.905  0.00  0.00    +0.030 A 
ATOM     12  C   UNL     1      -2.785   7.544  -4.803  0.00  0.00    +0.047 A 
ATOM     13  N   UNL     1      -3.946   6.823  -4.790  0.00  0.00    -0.356 N 
ATOM     14  H   UNL     1      -4.615   6.855  -4.089  0.00  0.00    +0.166 HD
ATOM     15  C   UNL     1      -2.616   5.537  -7.986  0.00  0.00    +0.056 C 
ATOM     16  C   UNL     1      -3.879   4.859  -8.538  0.00  0.00    +0.115 C 
ATOM     17  N   UNL     1      -4.608   4.287  -7.405  0.00  0.00    -0.265 N 
ATOM     18  C   UNL     1      -4.850   3.016  -7.083  0.00  0.00    +0.317 C 
ATOM     19  O   UNL     1      -4.719   2.083  -7.851  0.00  0.00    -0.252 OA
ATOM     20  C   UNL     1      -6.411   5.878  -6.695  0.00  0.00    +0.048 C 
ENDROOT
BRANCH   1  26
ATOM     21  C   UNL     1      -4.452   1.023  -4.492  0.00  0.00    +0.059 A 
ATOM     22  C   UNL     1      -4.695  -0.202  -3.867  0.00  0.00    +0.015 A 
ATOM     23  C   UNL     1      -5.954  -0.760  -3.915  0.00  0.00    +0.001 A 
ATOM     24  C   UNL     1      -6.978  -0.118  -4.590  0.00  0.00    +0.002 A 
ATOM     25  C   UNL     1      -6.751   1.091  -5.218  0.00  0.00    +0.025 A 
ATOM     26  C   UNL     1      -5.491   1.671  -5.176  0.00  0.00    +0.058 A 
BRANCH  21  28
ATOM     27  N   UNL     1      -2.111   1.004  -3.782  0.00  0.00    -0.309 N 
ATOM     28  C   UNL     1      -3.107   1.630  -4.440  0.00  0.00    +0.246 C 
ATOM     29  O   UNL     1      -2.898   2.694  -4.990  0.00  0.00    -0.270 OA
ATOM     30  H   UNL     1      -2.278   0.155  -3.343  0.00  0.00    +0.149 HD
BRANCH  27  31
ATOM     31  C   UNL     1      -0.777   1.606  -3.730  0.00  0.00    +0.070 C 
ATOM     32  C   UNL     1       0.007   1.219  -4.986  0.00  0.00    +0.028 C 
BRANCH  31  33
ATOM     33  C   UNL     1      -0.037   1.099  -2.490  0.00  0.00    +0.022 C 
BRANCH  33  34
ATOM     34  C   UNL     1      -0.753   1.593  -1.232  0.00  0.00    +0.002 C 
BRANCH  34  35
ATOM     35  C   UNL     1      -0.013   1.086   0.008  0.00  0.00    -0.000 C 
BRANCH  35  37
ATOM     36  C   UNL     1       0.011   1.072   2.506  0.00  0.00    +0.004 C 
ATOM     37  C   UNL     1      -0.729   1.579   1.267  0.00  0.00    -0.003 C 
ENDBRANCH  35  37
ENDBRANCH  34  35
ENDBRANCH  33  34
ENDBRANCH  31  33
ENDBRANCH  27  31
ENDBRANCH  21  28
ENDBRANCH   1  26
BRANCH   9  38
ATOM     38  O   UNL     1       0.853   9.281  -5.653  0.00  0.00    -0.495 OA
ATOM     39  C   UNL     1       1.338  10.214  -4.685  0.00  0.00    +0.277 C 
ENDBRANCH   9  38
TORSDOF 8
