REMARK  Name = ZINC63912016
REMARK  7 active torsions:
REMARK  status: ('A' for Active; 'I' for Inactive)
REMARK    1  A    between atoms: C_1  and  C_2
REMARK    2  A    between atoms: C_3  and  C_20
REMARK    3  A    between atoms: C_7  and  N_8
REMARK    4  A    between atoms: N_8  and  S_9
REMARK    5  A    between atoms: S_9  and  C_12
REMARK    6  A    between atoms: C_15  and  N_17
REMARK    7  A    between atoms: N_22  and  C_23
REMARK                            x       y       z     vdW  Elec       q    Type
REMARK                         _______ _______ _______ _____ _____    ______ ____
ROOT
ATOM      1  C   UNL     1      -0.072   1.502   0.015  0.00  0.00    +0.046 C 
ATOM      2  C   UNL     1      -0.024  -0.005   0.004  0.00  0.00    -0.014 A 
ATOM      3  C   UNL     1      -0.099  -0.699  -1.203  0.00  0.00    +0.041 A 
ATOM      4  C   UNL     1      -0.054  -2.094  -1.205  0.00  0.00    +0.013 A 
ATOM      5  C   UNL     1       0.065  -2.782  -0.015  0.00  0.00    +0.003 A 
ATOM      6  C   UNL     1       0.140  -2.095   1.182  0.00  0.00    +0.027 A 
ATOM      7  C   UNL     1       0.102  -0.705   1.194  0.00  0.00    +0.078 A 
ENDROOT
BRANCH   3   8
ATOM      8  C   UNL     1      -0.228   0.041  -2.477  0.00  0.00    +0.244 C 
ATOM      9  O   UNL     1      -0.153   1.254  -2.486  0.00  0.00    -0.270 OA
ATOM     10  N   UNL     1      -0.427  -0.630  -3.629  0.00  0.00    -0.314 N 
ATOM     11  C   UNL     1      -0.554   0.103  -4.891  0.00  0.00    +0.128 C 
ATOM     12  H   UNL     1      -0.486  -1.598  -3.622  0.00  0.00    +0.149 HD
ENDBRANCH   3   8
BRANCH   7  13
ATOM     13  N   UNL     1       0.184  -0.015   2.406  0.00  0.00    -0.097 NA
BRANCH  13  14
ATOM     14  S   UNL     1       0.334  -0.851   3.827  0.00  0.00    +0.098 S 
ATOM     15  O   UNL     1      -0.878  -1.572   4.004  0.00  0.00    -0.148 OA
ATOM     16  O   UNL     1       1.602  -1.491   3.790  0.00  0.00    -0.148 OA
BRANCH  14  17
ATOM     17  C   UNL     1       0.408   0.337   5.126  0.00  0.00    +0.150 A 
ATOM     18  C   UNL     1      -0.604   0.875   5.849  0.00  0.00    +0.039 A 
ATOM     19  C   UNL     1      -0.308   1.802   6.831  0.00  0.00    +0.042 A 
ATOM     20  C   UNL     1       0.987   2.145   7.042  0.00  0.00    +0.165 A 
ATOM     21  S   UNL     1       1.836   1.139   5.836  0.00  0.00    -0.044 S 
BRANCH  20  22
ATOM     22  N   UNL     1       1.550   3.102   8.021  0.00  0.00    +0.063 N 
ATOM     23  O   UNL     1       0.816   3.699   8.773  0.00  0.00    -0.126 OA
ATOM     24  O   UNL     1       2.744   3.286   8.068  0.00  0.00    -0.126 OA
ENDBRANCH  20  22
ENDBRANCH  14  17
ENDBRANCH  13  14
ENDBRANCH   7  13
TORSDOF 5
