REMARK  Name = ZINC59890348
REMARK  12 active torsions:
REMARK  status: ('A' for Active; 'I' for Inactive)
REMARK    1  A    between atoms: C_1  and  C_2
REMARK    2  A    between atoms: C_2  and  C_3
REMARK    3  A    between atoms: C_3  and  C_4
REMARK    4  A    between atoms: C_4  and  C_33
REMARK    5  A    between atoms: N_5  and  N_6
REMARK    6  A    between atoms: C_9  and  S_12
REMARK    7  A    between atoms: S_12  and  C_13
REMARK    8  A    between atoms: C_13  and  C_14
REMARK    9  A    between atoms: N_16  and  C_17
REMARK   10  A    between atoms: C_20  and  S_23
REMARK   11  A    between atoms: S_23  and  N_26
REMARK   12  A    between atoms: C_29  and  C_32
REMARK                            x       y       z     vdW  Elec       q    Type
REMARK                         _______ _______ _______ _____ _____    ______ ____
ROOT
ATOM      1  C   UNL     1      -5.356  -8.840   7.431  0.00  0.00    +0.227 C 
ATOM      2  O   UNL     1      -6.094  -9.731   7.795  0.00  0.00    -0.275 OA
ATOM      3  N   UNL     1      -5.103  -7.798   8.248  0.00  0.00    -0.285 N 
ATOM      4  H   UNL     1      -4.462  -7.120   7.985  0.00  0.00    +0.155 HD
ENDROOT
BRANCH   3   5
ATOM      5  C   UNL     1      -5.766  -7.695   9.476  0.00  0.00    +0.034 A 
ATOM      6  C   UNL     1      -6.124  -6.448   9.971  0.00  0.00    +0.025 A 
ATOM      7  C   UNL     1      -6.779  -6.349  11.183  0.00  0.00    +0.030 A 
ATOM      8  C   UNL     1      -7.077  -7.491  11.904  0.00  0.00    +0.106 A 
ATOM      9  C   UNL     1      -6.722  -8.734  11.414  0.00  0.00    +0.030 A 
ATOM     10  C   UNL     1      -6.073  -8.840  10.200  0.00  0.00    +0.025 A 
BRANCH   8  11
ATOM     11  S   UNL     1      -7.912  -7.361  13.450  0.00  0.00    +0.061 S 
ATOM     12  O   UNL     1      -7.591  -8.534  14.185  0.00  0.00    -0.153 OA
ATOM     13  O   UNL     1      -7.649  -6.055  13.946  0.00  0.00    -0.153 OA
BRANCH  11  14
ATOM     14  N   UNL     1      -9.537  -7.429  13.137  0.00  0.00    -0.177 NA
ATOM     15  C   UNL     1     -10.300  -6.203  12.867  0.00  0.00    +0.110 C 
ATOM     16  C   UNL     1     -11.498  -6.148  13.821  0.00  0.00    +0.020 C 
ATOM     17  C   UNL     1     -12.312  -7.437  13.686  0.00  0.00    -0.012 C 
ATOM     18  C   UNL     1     -11.441  -8.635  14.073  0.00  0.00    +0.020 C 
ATOM     19  C   UNL     1     -10.242  -8.719  13.117  0.00  0.00    +0.110 C 
ATOM     20  C   UNL     1     -13.528  -7.370  14.612  0.00  0.00    +0.007 C 
ENDBRANCH  11  14
ENDBRANCH   8  11
ENDBRANCH   3   5
BRANCH   1  21
ATOM     21  C   UNL     1      -4.722  -8.898   6.066  0.00  0.00    +0.173 C 
BRANCH  21  22
ATOM     22  S   UNL     1      -5.253 -10.409   5.215  0.00  0.00    -0.075 S 
BRANCH  22  26
ATOM     23  N   UNL     1      -3.649 -11.566   0.468  0.00  0.00    -0.205 N 
ATOM     24  C   UNL     1      -3.796 -10.872   1.655  0.00  0.00    +0.232 A 
ATOM     25  N   UNL     1      -4.532 -11.242   2.682  0.00  0.00    -0.186 NA
ATOM     26  C   UNL     1      -4.438 -10.330   3.655  0.00  0.00    +0.211 A 
ATOM     27  N   UNL     1      -3.640  -9.367   3.261  0.00  0.00    -0.144 NA
ATOM     28  N   UNL     1      -3.206  -9.699   1.967  0.00  0.00    -0.245 N 
ATOM     29  H   UNL     1      -3.079 -11.214  -0.233  0.00  0.00    +0.177 HD
ATOM     30  H   UNL     1      -2.603  -9.186   1.407  0.00  0.00    +0.192 HD
BRANCH  23  32
ATOM     31  C   UNL     1      -4.189 -13.421  -0.822  0.00  0.00    +0.034 C 
ATOM     32  N   UNL     1      -4.325 -12.779   0.277  0.00  0.00    -0.189 NA
ATOM     33  C   UNL     1      -3.302 -12.873  -1.910  0.00  0.00    +0.062 C 
BRANCH  31  34
ATOM     34  C   UNL     1      -4.915 -14.725  -1.028  0.00  0.00    +0.052 C 
BRANCH  34  36
ATOM     35  C   UNL     1      -6.673 -15.893  -2.366  0.00  0.00    +0.004 C 
ATOM     36  C   UNL     1      -5.935 -14.569  -2.158  0.00  0.00    +0.002 C 
ENDBRANCH  34  36
ENDBRANCH  31  34
ENDBRANCH  23  32
ENDBRANCH  22  26
ENDBRANCH  21  22
ENDBRANCH   1  21
TORSDOF 9
