REMARK  Name = ZINC38705948
REMARK  18 active torsions:
REMARK  status: ('A' for Active; 'I' for Inactive)
REMARK    1  A    between atoms: C_1  and  C_2
REMARK    2  A    between atoms: C_2  and  C_3
REMARK    3  A    between atoms: C_3  and  C_4
REMARK    4  A    between atoms: C_4  and  N_5
REMARK    5  A    between atoms: C_6  and  C_25
REMARK    6  A    between atoms: C_9  and  C_16
REMARK    7  A    between atoms: C_17  and  C_24
REMARK    8  A    between atoms: C_19  and  C_23
REMARK    9  A    between atoms: C_21  and  O_22
REMARK   10  A    between atoms: C_28  and  O_34
REMARK   11  A    between atoms: C_29  and  O_31
REMARK   12  A    between atoms: O_31  and  C_32
REMARK   13  A    between atoms: C_32  and  C_33
REMARK   14  A    between atoms: O_34  and  C_35
REMARK   15  A    between atoms: C_35  and  C_36
REMARK   16  A    between atoms: C_36  and  C_37
REMARK   17  A    between atoms: C_37  and  C_38
REMARK   18  A    between atoms: C_37  and  C_39
REMARK                            x       y       z     vdW  Elec       q    Type
REMARK                         _______ _______ _______ _____ _____    ______ ____
ROOT
ATOM      1  N   UNL     1      -2.853  -2.125   0.276  0.00  0.00    -0.285 N 
ATOM      2  C   UNL     1      -3.886  -2.480   1.258  0.00  0.00    +0.141 C 
ATOM      3  C   UNL     1      -5.018  -3.082   0.472  0.00  0.00    +0.035 A 
ATOM      4  C   UNL     1      -6.293  -3.657   0.492  0.00  0.00    +0.102 A 
ATOM      5  N   UNL     1      -6.616  -3.946  -0.753  0.00  0.00    -0.173 NA
ATOM      6  N   UNL     1      -5.671  -3.610  -1.558  0.00  0.00    -0.272 N 
ATOM      7  H   UNL     1      -5.690  -3.729  -2.520  0.00  0.00    +0.189 HD
ATOM      8  C   UNL     1      -4.636  -3.061  -0.856  0.00  0.00    +0.126 A 
ATOM      9  C   UNL     1      -3.300  -2.461  -0.947  0.00  0.00    +0.265 C 
ATOM     10  O   UNL     1      -2.683  -2.294  -1.982  0.00  0.00    -0.268 OA
ENDROOT
BRANCH   4  11
ATOM     11  C   UNL     1      -7.129  -3.898   1.695  0.00  0.00    +0.047 A 
ATOM     12  C   UNL     1      -8.450  -3.459   1.728  0.00  0.00    -0.037 A 
ATOM     13  C   UNL     1      -9.223  -3.687   2.848  0.00  0.00    +0.007 A 
ATOM     14  C   UNL     1      -8.691  -4.349   3.940  0.00  0.00    -0.047 A 
ATOM     15  C   UNL     1      -7.381  -4.789   3.917  0.00  0.00    +0.049 A 
ATOM     16  C   UNL     1      -6.595  -4.573   2.797  0.00  0.00    +0.127 A 
ATOM     17  C   UNL     1      -9.542  -4.592   5.159  0.00  0.00    +0.044 C 
ATOM     18  C   UNL     1      -9.034  -2.736   0.542  0.00  0.00    +0.044 C 
BRANCH  16  19
ATOM     19  O   UNL     1      -5.309  -5.009   2.771  0.00  0.00    -0.506 OA
ATOM     20  H   UNL     1      -4.679  -4.400   3.181  0.00  0.00    +0.292 HD
ENDBRANCH  16  19
ENDBRANCH   4  11
BRANCH   2  21
ATOM     21  C   UNL     1      -4.356  -1.246   1.985  0.00  0.00    -0.019 A 
ATOM     22  C   UNL     1      -4.721  -0.121   1.270  0.00  0.00    +0.009 A 
ATOM     23  C   UNL     1      -5.153   1.013   1.933  0.00  0.00    +0.050 A 
ATOM     24  C   UNL     1      -5.221   1.023   3.317  0.00  0.00    +0.162 A 
ATOM     25  C   UNL     1      -4.854  -0.110   4.036  0.00  0.00    +0.162 A 
ATOM     26  C   UNL     1      -4.426  -1.245   3.366  0.00  0.00    +0.055 A 
BRANCH  25  27
ATOM     27  O   UNL     1      -4.919  -0.105   5.395  0.00  0.00    -0.489 OA
BRANCH  27  28
ATOM     28  C   UNL     1      -4.526  -1.303   6.067  0.00  0.00    +0.226 C 
ATOM     29  C   UNL     1      -4.666  -1.109   7.579  0.00  0.00    +0.048 C 
ENDBRANCH  27  28
ENDBRANCH  25  27
BRANCH  24  30
ATOM     30  O   UNL     1      -5.645   2.138   3.970  0.00  0.00    -0.488 OA
BRANCH  30  31
ATOM     31  C   UNL     1      -6.005   3.263   3.166  0.00  0.00    +0.229 C 
BRANCH  31  32
ATOM     32  C   UNL     1      -6.454   4.413   4.070  0.00  0.00    +0.044 C 
BRANCH  32  33
ATOM     33  C   UNL     1      -6.839   5.618   3.210  0.00  0.00    -0.014 C 
ATOM     34  C   UNL     1      -8.064   5.268   2.362  0.00  0.00    +0.007 C 
ATOM     35  C   UNL     1      -7.168   6.807   4.115  0.00  0.00    +0.007 C 
ENDBRANCH  32  33
ENDBRANCH  31  32
ENDBRANCH  30  31
ENDBRANCH  24  30
ENDBRANCH   2  21
BRANCH   1  36
ATOM     36  C   UNL     1      -1.560  -1.504   0.577  0.00  0.00    +0.109 C 
BRANCH  36  37
ATOM     37  C   UNL     1      -1.704   0.018   0.538  0.00  0.00    +0.019 C 
BRANCH  37  39
ATOM     38  C   UNL     1      -0.497   2.189   0.814  0.00  0.00    +0.004 C 
ATOM     39  C   UNL     1      -0.353   0.666   0.852  0.00  0.00    -0.002 C 
ENDBRANCH  37  39
ENDBRANCH  36  37
ENDBRANCH   1  36
TORSDOF 12
