REMARK  Name = ZINC20356740
REMARK  5 active torsions:
REMARK  status: ('A' for Active; 'I' for Inactive)
REMARK    1  A    between atoms: C_1  and  C_2
REMARK    2  A    between atoms: C_5  and  N_32
REMARK    3  A    between atoms: C_7  and  C_8
REMARK    4  A    between atoms: C_11  and  C_13
REMARK    5  A    between atoms: C_28  and  C_31
REMARK                            x       y       z     vdW  Elec       q    Type
REMARK                         _______ _______ _______ _____ _____    ______ ____
ROOT
ATOM      1  C   UNL     1       1.311   2.971   4.540  0.00  0.00    +0.063 C 
ATOM      2  C   UNL     1       2.264   3.613   3.763  0.00  0.00    +0.084 C 
ATOM      3  C   UNL     1       2.620   3.130   2.402  0.00  0.00    +0.153 C 
ATOM      4  N   UNL     1       1.762   2.560   1.595  0.00  0.00    -0.283 NA
ATOM      5  N   UNL     1       3.972   3.347   2.067  0.00  0.00    -0.150 N 
ATOM      6  C   UNL     1       4.639   4.350   2.733  0.00  0.00    +0.182 C 
ATOM      7  N   UNL     1       4.196   5.080   3.725  0.00  0.00    -0.152 NA
ATOM      8  C   UNL     1       2.976   4.820   4.242  0.00  0.00    +0.273 C 
ATOM      9  O   UNL     1       2.476   5.553   5.081  0.00  0.00    -0.268 OA
ATOM     10  S   UNL     1       6.214   4.359   1.917  0.00  0.00    -0.018 S 
ATOM     11  C   UNL     1       5.920   2.976   0.824  0.00  0.00    +0.182 C 
ATOM     12  N   UNL     1       4.687   2.647   1.117  0.00  0.00    -0.149 NA
ATOM     13  N   UNL     1       6.778   2.399  -0.099  0.00  0.00    -0.308 N 
ATOM     14  C   UNL     1       6.341   1.259  -0.916  0.00  0.00    +0.107 C 
ATOM     15  C   UNL     1       7.351   0.119  -0.754  0.00  0.00    +0.022 C 
ATOM     16  C   UNL     1       8.753   0.634  -1.091  0.00  0.00    -0.011 C 
ATOM     17  C   UNL     1       9.132   1.757  -0.123  0.00  0.00    +0.022 C 
ATOM     18  C   UNL     1       8.140   2.919  -0.282  0.00  0.00    +0.107 C 
ATOM     19  C   UNL     1       9.760  -0.511  -0.963  0.00  0.00    +0.007 C 
ATOM     20  H   UNL     1       2.025   2.334   0.689  0.00  0.00    +0.188 HD
ENDROOT
BRANCH   1  24
ATOM     21  C   UNL     1       0.464  -0.107   2.970  0.00  0.00    +0.136 A 
ATOM     22  C   UNL     1      -0.413  -0.146   4.033  0.00  0.00    +0.050 A 
ATOM     23  C   UNL     1      -0.210   1.018   4.774  0.00  0.00    +0.050 A 
ATOM     24  C   UNL     1       0.791   1.732   4.132  0.00  0.00    +0.129 A 
ATOM     25  O   UNL     1       1.183   1.026   3.049  0.00  0.00    -0.455 OA
BRANCH  21  32
ATOM     26  C   UNL     1       0.055   0.608   0.196  0.00  0.00    +0.044 C 
ATOM     27  C   UNL     1       0.401  -0.807   0.582  0.00  0.00    -0.040 A 
ATOM     28  C   UNL     1       0.531  -1.777  -0.391  0.00  0.00    +0.006 A 
ATOM     29  C   UNL     1       0.849  -3.076  -0.039  0.00  0.00    +0.033 A 
ATOM     30  C   UNL     1       1.038  -3.414   1.290  0.00  0.00    +0.127 A 
ATOM     31  C   UNL     1       0.911  -2.455   2.273  0.00  0.00    +0.044 A 
ATOM     32  C   UNL     1       0.596  -1.139   1.924  0.00  0.00    +0.022 A 
BRANCH  30  33
ATOM     33  N   UNL     1       1.376  -4.808   1.657  0.00  0.00    +0.056 N 
ATOM     34  O   UNL     1       1.487  -5.649   0.796  0.00  0.00    -0.126 OA
ATOM     35  O   UNL     1       1.542  -5.104   2.817  0.00  0.00    -0.126 OA
ENDBRANCH  30  33
ENDBRANCH  21  32
ENDBRANCH   1  24
TORSDOF 3
