REMARK  Name = ZINC50137073
REMARK  13 active torsions:
REMARK  status: ('A' for Active; 'I' for Inactive)
REMARK    1  A    between atoms: C_1  and  C_2
REMARK    2  A    between atoms: C_2  and  C_3
REMARK    3  A    between atoms: C_2  and  C_4
REMARK    4  A    between atoms: C_4  and  O_5
REMARK    5  A    between atoms: O_5  and  C_6
REMARK    6  A    between atoms: C_6  and  C_7
REMARK    7  A    between atoms: C_7  and  C_9
REMARK    8  A    between atoms: C_7  and  O_28
REMARK    9  A    between atoms: C_9  and  N_10
REMARK   10  A    between atoms: N_13  and  C_14
REMARK   11  A    between atoms: C_14  and  C_15
REMARK   12  A    between atoms: N_20  and  C_22
REMARK   13  A    between atoms: C_22  and  C_23
REMARK                            x       y       z     vdW  Elec       q    Type
REMARK                         _______ _______ _______ _____ _____    ______ ____
ROOT
ATOM      1  N   UNL     1      -3.833  -6.155  -0.510  0.00  0.00    -0.297 N 
ATOM      2  C   UNL     1      -4.933  -6.924  -0.635  0.00  0.00    +0.300 C 
ATOM      3  O   UNL     1      -6.035  -6.411  -0.639  0.00  0.00    -0.253 OA
ATOM      4  N   UNL     1      -4.811  -8.260  -0.757  0.00  0.00    -0.299 N 
ATOM      5  H   UNL     1      -2.953  -6.564  -0.507  0.00  0.00    +0.150 HD
ATOM      6  H   UNL     1      -3.932  -8.669  -0.754  0.00  0.00    +0.150 HD
ENDROOT
BRANCH   1   7
ATOM      7  C   UNL     1      -3.965  -4.702  -0.377  0.00  0.00    +0.139 C 
BRANCH   7   8
ATOM      8  C   UNL     1      -2.576  -4.073  -0.251  0.00  0.00    +0.157 C 
BRANCH   8   9
ATOM      9  O   UNL     1      -1.918  -4.598   0.903  0.00  0.00    -0.388 OA
ATOM     10  H   UNL     1      -2.385  -4.429   1.733  0.00  0.00    +0.210 HD
ENDBRANCH   8   9
BRANCH   8  11
ATOM     11  C   UNL     1      -2.715  -2.555  -0.113  0.00  0.00    +0.192 C 
BRANCH  11  12
ATOM     12  O   UNL     1      -1.417  -1.957  -0.112  0.00  0.00    -0.377 OA
BRANCH  12  13
ATOM     13  C   UNL     1      -1.433  -0.534   0.013  0.00  0.00    +0.163 C 
BRANCH  13  15
ATOM     14  C   UNL     1      -0.019   1.526   0.010  0.00  0.00    +0.009 C 
ATOM     15  C   UNL     1       0.002  -0.004   0.002  0.00  0.00    +0.009 C 
ATOM     16  C   UNL     1       0.742  -0.511   1.242  0.00  0.00    +0.009 C 
ENDBRANCH  13  15
ENDBRANCH  12  13
ENDBRANCH  11  12
ENDBRANCH   8  11
ENDBRANCH   7   8
ENDBRANCH   1   7
BRANCH   4  17
ATOM     17  C   UNL     1      -6.007  -9.095  -0.894  0.00  0.00    +0.107 C 
BRANCH  17  18
ATOM     18  C   UNL     1      -5.593 -10.563  -1.014  0.00  0.00    -0.011 C 
ATOM     19  C   UNL     1      -4.808 -10.768  -2.313  0.00  0.00    +0.001 C 
ATOM     20  C   UNL     1      -4.466 -12.254  -2.463  0.00  0.00    -0.018 C 
ATOM     21  C   UNL     1      -5.757 -13.074  -2.429  0.00  0.00    -0.078 C 
ATOM     22  N   UNL     1      -6.448 -12.855  -1.153  0.00  0.00    +0.383 N 
ATOM     23  C   UNL     1      -6.842 -11.447  -1.034  0.00  0.00    -0.073 C 
ATOM     24  H   UNL     1      -5.830 -13.096  -0.392  0.00  0.00    -0.081 HD
BRANCH  22  25
ATOM     25  C   UNL     1      -7.645 -13.704  -1.094  0.00  0.00    -0.036 C 
BRANCH  25  26
ATOM     26  C   UNL     1      -7.234 -15.154  -1.082  0.00  0.00    -0.027 A 
ATOM     27  C   UNL     1      -6.968 -15.957  -0.023  0.00  0.00    +0.009 A 
ATOM     28  C   UNL     1      -6.604 -17.271  -0.253  0.00  0.00    +0.008 A 
ATOM     29  C   UNL     1      -6.524 -17.717  -1.530  0.00  0.00    +0.045 A 
ATOM     30  S   UNL     1      -6.977 -16.261  -2.459  0.00  0.00    -0.103 S 
ENDBRANCH  25  26
ENDBRANCH  22  25
ENDBRANCH  17  18
ENDBRANCH   4  17
TORSDOF 11
