REMARK  Name = ZINC03096757
REMARK  2 active torsions:
REMARK  status: ('A' for Active; 'I' for Inactive)
REMARK    1  A    between atoms: C_17  and  C_20
REMARK    2  A    between atoms: C_23  and  O_26
REMARK                            x       y       z     vdW  Elec       q    Type
REMARK                         _______ _______ _______ _____ _____    ______ ____
ROOT
ATOM      1  C   UNL     1       1.155   1.775   0.001  0.00  0.00    +0.001 A 
ATOM      2  C   UNL     1       1.146   3.167   0.010  0.00  0.00    +0.001 A 
ATOM      3  C   UNL     1      -0.027   3.861   0.001  0.00  0.00    +0.009 A 
ATOM      4  C   UNL     1      -1.251   3.182  -0.051  0.00  0.00    -0.009 A 
ATOM      5  C   UNL     1      -1.238   1.764   0.038  0.00  0.00    -0.017 A 
ATOM      6  C   UNL     1      -0.013   1.076   0.008  0.00  0.00    +0.008 A 
ATOM      7  C   UNL     1      -2.446   1.059   0.182  0.00  0.00    +0.010 A 
ATOM      8  C   UNL     1      -3.631   1.726   0.158  0.00  0.00    +0.024 A 
ATOM      9  C   UNL     1      -3.666   3.103  -0.051  0.00  0.00    +0.036 A 
ATOM     10  C   UNL     1      -2.489   3.843  -0.200  0.00  0.00    +0.007 A 
ATOM     11  C   UNL     1      -2.603   5.273  -0.559  0.00  0.00    -0.037 C 
ATOM     12  C   UNL     1      -3.745   5.916  -0.350  0.00  0.00    -0.041 C 
ATOM     13  C   UNL     1      -3.990   7.346  -0.751  0.00  0.00    +0.033 C 
ATOM     14  C   UNL     1      -2.711   8.054  -1.182  0.00  0.00    +0.005 C 
ATOM     15  C   UNL     1      -1.913   7.106  -2.087  0.00  0.00    +0.005 C 
ATOM     16  C   UNL     1      -1.425   5.953  -1.207  0.00  0.00    +0.036 C 
ATOM     17  C   UNL     1      -4.900   5.188   0.313  0.00  0.00    +0.127 C 
ATOM     18  N   UNL     1      -4.885   3.782  -0.101  0.00  0.00    -0.333 N 
ATOM     19  H   UNL     1      -5.694   3.337  -0.399  0.00  0.00    +0.147 HD
ENDROOT
BRANCH  17  20
ATOM     20  C   UNL     1      -4.764   5.279   1.811  0.00  0.00    -0.023 A 
ATOM     21  C   UNL     1      -3.900   4.431   2.478  0.00  0.00    +0.009 A 
ATOM     22  C   UNL     1      -3.769   4.516   3.851  0.00  0.00    +0.046 A 
ATOM     23  C   UNL     1      -4.515   5.445   4.561  0.00  0.00    +0.117 A 
ATOM     24  C   UNL     1      -5.386   6.291   3.890  0.00  0.00    +0.046 A 
ATOM     25  C   UNL     1      -5.508   6.206   2.517  0.00  0.00    +0.009 A 
BRANCH  23  26
ATOM     26  O   UNL     1      -4.393   5.527   5.912  0.00  0.00    -0.507 OA
ATOM     27  H   UNL     1      -5.005   4.957   6.397  0.00  0.00    +0.292 HD
ENDBRANCH  23  26
ENDBRANCH  17  20
TORSDOF 2
