REMARK  Name = ZINC13929755
REMARK  5 active torsions:
REMARK  status: ('A' for Active; 'I' for Inactive)
REMARK    1  A    between atoms: C_3  and  O_22
REMARK    2  A    between atoms: C_6  and  C_7
REMARK    3  A    between atoms: C_12  and  C_14
REMARK    4  A    between atoms: O_22  and  C_23
REMARK    5  A    between atoms: C_23  and  C_24
REMARK                            x       y       z     vdW  Elec       q    Type
REMARK                         _______ _______ _______ _____ _____    ______ ____
ROOT
ATOM      1  C   UNL     1       4.928   4.030  -0.021  0.00  0.00    +0.043 C 
ATOM      2  C   UNL     1       6.093   3.298   0.068  0.00  0.00    +0.152 C 
ATOM      3  C   UNL     1       7.468   3.818   0.171  0.00  0.00    +0.364 C 
ATOM      4  O   UNL     1       7.818   4.984   0.194  0.00  0.00    -0.243 OA
ATOM      5  O   UNL     1       8.258   2.724   0.236  0.00  0.00    -0.402 OA
ATOM      6  C   UNL     1       7.480   1.627   0.172  0.00  0.00    +0.232 C 
ATOM      7  N   UNL     1       6.218   1.939   0.074  0.00  0.00    -0.205 NA
ENDROOT
BRANCH   6   8
ATOM      8  C   UNL     1       7.992   0.242   0.210  0.00  0.00    +0.039 A 
ATOM      9  C   UNL     1       7.106  -0.836   0.144  0.00  0.00    +0.015 A 
ATOM     10  C   UNL     1       7.591  -2.126   0.175  0.00  0.00    +0.022 A 
ATOM     11  C   UNL     1       8.953  -2.356   0.280  0.00  0.00    +0.059 A 
ATOM     12  C   UNL     1       9.837  -1.291   0.351  0.00  0.00    +0.060 A 
ATOM     13  C   UNL     1       9.365   0.005   0.317  0.00  0.00    +0.034 A 
ATOM     14 CL   UNL     1      11.542  -1.588   0.484  0.00  0.00    -0.082 Cl
ATOM     15 CL   UNL     1       9.554  -3.983   0.324  0.00  0.00    -0.082 Cl
ENDBRANCH   6   8
BRANCH   1  21
ATOM     16  C   UNL     1       3.574   1.946  -0.033  0.00  0.00    +0.011 A 
ATOM     17  C   UNL     1       2.357   1.314  -0.021  0.00  0.00    +0.046 A 
ATOM     18  C   UNL     1       1.183   2.058   0.014  0.00  0.00    +0.121 A 
ATOM     19  C   UNL     1       1.234   3.448   0.033  0.00  0.00    +0.046 A 
ATOM     20  C   UNL     1       2.444   4.093   0.027  0.00  0.00    +0.011 A 
ATOM     21  C   UNL     1       3.632   3.348  -0.009  0.00  0.00    -0.023 A 
BRANCH  18  22
ATOM     22  O   UNL     1      -0.018   1.426   0.025  0.00  0.00    -0.483 OA
BRANCH  22  23
ATOM     23  C   UNL     1      -1.185   2.250   0.062  0.00  0.00    +0.324 C 
BRANCH  23  24
ATOM     24  C   UNL     1      -2.415   1.379   0.069  0.00  0.00    +0.248 C 
ATOM     25  O   UNL     1      -2.303   0.172   0.045  0.00  0.00    -0.272 OA
ATOM     26  N   UNL     1      -3.639   1.942   0.102  0.00  0.00    -0.327 N 
ATOM     27  H   UNL     1      -3.728   2.908   0.121  0.00  0.00    +0.145 HD
ATOM     28  H   UNL     1      -4.430   1.382   0.107  0.00  0.00    +0.145 HD
ENDBRANCH  23  24
ENDBRANCH  22  23
ENDBRANCH  18  22
ENDBRANCH   1  21
TORSDOF 5
