REMARK  Name = ZINC36916114
REMARK  5 active torsions:
REMARK  status: ('A' for Active; 'I' for Inactive)
REMARK    1  A    between atoms: C_1  and  C_2
REMARK    2  A    between atoms: C_2  and  C_3
REMARK    3  A    between atoms: C_4  and  C_10
REMARK    4  A    between atoms: C_8  and  N_9
REMARK    5  A    between atoms: C_15  and  C_16
REMARK                            x       y       z     vdW  Elec       q    Type
REMARK                         _______ _______ _______ _____ _____    ______ ____
ROOT
ATOM      1  C   UNL     1       0.797  -0.301   1.292  0.00  0.00    +0.019 A 
ATOM      2  C   UNL     1       2.093  -0.850   1.292  0.00  0.00    +0.098 A 
ATOM      3  N   UNL     1       2.294  -1.428   2.457  0.00  0.00    -0.172 NA
ATOM      4  N   UNL     1       1.139  -1.268   3.232  0.00  0.00    -0.264 N 
ATOM      5  H   UNL     1       1.009  -1.595   4.136  0.00  0.00    +0.190 HD
ATOM      6  C   UNL     1       0.234  -0.567   2.500  0.00  0.00    +0.115 A 
ENDROOT
BRANCH   2   7
ATOM      7  C   UNL     1       3.065  -0.788   0.172  0.00  0.00    +0.014 A 
ATOM      8  C   UNL     1       2.680  -1.174  -1.111  0.00  0.00    +0.010 A 
ATOM      9  C   UNL     1       3.588  -1.113  -2.148  0.00  0.00    +0.001 A 
ATOM     10  C   UNL     1       4.878  -0.671  -1.917  0.00  0.00    +0.001 A 
ATOM     11  C   UNL     1       5.266  -0.287  -0.647  0.00  0.00    +0.013 A 
ATOM     12  C   UNL     1       4.364  -0.338   0.398  0.00  0.00    +0.064 A 
BRANCH  12  13
ATOM     13  C   UNL     1       4.786   0.087   1.781  0.00  0.00    +0.418 C 
ATOM     14  F   UNL     1       6.124   0.495   1.755  0.00  0.00    -0.166 F 
ATOM     15  F   UNL     1       3.982   1.149   2.208  0.00  0.00    -0.166 F 
ATOM     16  F   UNL     1       4.644  -0.990   2.663  0.00  0.00    -0.166 F 
ENDBRANCH  12  13
ENDBRANCH   2   7
BRANCH   6  17
ATOM     17  N   UNL     1      -1.042  -0.192   2.912  0.00  0.00    -0.343 N 
ATOM     18  H   UNL     1      -1.618   0.307   2.312  0.00  0.00    +0.144 HD
ATOM     19  H   UNL     1      -1.355  -0.430   3.798  0.00  0.00    +0.144 HD
ENDBRANCH   6  17
BRANCH   1  21
ATOM     20  C   UNL     1       0.546   1.930   0.237  0.00  0.00    +0.009 C 
ATOM     21  C   UNL     1       0.152   0.453   0.158  0.00  0.00    +0.037 C 
ENDBRANCH   1  21
TORSDOF 4
