REMARK  Name = ZINC63162937
REMARK  6 active torsions:
REMARK  status: ('A' for Active; 'I' for Inactive)
REMARK    1  A    between atoms: C_1  and  C_2
REMARK    2  A    between atoms: C_5  and  C_8
REMARK    3  A    between atoms: C_12  and  S_16
REMARK    4  A    between atoms: N_14  and  C_15
REMARK    5  A    between atoms: S_16  and  C_17
REMARK    6  A    between atoms: C_17  and  C_18
REMARK                            x       y       z     vdW  Elec       q    Type
REMARK                         _______ _______ _______ _____ _____    ______ ____
ROOT
ATOM      1  C   UNL     1       0.059  -4.275  -0.021  0.00  0.00    +0.171 C 
ATOM      2  N   UNL     1       0.823  -4.779  -1.193  0.00  0.00    -0.233 NA
ATOM      3  N   UNL     1       1.242  -6.123  -0.764  0.00  0.00    -0.229 NA
ATOM      4  C   UNL     1       1.562  -5.968   0.673  0.00  0.00    +0.200 C 
ATOM      5  N   UNL     1       0.804  -4.790   1.151  0.00  0.00    -0.260 NA
ATOM      6  C   UNL     1      -0.113  -5.156   2.238  0.00  0.00    +0.109 C 
ATOM      7  H   UNL     1       1.623  -4.194  -1.383  0.00  0.00    +0.143 HD
ATOM      8  H   UNL     1       0.500  -6.793  -0.899  0.00  0.00    +0.143 HD
ENDROOT
BRANCH   1  13
ATOM      9  C   UNL     1      -0.018   1.503   0.010  0.00  0.00    +0.044 C 
ATOM     10  C   UNL     1       0.002  -0.004   0.002  0.00  0.00    -0.050 A 
ATOM     11  C   UNL     1       0.006  -0.689  -1.199  0.00  0.00    +0.004 A 
ATOM     12  C   UNL     1       0.025  -2.071  -1.206  0.00  0.00    +0.007 A 
ATOM     13  C   UNL     1       0.040  -2.768  -0.013  0.00  0.00    -0.015 A 
ATOM     14  C   UNL     1       0.037  -2.084   1.188  0.00  0.00    +0.007 A 
ATOM     15  C   UNL     1       0.023  -0.702   1.195  0.00  0.00    +0.004 A 
ENDBRANCH   1  13
BRANCH   4  16
ATOM     16  S   UNL     1       3.343  -5.695   0.888  0.00  0.00    -0.121 S 
BRANCH  16  17
ATOM     17  C   UNL     1       3.677  -4.198  -0.081  0.00  0.00    +0.118 C 
BRANCH  17  18
ATOM     18  C   UNL     1       5.164  -3.850   0.014  0.00  0.00    +0.184 C 
ATOM     19  N   UNL     1       5.977  -4.984  -0.444  0.00  0.00    -0.363 N 
ATOM     20  C   UNL     1       6.724  -5.356   0.554  0.00  0.00    +0.060 A 
ATOM     21  C   UNL     1       7.729  -6.418   0.709  0.00  0.00    +0.027 A 
ATOM     22  C   UNL     1       8.358  -6.571   1.891  0.00  0.00    +0.002 A 
ATOM     23  C   UNL     1       8.095  -5.750   3.002  0.00  0.00    +0.002 A 
ATOM     24  C   UNL     1       7.193  -4.749   2.969  0.00  0.00    +0.027 A 
ATOM     25  C   UNL     1       6.446  -4.488   1.731  0.00  0.00    +0.060 A 
ATOM     26  N   UNL     1       5.537  -3.611   1.414  0.00  0.00    -0.363 N 
ATOM     27  H   UNL     1       5.960  -5.382  -1.328  0.00  0.00    +0.162 HD
ATOM     28  H   UNL     1       5.173  -2.926   1.996  0.00  0.00    +0.162 HD
ENDBRANCH  17  18
ENDBRANCH  16  17
ENDBRANCH   4  16
TORSDOF 4
