REMARK  Name = ZINC04786924
REMARK  5 active torsions:
REMARK  status: ('A' for Active; 'I' for Inactive)
REMARK    1  A    between atoms: C_5  and  C_7
REMARK    2  A    between atoms: C_10  and  S_13
REMARK    3  A    between atoms: N_11  and  N_12
REMARK    4  A    between atoms: S_13  and  C_14
REMARK    5  A    between atoms: C_14  and  C_15
REMARK                            x       y       z     vdW  Elec       q    Type
REMARK                         _______ _______ _______ _____ _____    ______ ____
ROOT
ATOM      1  C   UNL     1       0.119  -0.840   1.089  0.00  0.00    +0.183 A 
ATOM      2  N   UNL     1       0.143  -2.069   0.627  0.00  0.00    -0.127 NA
ATOM      3  N   UNL     1       0.001  -2.061  -0.650  0.00  0.00    -0.121 NA
ATOM      4  C   UNL     1      -0.128  -0.826  -1.082  0.00  0.00    +0.209 A 
ATOM      5  N   UNL     1      -0.051  -0.006   0.007  0.00  0.00    -0.224 N 
ENDROOT
BRANCH   1  10
ATOM      6  C   UNL     1      -0.512   0.876   4.369  0.00  0.00    +0.001 A 
ATOM      7  C   UNL     1       0.495   0.339   5.152  0.00  0.00    +0.001 A 
ATOM      8  C   UNL     1       1.381  -0.579   4.618  0.00  0.00    +0.016 A 
ATOM      9  C   UNL     1       1.261  -0.971   3.300  0.00  0.00    +0.029 A 
ATOM     10  C   UNL     1       0.250  -0.429   2.503  0.00  0.00    +0.035 A 
ATOM     11  C   UNL     1      -0.639   0.497   3.049  0.00  0.00    +0.013 A 
ATOM     12 BR   UNL     1       2.467  -2.233   2.572  0.00  0.00    -0.050 Br
ENDBRANCH   1  10
BRANCH   5  13
ATOM     13  N   UNL     1      -0.133   1.357   0.022  0.00  0.00    -0.295 N 
ATOM     14  H   UNL     1       0.767   1.775  -0.163  0.00  0.00    +0.163 HD
ATOM     15  H   UNL     1      -0.825   1.685  -0.635  0.00  0.00    +0.163 HD
ENDBRANCH   5  13
BRANCH   4  16
ATOM     16  S   UNL     1      -0.353  -0.323  -2.755  0.00  0.00    -0.075 S 
BRANCH  16  17
ATOM     17  C   UNL     1      -0.349  -1.938  -3.573  0.00  0.00    +0.173 C 
BRANCH  17  18
ATOM     18  C   UNL     1      -0.533  -1.750  -5.057  0.00  0.00    +0.231 C 
ATOM     19  O   UNL     1      -0.655  -0.635  -5.516  0.00  0.00    -0.274 OA
ATOM     20  N   UNL     1      -0.563  -2.822  -5.873  0.00  0.00    -0.240 N 
ATOM     21  C   UNL     1      -0.727  -2.655  -7.200  0.00  0.00    +0.303 C 
ATOM     22  O   UNL     1      -0.849  -1.536  -7.661  0.00  0.00    -0.253 OA
ATOM     23  N   UNL     1      -0.757  -3.727  -8.016  0.00  0.00    -0.313 N 
ATOM     24  H   UNL     1      -0.466  -3.715  -5.505  0.00  0.00    +0.159 HD
ATOM     25  H   UNL     1      -0.660  -4.619  -7.648  0.00  0.00    +0.146 HD
ATOM     26  H   UNL     1      -0.875  -3.606  -8.971  0.00  0.00    +0.146 HD
ENDBRANCH  17  18
ENDBRANCH  16  17
ENDBRANCH   4  16
TORSDOF 5
