REMARK  Name = ZINC36591914
REMARK  15 active torsions:
REMARK  status: ('A' for Active; 'I' for Inactive)
REMARK    1  A    between atoms: C_1  and  C_2
REMARK    2  A    between atoms: C_5  and  S_8
REMARK    3  A    between atoms: S_8  and  C_11
REMARK    4  A    between atoms: C_11  and  N_12
REMARK    5  A    between atoms: C_13  and  C_15
REMARK    6  A    between atoms: C_15  and  C_17
REMARK    7  A    between atoms: C_15  and  N_30
REMARK    8  A    between atoms: C_17  and  C_18
REMARK    9  A    between atoms: C_17  and  C_24
REMARK   10  A    between atoms: N_30  and  C_36
REMARK   11  A    between atoms: C_31  and  C_33
REMARK   12  A    between atoms: C_33  and  C_35
REMARK   13  A    between atoms: C_36  and  C_37
REMARK   14  A    between atoms: C_36  and  C_38
REMARK   15  A    between atoms: C_36  and  C_39
REMARK                            x       y       z     vdW  Elec       q    Type
REMARK                         _______ _______ _______ _____ _____    ______ ____
ROOT
ATOM      1  C   UNL     1       3.323  -5.301   4.505  0.00  0.00    +0.174 C 
ENDROOT
BRANCH   1   3
ATOM      2  N   UNL     1       0.850  -5.303   4.522  0.00  0.00    -0.295 N 
ATOM      3  C   UNL     1       1.993  -5.956   4.235  0.00  0.00    +0.236 C 
ATOM      4  O   UNL     1       1.952  -7.071   3.760  0.00  0.00    -0.274 OA
ATOM      5  H   UNL     1       0.883  -4.422   4.927  0.00  0.00    +0.150 HD
BRANCH   2   6
ATOM      6  C   UNL     1      -0.443  -5.923   4.222  0.00  0.00    +0.278 C 
BRANCH   6   7
ATOM      7  S   UNL     1      -1.087  -6.731   5.713  0.00  0.00    +0.013 S 
ATOM      8  O   UNL     1      -0.107  -7.603   6.258  0.00  0.00    -0.168 OA
ATOM      9  O   UNL     1      -2.416  -7.183   5.489  0.00  0.00    -0.168 OA
BRANCH   7  14
ATOM     10  C   UNL     1      -1.631  -2.298   9.770  0.00  0.00    +0.044 C 
ATOM     11  C   UNL     1      -1.495  -3.405   8.756  0.00  0.00    -0.050 A 
ATOM     12  C   UNL     1      -2.552  -3.708   7.918  0.00  0.00    +0.005 A 
ATOM     13  C   UNL     1      -2.427  -4.724   6.988  0.00  0.00    +0.027 A 
ATOM     14  C   UNL     1      -1.246  -5.436   6.897  0.00  0.00    +0.090 A 
ATOM     15  C   UNL     1      -0.189  -5.132   7.734  0.00  0.00    +0.027 A 
ATOM     16  C   UNL     1      -0.312  -4.114   8.661  0.00  0.00    +0.005 A 
ENDBRANCH   7  14
ENDBRANCH   6   7
ENDBRANCH   2   6
ENDBRANCH   1   3
BRANCH   1  17
ATOM     17  N   UNL     1       4.368  -5.982   3.737  0.00  0.00    -0.280 N 
ATOM     18  C   UNL     1       4.529  -7.315   3.852  0.00  0.00    +0.243 C 
ATOM     19  O   UNL     1       3.697  -7.979   4.441  0.00  0.00    -0.270 OA
BRANCH  17  20
ATOM     20  C   UNL     1       5.238  -5.214   2.843  0.00  0.00    +0.030 C 
ATOM     21  C   UNL     1       4.499  -3.963   2.362  0.00  0.00    +0.031 C 
ATOM     22  C   UNL     1       6.505  -4.801   3.595  0.00  0.00    +0.031 C 
ATOM     23  C   UNL     1       5.619  -6.076   1.637  0.00  0.00    +0.031 C 
ENDBRANCH  17  20
BRANCH  18  24
ATOM     24  C   UNL     1       5.710  -7.967   3.266  0.00  0.00    +0.004 C 
ATOM     25  C   UNL     1       5.573  -9.099   2.580  0.00  0.00    +0.017 C 
ATOM     26  C   UNL     1       7.075  -7.353   3.442  0.00  0.00    +0.048 C 
ENDBRANCH  18  24
ENDBRANCH   1  17
BRANCH   1  27
ATOM     27  C   UNL     1       3.645  -5.395   5.998  0.00  0.00    +0.078 C 
BRANCH  27  28
ATOM     28  C   UNL     1       3.944  -6.828   6.358  0.00  0.00    -0.038 A 
ATOM     29  C   UNL     1       5.254  -7.246   6.499  0.00  0.00    +0.004 A 
ATOM     30  C   UNL     1       5.528  -8.560   6.829  0.00  0.00    +0.000 A 
ATOM     31  C   UNL     1       4.493  -9.456   7.018  0.00  0.00    +0.000 A 
ATOM     32  C   UNL     1       3.183  -9.038   6.878  0.00  0.00    +0.000 A 
ATOM     33  C   UNL     1       2.908  -7.723   6.552  0.00  0.00    +0.004 A 
ENDBRANCH  27  28
BRANCH  27  34
ATOM     34  C   UNL     1       4.845  -4.538   6.309  0.00  0.00    -0.038 A 
ATOM     35  C   UNL     1       6.097  -4.913   5.858  0.00  0.00    +0.004 A 
ATOM     36  C   UNL     1       7.198  -4.127   6.143  0.00  0.00    +0.000 A 
ATOM     37  C   UNL     1       7.046  -2.966   6.878  0.00  0.00    +0.000 A 
ATOM     38  C   UNL     1       5.794  -2.591   7.328  0.00  0.00    +0.000 A 
ATOM     39  C   UNL     1       4.693  -3.375   7.039  0.00  0.00    +0.004 A 
ENDBRANCH  27  34
ENDBRANCH   1  27
TORSDOF 10
