REMARK  Name = ZINC38683249
REMARK  9 active torsions:
REMARK  status: ('A' for Active; 'I' for Inactive)
REMARK    1  A    between atoms: C_1  and  O_2
REMARK    2  A    between atoms: O_2  and  C_3
REMARK    3  A    between atoms: C_3  and  C_5
REMARK    4  A    between atoms: C_8  and  C_11
REMARK    5  A    between atoms: C_16  and  O_25
REMARK    6  A    between atoms: C_20  and  N_24
REMARK    7  A    between atoms: C_21  and  C_22
REMARK    8  A    between atoms: O_25  and  C_26
REMARK    9  A    between atoms: C_26  and  C_28
REMARK                            x       y       z     vdW  Elec       q    Type
REMARK                         _______ _______ _______ _____ _____    ______ ____
ROOT
ATOM      1  C   UNL     1      -1.375  -6.342  -0.056  0.00  0.00    +0.098 C 
ATOM      2  C   UNL     1      -2.113  -6.818  -1.279  0.00  0.00    +0.008 A 
ATOM      3  C   UNL     1      -1.510  -6.717  -2.520  0.00  0.00    +0.012 A 
ATOM      4  C   UNL     1      -2.172  -7.148  -3.653  0.00  0.00    +0.047 A 
ATOM      5  C   UNL     1      -3.447  -7.687  -3.548  0.00  0.00    +0.135 A 
ATOM      6  C   UNL     1      -4.053  -7.789  -2.307  0.00  0.00    +0.093 A 
ATOM      7  C   UNL     1      -3.386  -7.354  -1.169  0.00  0.00    +0.138 A 
ATOM      8  O   UNL     1      -3.994  -7.462   0.039  0.00  0.00    -0.441 OA
ATOM      9  C   UNL     1      -3.260  -7.422   1.163  0.00  0.00    +0.199 C 
ATOM     10  C   UNL     1      -2.013  -6.903   1.184  0.00  0.00    +0.098 C 
ENDROOT
BRANCH   1  14
ATOM     11  C   UNL     1      -1.495  -2.071   0.098  0.00  0.00    +0.059 A 
ATOM     12  C   UNL     1      -0.270  -2.735   0.026  0.00  0.00    +0.015 A 
ATOM     13  C   UNL     1      -0.238  -4.114  -0.023  0.00  0.00    +0.005 A 
ATOM     14  C   UNL     1      -1.417  -4.837  -0.002  0.00  0.00    -0.035 A 
ATOM     15  C   UNL     1      -2.635  -4.184   0.070  0.00  0.00    +0.005 A 
ATOM     16  C   UNL     1      -2.681  -2.807   0.126  0.00  0.00    +0.015 A 
BRANCH  11  17
ATOM     17  C   UNL     1      -1.537  -0.595   0.151  0.00  0.00    +0.339 C 
ATOM     18  O   UNL     1      -2.604  -0.019   0.219  0.00  0.00    -0.245 OA
BRANCH  17  20
ATOM     19  C   UNL     1      -0.506   1.536   0.179  0.00  0.00    +0.280 C 
ATOM     20  O   UNL     1      -0.391   0.113   0.125  0.00  0.00    -0.464 OA
ENDBRANCH  17  20
ENDBRANCH  11  17
ENDBRANCH   1  14
BRANCH   9  21
ATOM     21  N   UNL     1      -3.795  -7.921   2.325  0.00  0.00    -0.328 N 
ATOM     22  H   UNL     1      -4.690  -8.296   2.326  0.00  0.00    +0.145 HD
ATOM     23  H   UNL     1      -3.278  -7.899   3.146  0.00  0.00    +0.145 HD
ENDBRANCH   9  21
BRANCH  10  24
ATOM     24  C   UNL     1      -1.284  -6.889   2.416  0.00  0.00    +0.101 C 
ATOM     25  N   UNL     1      -0.706  -6.878   3.394  0.00  0.00    -0.191 NA
ENDBRANCH  10  24
BRANCH   5  26
ATOM     26  O   UNL     1      -4.099  -8.112  -4.662  0.00  0.00    -0.422 OA
BRANCH  26  27
ATOM     27  C   UNL     1      -3.635  -9.211  -5.286  0.00  0.00    +0.344 C 
ATOM     28  O   UNL     1      -2.727  -9.851  -4.795  0.00  0.00    -0.245 OA
BRANCH  27  29
ATOM     29  C   UNL     1      -4.229  -9.639  -6.568  0.00  0.00    +0.059 A 
ATOM     30  C   UNL     1      -5.270  -8.903  -7.139  0.00  0.00    +0.016 A 
ATOM     31  C   UNL     1      -5.821  -9.307  -8.336  0.00  0.00    +0.021 A 
ATOM     32  C   UNL     1      -5.345 -10.442  -8.973  0.00  0.00    +0.041 A 
ATOM     33  C   UNL     1      -4.314 -11.177  -8.412  0.00  0.00    +0.021 A 
ATOM     34  C   UNL     1      -3.750 -10.779  -7.218  0.00  0.00    +0.016 A 
ATOM     35 CL   UNL     1      -6.045 -10.945 -10.480  0.00  0.00    -0.084 Cl
ENDBRANCH  27  29
ENDBRANCH  26  27
ENDBRANCH   5  26
TORSDOF 8
