REMARK  Name = ZINC35664793
REMARK  12 active torsions:
REMARK  status: ('A' for Active; 'I' for Inactive)
REMARK    1  A    between atoms: C_1  and  C_2
REMARK    2  A    between atoms: C_2  and  O_3
REMARK    3  A    between atoms: O_3  and  C_4
REMARK    4  A    between atoms: C_4  and  C_6
REMARK    5  A    between atoms: C_7  and  C_24
REMARK    6  A    between atoms: N_8  and  C_21
REMARK    7  A    between atoms: C_12  and  C_14
REMARK    8  A    between atoms: C_21  and  C_22
REMARK    9  A    between atoms: C_24  and  N_25
REMARK   10  A    between atoms: N_33  and  C_34
REMARK   11  A    between atoms: C_34  and  C_35
REMARK   12  A    between atoms: C_34  and  C_36
REMARK                            x       y       z     vdW  Elec       q    Type
REMARK                         _______ _______ _______ _____ _____    ______ ____
ROOT
ATOM      1  C   UNL     1      -2.809  -2.427   0.159  0.00  0.00    +0.080 C 
ATOM      2  C   UNL     1      -2.997  -3.741  -0.085  0.00  0.00    +0.041 C 
ATOM      3  N   UNL     1      -4.253  -4.261  -0.220  0.00  0.00    -0.254 N 
ATOM      4  C   UNL     1      -5.372  -3.532  -0.125  0.00  0.00    +0.307 C 
ATOM      5  O   UNL     1      -6.446  -4.084  -0.260  0.00  0.00    -0.252 OA
ATOM      6  N   UNL     1      -5.346  -2.206   0.116  0.00  0.00    -0.288 N 
ATOM      7  C   UNL     1      -4.038  -1.550   0.284  0.00  0.00    +0.144 C 
ATOM      8  H   UNL     1      -6.169  -1.697   0.181  0.00  0.00    +0.151 HD
ENDROOT
BRANCH   7   9
ATOM      9  C   UNL     1      -4.010  -0.901   1.644  0.00  0.00    -0.022 A 
ATOM     10  C   UNL     1      -4.417  -1.612   2.757  0.00  0.00    +0.008 A 
ATOM     11  C   UNL     1      -4.391  -1.018   4.005  0.00  0.00    +0.038 A 
ATOM     12  C   UNL     1      -3.957   0.290   4.139  0.00  0.00    +0.123 A 
ATOM     13  C   UNL     1      -3.550   1.001   3.024  0.00  0.00    +0.038 A 
ATOM     14  C   UNL     1      -3.572   0.404   1.778  0.00  0.00    +0.008 A 
ATOM     15  F   UNL     1      -3.932   0.871   5.359  0.00  0.00    -0.205 F 
ENDBRANCH   7   9
BRANCH   1  16
ATOM     16  C   UNL     1      -1.509  -1.887   0.300  0.00  0.00    +0.339 C 
ATOM     17  O   UNL     1      -1.083  -1.605   1.404  0.00  0.00    -0.245 OA
BRANCH  16  18
ATOM     18  O   UNL     1      -0.740  -1.687  -0.791  0.00  0.00    -0.462 OA
BRANCH  18  20
ATOM     19  C   UNL     1       1.279  -0.985  -1.918  0.00  0.00    +0.048 C 
ATOM     20  C   UNL     1       0.562  -1.139  -0.575  0.00  0.00    +0.229 C 
ENDBRANCH  18  20
ENDBRANCH  16  18
ENDBRANCH   1  16
BRANCH   3  21
ATOM     21  C   UNL     1      -4.383  -5.696  -0.484  0.00  0.00    +0.141 C 
BRANCH  21  22
ATOM     22  C   UNL     1      -4.473  -6.441   0.822  0.00  0.00    -0.015 C 
ATOM     23  C   UNL     1      -5.485  -7.241   1.052  0.00  0.00    +0.005 C 
ENDBRANCH  21  22
ENDBRANCH   3  21
BRANCH   2  24
ATOM     24  C   UNL     1      -1.801  -4.650  -0.211  0.00  0.00    +0.136 C 
BRANCH  24  25
ATOM     25  N   UNL     1      -1.779  -5.590   0.918  0.00  0.00    -0.294 NA
ATOM     26  C   UNL     1      -1.558  -4.883   2.186  0.00  0.00    +0.104 C 
ATOM     27  C   UNL     1      -1.721  -5.867   3.350  0.00  0.00    +0.124 C 
ATOM     28  N   UNL     1      -0.837  -7.018   3.117  0.00  0.00    -0.283 N 
ATOM     29  C   UNL     1      -0.904  -7.695   1.813  0.00  0.00    +0.124 C 
ATOM     30  C   UNL     1      -0.773  -6.639   0.709  0.00  0.00    +0.104 C 
ATOM     31  C   UNL     1       0.013  -7.442   4.073  0.00  0.00    +0.302 C 
ATOM     32  O   UNL     1      -0.007  -6.931   5.176  0.00  0.00    -0.253 OA
ATOM     33  N   UNL     1       0.887  -8.434   3.807  0.00  0.00    -0.297 N 
ATOM     34  H   UNL     1       0.857  -8.889   2.951  0.00  0.00    +0.150 HD
BRANCH  33  35
ATOM     35  C   UNL     1       1.881  -8.823   4.810  0.00  0.00    +0.068 C 
ATOM     36  C   UNL     1       1.259  -9.830   5.780  0.00  0.00    +0.027 C 
ATOM     37  C   UNL     1       3.084  -9.462   4.114  0.00  0.00    +0.027 C 
ENDBRANCH  33  35
ENDBRANCH  24  25
ENDBRANCH   2  24
TORSDOF 9
