REMARK  Name = ZINC38519762
REMARK  3 active torsions:
REMARK  status: ('A' for Active; 'I' for Inactive)
REMARK    1  A    between atoms: C_1  and  N_2
REMARK    2  A    between atoms: C_8  and  C_10
REMARK    3  A    between atoms: C_24  and  C_30
REMARK                            x       y       z     vdW  Elec       q    Type
REMARK                         _______ _______ _______ _____ _____    ______ ____
ROOT
ATOM      1  C   UNL     1      -0.018   1.461   0.010  0.00  0.00    +0.174 C 
ATOM      2  N   UNL     1       0.002  -0.004   0.002  0.00  0.00    -0.251 N 
ATOM      3  C   UNL     1       0.008  -0.791  -1.090  0.00  0.00    +0.129 A 
ATOM      4  C   UNL     1       0.041  -2.092  -0.665  0.00  0.00    +0.042 A 
ATOM      5  C   UNL     1       0.042  -2.089   0.727  0.00  0.00    +0.153 A 
ATOM      6  N   UNL     1       0.025  -0.837   1.132  0.00  0.00    -0.154 NA
ATOM      7  N   UNL     1       0.064  -3.222   1.552  0.00  0.00    -0.268 N 
ATOM      8  C   UNL     1       0.062  -3.079   2.892  0.00  0.00    +0.230 C 
ATOM      9  O   UNL     1       0.042  -1.970   3.384  0.00  0.00    -0.274 OA
ATOM     10  C   UNL     1       0.078  -3.254  -1.625  0.00  0.00    +0.064 C 
ATOM     11  C   UNL     1      -0.624  -2.831  -2.920  0.00  0.00    +0.109 C 
ATOM     12  C   UNL     1      -0.204  -1.451  -3.340  0.00  0.00    +0.219 C 
ATOM     13  O   UNL     1      -0.044  -1.219  -4.520  0.00  0.00    -0.275 OA
ATOM     14  N   UNL     1       0.001  -0.461  -2.445  0.00  0.00    -0.270 N 
ATOM     15  H   UNL     1       0.080  -4.108   1.159  0.00  0.00    +0.156 HD
ATOM     16  H   UNL     1       0.139   0.454  -2.737  0.00  0.00    +0.156 HD
ENDROOT
BRANCH   8  17
ATOM     17  C   UNL     1       0.085  -4.296   3.780  0.00  0.00    +0.142 C 
ATOM     18  C   UNL     1       1.317  -5.107   3.480  0.00  0.00    +0.011 A 
ATOM     19  C   UNL     1       1.343  -5.910   2.353  0.00  0.00    +0.008 A 
ATOM     20  C   UNL     1       2.465  -6.662   2.062  0.00  0.00    +0.001 A 
ATOM     21  C   UNL     1       3.567  -6.615   2.896  0.00  0.00    +0.004 A 
ATOM     22  C   UNL     1       3.546  -5.816   4.021  0.00  0.00    +0.046 A 
ATOM     23  C   UNL     1       2.419  -5.057   4.318  0.00  0.00    +0.133 A 
ATOM     24  O   UNL     1       2.417  -4.280   5.428  0.00  0.00    -0.455 OA
ATOM     25  C   UNL     1       1.243  -3.876   5.970  0.00  0.00    +0.133 A 
ATOM     26  C   UNL     1       0.079  -3.862   5.220  0.00  0.00    +0.011 A 
ATOM     27  C   UNL     1      -1.108  -3.445   5.798  0.00  0.00    +0.008 A 
ATOM     28  C   UNL     1      -1.134  -3.043   7.119  0.00  0.00    +0.001 A 
ATOM     29  C   UNL     1       0.027  -3.056   7.870  0.00  0.00    +0.004 A 
ATOM     30  C   UNL     1       1.213  -3.471   7.300  0.00  0.00    +0.046 A 
ENDBRANCH   8  17
BRANCH  10  31
ATOM     31  C   UNL     1      -0.636  -4.435  -1.022  0.00  0.00    -0.039 A 
ATOM     32  C   UNL     1      -1.973  -4.335  -0.683  0.00  0.00    +0.004 A 
ATOM     33  C   UNL     1      -2.629  -5.418  -0.129  0.00  0.00    +0.000 A 
ATOM     34  C   UNL     1      -1.948  -6.602   0.086  0.00  0.00    +0.000 A 
ATOM     35  C   UNL     1      -0.612  -6.703  -0.254  0.00  0.00    +0.000 A 
ATOM     36  C   UNL     1       0.043  -5.621  -0.811  0.00  0.00    +0.004 A 
ENDBRANCH  10  31
TORSDOF 2
