REMARK  Name = ZINC02151836
REMARK  6 active torsions:
REMARK  status: ('A' for Active; 'I' for Inactive)
REMARK    1  A    between atoms: C_1  and  C_2
REMARK    2  A    between atoms: C_2  and  C_37
REMARK    3  A    between atoms: C_4  and  N_9
REMARK    4  A    between atoms: C_6  and  C_7
REMARK    5  A    between atoms: C_6  and  C_8
REMARK    6  A    between atoms: C_29  and  C_31
REMARK                            x       y       z     vdW  Elec       q    Type
REMARK                         _______ _______ _______ _____ _____    ______ ____
ROOT
ATOM      1  N   UNL     1       2.011   2.945  -3.266  0.00  0.00    -0.288 N 
ATOM      2  C   UNL     1       2.311   1.886  -4.216  0.00  0.00    +0.204 C 
ATOM      3  C   UNL     1       2.547   2.417  -5.592  0.00  0.00    +0.234 C 
ATOM      4  O   UNL     1       2.822   1.622  -6.465  0.00  0.00    -0.274 OA
ATOM      5  N   UNL     1       2.480   3.708  -5.924  0.00  0.00    -0.276 N 
ATOM      6  C   UNL     1       2.081   4.755  -4.986  0.00  0.00    +0.167 C 
ATOM      7  C   UNL     1       1.909   4.230  -3.597  0.00  0.00    +0.237 C 
ATOM      8  O   UNL     1       1.662   5.026  -2.716  0.00  0.00    -0.274 OA
ATOM      9  C   UNL     1       0.766   5.387  -5.465  0.00  0.00    +0.069 C 
ATOM     10  C   UNL     1       0.871   5.660  -6.944  0.00  0.00    -0.015 A 
ATOM     11  C   UNL     1       0.053   6.539  -7.755  0.00  0.00    +0.003 A 
ATOM     12  C   UNL     1      -1.030   7.372  -7.454  0.00  0.00    +0.010 A 
ATOM     13  C   UNL     1      -1.575   8.080  -8.496  0.00  0.00    +0.001 A 
ATOM     14  C   UNL     1      -1.086   7.983  -9.788  0.00  0.00    +0.002 A 
ATOM     15  C   UNL     1      -0.017   7.166 -10.114  0.00  0.00    +0.026 A 
ATOM     16  C   UNL     1       0.557   6.435  -9.077  0.00  0.00    +0.047 A 
ATOM     17  N   UNL     1       1.600   5.554  -9.045  0.00  0.00    -0.356 N 
ATOM     18  H   UNL     1       2.132   5.292  -9.812  0.00  0.00    +0.166 HD
ATOM     19  C   UNL     1       1.782   5.097  -7.767  0.00  0.00    +0.046 A 
ATOM     20  C   UNL     1       2.832   4.114  -7.302  0.00  0.00    +0.154 C 
ENDROOT
BRANCH   1  24
ATOM     21  C   UNL     1      -0.515  -0.049  -0.308  0.00  0.00    -0.010 C 
ATOM     22  C   UNL     1       0.449   1.158  -0.307  0.00  0.00    -0.072 C 
ATOM     23  C   UNL     1       0.662   1.578  -1.759  0.00  0.00    +0.009 C 
ATOM     24  C   UNL     1       1.815   2.576  -1.861  0.00  0.00    +0.074 C 
ATOM     25  C   UNL     1       3.084   1.907  -1.335  0.00  0.00    +0.009 C 
ATOM     26  C   UNL     1       2.901   1.493   0.123  0.00  0.00    -0.072 C 
ATOM     27  C   UNL     1       2.977   2.733   1.022  0.00  0.00    -0.010 C 
ATOM     28  C   UNL     1       4.089   0.581   0.501  0.00  0.00    -0.010 C 
ATOM     29  C   UNL     1      -0.244   2.291   0.458  0.00  0.00    -0.010 C 
ATOM     30  N   UNL     1       1.675   0.696   0.398  0.00  0.00    +0.386 N 
ATOM     31  H   UNL     1       1.857  -0.274   0.116  0.00  0.00    -0.084 HD
ATOM     32  H   UNL     1       1.493   0.731   1.408  0.00  0.00    -0.084 HD
ENDBRANCH   1  24
BRANCH  20  33
ATOM     33  C   UNL     1       2.838   2.907  -8.205  0.00  0.00    -0.021 A 
ATOM     34  C   UNL     1       4.024   2.465  -8.759  0.00  0.00    +0.006 A 
ATOM     35  C   UNL     1       4.031   1.355  -9.584  0.00  0.00    +0.000 A 
ATOM     36  C   UNL     1       2.849   0.694  -9.862  0.00  0.00    +0.000 A 
ATOM     37  C   UNL     1       1.662   1.140  -9.312  0.00  0.00    +0.000 A 
ATOM     38  C   UNL     1       1.656   2.246  -8.484  0.00  0.00    +0.006 A 
ENDBRANCH  20  33
TORSDOF 2
