REMARK  Name = ZINC36585002
REMARK  12 active torsions:
REMARK  status: ('A' for Active; 'I' for Inactive)
REMARK    1  A    between atoms: C_1  and  C_2
REMARK    2  A    between atoms: C_5  and  S_8
REMARK    3  A    between atoms: S_8  and  C_11
REMARK    4  A    between atoms: C_11  and  N_12
REMARK    5  A    between atoms: C_13  and  C_15
REMARK    6  A    between atoms: C_15  and  C_17
REMARK    7  A    between atoms: C_15  and  N_24
REMARK    8  A    between atoms: N_24  and  C_32
REMARK    9  A    between atoms: C_25  and  C_27
REMARK   10  A    between atoms: C_32  and  C_33
REMARK   11  A    between atoms: C_32  and  C_34
REMARK   12  A    between atoms: C_32  and  C_35
REMARK                            x       y       z     vdW  Elec       q    Type
REMARK                         _______ _______ _______ _____ _____    ______ ____
ROOT
ATOM      1  C   UNL     1       3.488  -6.576   3.535  0.00  0.00    +0.193 C 
ENDROOT
BRANCH   1   2
ATOM      2  C   UNL     1       4.913  -6.278   3.922  0.00  0.00    -0.018 A 
ATOM      3  C   UNL     1       5.558  -7.075   4.851  0.00  0.00    +0.007 A 
ATOM      4  C   UNL     1       6.865  -6.802   5.206  0.00  0.00    +0.020 A 
ATOM      5  C   UNL     1       7.529  -5.732   4.633  0.00  0.00    +0.041 A 
ATOM      6  C   UNL     1       6.884  -4.936   3.704  0.00  0.00    +0.020 A 
ATOM      7  C   UNL     1       5.578  -5.213   3.345  0.00  0.00    +0.007 A 
ATOM      8 CL   UNL     1       9.171  -5.389   5.079  0.00  0.00    -0.084 Cl
ENDBRANCH   1   2
BRANCH   1  10
ATOM      9  N   UNL     1       3.921  -6.485   1.101  0.00  0.00    -0.294 N 
ATOM     10  C   UNL     1       3.458  -7.184   2.157  0.00  0.00    +0.239 C 
ATOM     11  O   UNL     1       3.018  -8.303   1.997  0.00  0.00    -0.273 OA
ATOM     12  H   UNL     1       4.273  -5.591   1.229  0.00  0.00    +0.150 HD
BRANCH   9  13
ATOM     13  C   UNL     1       3.892  -7.077  -0.238  0.00  0.00    +0.278 C 
BRANCH  13  14
ATOM     14  S   UNL     1       2.385  -6.549  -1.100  0.00  0.00    +0.013 S 
ATOM     15  O   UNL     1       1.256  -6.706  -0.252  0.00  0.00    -0.168 OA
ATOM     16  O   UNL     1       2.373  -7.064  -2.425  0.00  0.00    -0.168 OA
BRANCH  14  21
ATOM     17  C   UNL     1       2.989  -0.584  -1.773  0.00  0.00    +0.044 C 
ATOM     18  C   UNL     1       2.839  -2.074  -1.605  0.00  0.00    -0.050 A 
ATOM     19  C   UNL     1       3.312  -2.931  -2.581  0.00  0.00    +0.005 A 
ATOM     20  C   UNL     1       3.174  -4.297  -2.427  0.00  0.00    +0.027 A 
ATOM     21  C   UNL     1       2.563  -4.807  -1.296  0.00  0.00    +0.090 A 
ATOM     22  C   UNL     1       2.090  -3.950  -0.320  0.00  0.00    +0.027 A 
ATOM     23  C   UNL     1       2.232  -2.583  -0.472  0.00  0.00    +0.005 A 
ENDBRANCH  14  21
ENDBRANCH  13  14
ENDBRANCH   9  13
ENDBRANCH   1  10
BRANCH   1  24
ATOM     24  N   UNL     1       2.907  -7.516   4.497  0.00  0.00    -0.274 N 
ATOM     25  C   UNL     1       3.374  -8.778   4.572  0.00  0.00    +0.283 C 
ATOM     26  O   UNL     1       4.223  -9.160   3.788  0.00  0.00    -0.267 OA
BRANCH  25  27
ATOM     27  C   UNL     1       2.859  -9.691   5.598  0.00  0.00    +0.189 A 
ATOM     28  C   UNL     1       3.252 -10.985   5.791  0.00  0.00    +0.054 A 
ATOM     29  C   UNL     1       2.505 -11.476   6.873  0.00  0.00    +0.042 A 
ATOM     30  C   UNL     1       1.700 -10.473   7.288  0.00  0.00    +0.196 A 
ATOM     31  O   UNL     1       1.920  -9.398   6.521  0.00  0.00    -0.458 OA
ENDBRANCH  25  27
BRANCH  24  32
ATOM     32  C   UNL     1       1.817  -7.085   5.376  0.00  0.00    +0.030 C 
ATOM     33  C   UNL     1       1.477  -5.622   5.087  0.00  0.00    +0.031 C 
ATOM     34  C   UNL     1       0.584  -7.955   5.125  0.00  0.00    +0.031 C 
ATOM     35  C   UNL     1       2.253  -7.228   6.836  0.00  0.00    +0.031 C 
ENDBRANCH  24  32
ENDBRANCH   1  24
TORSDOF 8
