REMARK  Name = ZINC08923415
REMARK  11 active torsions:
REMARK  status: ('A' for Active; 'I' for Inactive)
REMARK    1  A    between atoms: C_1  and  C_2
REMARK    2  A    between atoms: C_2  and  O_3
REMARK    3  A    between atoms: O_3  and  C_4
REMARK    4  A    between atoms: C_6  and  C_18
REMARK    5  A    between atoms: C_9  and  O_10
REMARK    6  A    between atoms: O_10  and  C_11
REMARK    7  A    between atoms: C_11  and  C_13
REMARK    8  A    between atoms: C_29  and  C_30
REMARK    9  A    between atoms: C_29  and  C_31
REMARK   10  A    between atoms: C_29  and  N_61
REMARK   11  A    between atoms: C_32  and  O_34
REMARK                            x       y       z     vdW  Elec       q    Type
REMARK                         _______ _______ _______ _____ _____    ______ ____
ROOT
ATOM      1  C   UNL     1      -8.604  -0.483   0.069  0.00  0.00    +0.224 C 
ATOM      2  N   UNL     1      -8.475  -1.747   0.818  0.00  0.00    -0.313 N 
ATOM      3  C   UNL     1      -8.609  -1.664   2.183  0.00  0.00    +0.080 A 
ATOM      4  C   UNL     1      -9.323  -0.632   2.806  0.00  0.00    +0.067 A 
ATOM      5  C   UNL     1      -9.380  -0.688   4.254  0.00  0.00    -0.027 A 
ATOM      6  C   UNL     1      -8.730  -1.730   4.827  0.00  0.00    -0.021 A 
ATOM      7  S   UNL     1      -8.044  -2.640   3.470  0.00  0.00    -0.080 S 
ATOM      8  C   UNL     1      -8.631  -2.019   6.292  0.00  0.00    -0.035 C 
ATOM      9  C   UNL     1     -10.318  -0.294   6.510  0.00  0.00    -0.073 C 
ATOM     10  C   UNL     1     -10.108   0.328   5.127  0.00  0.00    +0.018 C 
ATOM     11  C   UNL     1      -9.931   0.400   1.928  0.00  0.00    +0.220 C 
ATOM     12  N   UNL     1      -9.602   0.396   0.666  0.00  0.00    -0.223 NA
ATOM     13  H   UNL     1      -8.304  -2.591   0.371  0.00  0.00    +0.149 HD
ATOM     14  N   UNL     1      -9.026  -0.792   7.025  0.00  0.00    +0.384 N 
ATOM     15  H   UNL     1      -8.309  -0.071   6.882  0.00  0.00    -0.081 HD
ENDROOT
BRANCH   1  18
ATOM     16  C   UNL     1      -5.997   2.249  -0.004  0.00  0.00    +0.163 A 
ATOM     17  C   UNL     1      -7.221   1.601   0.005  0.00  0.00    +0.056 A 
ATOM     18  C   UNL     1      -7.272   0.220   0.059  0.00  0.00    -0.002 A 
ATOM     19  C   UNL     1      -6.103  -0.516   0.103  0.00  0.00    +0.011 A 
ATOM     20  C   UNL     1      -4.878   0.124   0.087  0.00  0.00    +0.050 A 
ATOM     21  C   UNL     1      -4.820   1.508   0.040  0.00  0.00    +0.173 A 
BRANCH  16  22
ATOM     22  O   UNL     1      -5.946   3.607  -0.058  0.00  0.00    -0.489 OA
BRANCH  22  24
ATOM     23  C   UNL     1      -6.936   5.809  -0.157  0.00  0.00    +0.048 C 
ATOM     24  C   UNL     1      -7.193   4.302  -0.101  0.00  0.00    +0.226 C 
ENDBRANCH  22  24
ENDBRANCH  16  22
BRANCH  21  25
ATOM     25  O   UNL     1      -3.616   2.140   0.031  0.00  0.00    -0.418 OA
BRANCH  25  26
ATOM     26  C   UNL     1      -3.128   2.545   1.221  0.00  0.00    +0.351 C 
ATOM     27  O   UNL     1      -3.800   2.423   2.227  0.00  0.00    -0.244 OA
BRANCH  26  28
ATOM     28  C   UNL     1      -1.789   3.131   1.302  0.00  0.00    +0.097 A 
ATOM     29  C   UNL     1      -1.108   3.606   2.413  0.00  0.00    +0.022 A 
ATOM     30  C   UNL     1       0.153   4.106   2.207  0.00  0.00    +0.008 A 
ATOM     31  C   UNL     1       0.664   4.117   0.947  0.00  0.00    +0.046 A 
ATOM     32  S   UNL     1      -0.609   3.424  -0.004  0.00  0.00    -0.090 S 
ENDBRANCH  26  28
ENDBRANCH  25  26
ENDBRANCH  21  25
ENDBRANCH   1  18
BRANCH  14  33
ATOM     33  C   UNL     1      -9.135  -1.080   8.472  0.00  0.00    -0.074 C 
ATOM     34  C   UNL     1     -10.184  -2.165   8.723  0.00  0.00    -0.014 C 
ATOM     35  C   UNL     1      -7.775  -1.556   8.988  0.00  0.00    -0.014 C 
ENDBRANCH  14  33
BRANCH  11  36
ATOM     36  O   UNL     1     -10.798   1.315   2.421  0.00  0.00    -0.492 OA
ATOM     37  H   UNL     1     -11.131   1.938   1.760  0.00  0.00    +0.294 HD
ENDBRANCH  11  36
TORSDOF 8
