REMARK  Name = ZINC05057491
REMARK  10 active torsions:
REMARK  status: ('A' for Active; 'I' for Inactive)
REMARK    1  A    between atoms: C_1  and  C_2
REMARK    2  A    between atoms: C_2  and  N_53
REMARK    3  A    between atoms: C_3  and  C_4
REMARK    4  A    between atoms: C_3  and  N_53
REMARK    5  A    between atoms: C_5  and  C_6
REMARK    6  A    between atoms: C_5  and  N_53
REMARK    7  A    between atoms: C_6  and  S_7
REMARK    8  A    between atoms: S_7  and  C_8
REMARK    9  A    between atoms: C_14  and  C_16
REMARK   10  A    between atoms: N_21  and  C_23
REMARK                            x       y       z     vdW  Elec       q    Type
REMARK                         _______ _______ _______ _____ _____    ______ ____
ROOT
ATOM      1  C   UNL     1      -4.039   2.275  -1.034  0.00  0.00    +0.160 A 
ATOM      2  N   UNL     1      -3.059   3.133  -1.281  0.00  0.00    -0.133 NA
ATOM      3  N   UNL     1      -1.911   2.750  -1.634  0.00  0.00    -0.125 NA
ATOM      4  C   UNL     1      -1.612   1.469  -1.779  0.00  0.00    +0.189 A 
ATOM      5  S   UNL     1      -3.189   0.733  -1.360  0.00  0.00    -0.024 S 
ATOM      6  N   UNL     1      -0.414   0.866  -2.156  0.00  0.00    -0.263 N 
ATOM      7  C   UNL     1       0.662   1.626  -2.441  0.00  0.00    +0.224 C 
ATOM      8  O   UNL     1       0.589   2.834  -2.364  0.00  0.00    -0.275 OA
ATOM      9  H   UNL     1      -0.356  -0.100  -2.217  0.00  0.00    +0.157 HD
ENDROOT
BRANCH   7  10
ATOM     10  C   UNL     1       1.956   0.974  -2.854  0.00  0.00    +0.102 C 
ATOM     11  C   UNL     1       1.776   0.168  -4.162  0.00  0.00    +0.110 C 
ATOM     12  C   UNL     1       3.072   0.384  -4.912  0.00  0.00    +0.221 C 
ATOM     13  O   UNL     1       3.455  -0.289  -5.845  0.00  0.00    -0.275 OA
ATOM     14  N   UNL     1       3.738   1.430  -4.393  0.00  0.00    -0.271 N 
ATOM     15  C   UNL     1       2.998   2.033  -3.277  0.00  0.00    +0.127 C 
BRANCH  14  16
ATOM     16  C   UNL     1       4.978   1.886  -4.855  0.00  0.00    +0.036 A 
ATOM     17  C   UNL     1       5.652   1.182  -5.845  0.00  0.00    +0.023 A 
ATOM     18  C   UNL     1       6.873   1.637  -6.303  0.00  0.00    +0.002 A 
ATOM     19  C   UNL     1       7.429   2.786  -5.770  0.00  0.00    +0.000 A 
ATOM     20  C   UNL     1       6.762   3.486  -4.781  0.00  0.00    +0.002 A 
ATOM     21  C   UNL     1       5.538   3.039  -4.322  0.00  0.00    +0.023 A 
ENDBRANCH  14  16
ENDBRANCH   7  10
BRANCH   1  22
ATOM     22  S   UNL     1      -5.703   2.568  -0.535  0.00  0.00    -0.099 S 
BRANCH  22  23
ATOM     23  C   UNL     1      -5.814   4.375  -0.420  0.00  0.00    +0.058 C 
BRANCH  23  24
ATOM     24  C   UNL     1      -7.228   4.773   0.010  0.00  0.00    -0.068 C 
BRANCH  24  25
ATOM     25  N   UNL     1      -7.309   6.247   0.079  0.00  0.00    +0.380 N 
ATOM     26  H   UNL     1      -6.967   6.641  -0.806  0.00  0.00    -0.082 HD
BRANCH  25  28
ATOM     27  C   UNL     1      -9.448   6.576  -1.057  0.00  0.00    -0.017 C 
ATOM     28  C   UNL     1      -8.711   6.667   0.281  0.00  0.00    -0.082 C 
ENDBRANCH  25  28
BRANCH  25  29
ATOM     29  C   UNL     1      -6.466   6.748   1.185  0.00  0.00    -0.082 C 
ATOM     30  C   UNL     1      -6.280   8.257   1.016  0.00  0.00    -0.017 C 
ENDBRANCH  25  29
ENDBRANCH  24  25
ENDBRANCH  23  24
ENDBRANCH  22  23
ENDBRANCH   1  22
TORSDOF 8
