REMARK  Name = ZINC27202310
REMARK  10 active torsions:
REMARK  status: ('A' for Active; 'I' for Inactive)
REMARK    1  A    between atoms: C_1  and  C_2
REMARK    2  A    between atoms: C_6  and  C_25
REMARK    3  A    between atoms: C_7  and  O_8
REMARK    4  A    between atoms: O_8  and  C_9
REMARK    5  A    between atoms: C_9  and  C_11
REMARK    6  A    between atoms: C_9  and  C_12
REMARK    7  A    between atoms: N_14  and  N_15
REMARK    8  A    between atoms: C_16  and  C_18
REMARK    9  A    between atoms: C_18  and  C_20
REMARK   10  A    between atoms: C_18  and  N_21
REMARK                            x       y       z     vdW  Elec       q    Type
REMARK                         _______ _______ _______ _____ _____    ______ ____
ROOT
ATOM      1  C   UNL     1       2.771   0.019  -0.124  0.00  0.00    +0.270 C 
ATOM      2  O   UNL     1       3.120  -1.106  -0.412  0.00  0.00    -0.270 OA
ATOM      3  N   UNL     1       1.468   0.286   0.091  0.00  0.00    -0.231 N 
ATOM      4  H   UNL     1       1.151   1.307   0.353  0.00  0.00    +0.173 HD
ENDROOT
BRANCH   3   5
ATOM      5  N   UNL     1       0.516  -0.736  -0.018  0.00  0.00    -0.233 N 
ATOM      6  C   UNL     1      -0.788  -0.467   0.191  0.00  0.00    +0.249 C 
ATOM      7  O   UNL     1      -1.137   0.658   0.479  0.00  0.00    -0.272 OA
ATOM      8  H   UNL     1       0.832  -1.757  -0.276  0.00  0.00    +0.173 HD
BRANCH   6   9
ATOM      9  C   UNL     1      -1.813  -1.565   0.067  0.00  0.00    +0.159 C 
ATOM     10  C   UNL     1      -1.777  -2.139  -1.351  0.00  0.00    +0.038 C 
BRANCH   9  11
ATOM     11  N   UNL     1      -3.146  -1.022   0.340  0.00  0.00    -0.288 N 
ATOM     12  C   UNL     1      -4.127  -1.834   0.783  0.00  0.00    +0.298 C 
ATOM     13  O   UNL     1      -3.905  -3.017   0.955  0.00  0.00    -0.253 OA
ATOM     14  N   UNL     1      -5.353  -1.334   1.034  0.00  0.00    -0.313 N 
ATOM     15  H   UNL     1      -3.346   0.048   0.185  0.00  0.00    +0.151 HD
ATOM     16  H   UNL     1      -6.153  -1.997   1.395  0.00  0.00    +0.146 HD
ATOM     17  H   UNL     1      -5.553  -0.264   0.878  0.00  0.00    +0.146 HD
ENDBRANCH   9  11
ENDBRANCH   6   9
ENDBRANCH   3   5
BRANCH   1  18
ATOM     18  C   UNL     1       3.795   1.118  -0.006  0.00  0.00    +0.257 C 
ATOM     19  C   UNL     1       3.548   2.164  -1.095  0.00  0.00    +0.062 C 
BRANCH  18  20
ATOM     20  O   UNL     1       5.105   0.568  -0.163  0.00  0.00    -0.479 OA
BRANCH  20  27
ATOM     21  C   UNL     1       6.677   2.497  -1.498  0.00  0.00    +0.047 C 
ATOM     22  C   UNL     1       6.915   2.109  -0.061  0.00  0.00    -0.007 A 
ATOM     23  C   UNL     1       7.931   2.707   0.658  0.00  0.00    +0.027 A 
ATOM     24  C   UNL     1       8.153   2.347   1.975  0.00  0.00    +0.042 A 
ATOM     25  C   UNL     1       7.353   1.391   2.577  0.00  0.00    +0.027 A 
ATOM     26  C   UNL     1       6.332   0.794   1.863  0.00  0.00    -0.007 A 
ATOM     27  C   UNL     1       6.109   1.154   0.542  0.00  0.00    +0.127 A 
ATOM     28  C   UNL     1       5.462  -0.246   2.519  0.00  0.00    +0.047 C 
ATOM     29 CL   UNL     1       9.435   3.095   2.875  0.00  0.00    -0.084 Cl
ENDBRANCH  20  27
ENDBRANCH  18  20
ENDBRANCH   1  18
TORSDOF 6
