REMARK  Name = ZINC19940906
REMARK  10 active torsions:
REMARK  status: ('A' for Active; 'I' for Inactive)
REMARK    1  A    between atoms: C_1  and  C_2
REMARK    2  A    between atoms: C_5  and  C_42
REMARK    3  A    between atoms: C_9  and  C_14
REMARK    4  A    between atoms: C_14  and  C_16
REMARK    5  A    between atoms: C_14  and  N_28
REMARK    6  A    between atoms: N_20  and  C_21
REMARK    7  A    between atoms: C_21  and  C_22
REMARK    8  A    between atoms: N_31  and  C_34
REMARK    9  A    between atoms: C_39  and  O_40
REMARK   10  A    between atoms: O_40  and  C_41
REMARK                            x       y       z     vdW  Elec       q    Type
REMARK                         _______ _______ _______ _____ _____    ______ ____
ROOT
ATOM      1  C   UNL     1       2.312   3.747   0.129  0.00  0.00    +0.162 C 
ENDROOT
BRANCH   1  10
ATOM      2  C   UNL     1      -2.409   5.940   0.289  0.00  0.00    +0.044 C 
ATOM      3  C   UNL     1      -2.599   4.454   0.452  0.00  0.00    -0.041 A 
ATOM      4  C   UNL     1      -3.854   3.935   0.603  0.00  0.00    +0.004 A 
ATOM      5  C   UNL     1      -4.041   2.568   0.753  0.00  0.00    +0.005 A 
ATOM      6  C   UNL     1      -2.964   1.707   0.752  0.00  0.00    -0.026 A 
ATOM      7  C   UNL     1      -1.678   2.211   0.594  0.00  0.00    +0.052 A 
ATOM      8  C   UNL     1      -1.492   3.599   0.448  0.00  0.00    +0.002 A 
ATOM      9  C   UNL     1      -0.133   4.120   0.288  0.00  0.00    +0.021 A 
ATOM     10  C   UNL     1       0.901   3.244   0.292  0.00  0.00    +0.042 A 
ATOM     11  C   UNL     1       0.661   1.862   0.447  0.00  0.00    +0.254 A 
ATOM     12  O   UNL     1       1.606   1.091   0.448  0.00  0.00    -0.268 OA
ATOM     13  N   UNL     1      -0.583   1.373   0.595  0.00  0.00    -0.322 N 
ATOM     14  H   UNL     1      -0.720   0.289   0.717  0.00  0.00    +0.169 HD
ATOM     15  C   UNL     1      -3.181   0.225   0.915  0.00  0.00    +0.046 C 
ENDBRANCH   1  10
BRANCH   1  16
ATOM     16  N   UNL     1       3.133   3.277   1.253  0.00  0.00    -0.286 NA
ATOM     17  C   UNL     1       2.552   3.691   2.538  0.00  0.00    +0.104 C 
ATOM     18  C   UNL     1       3.390   3.116   3.683  0.00  0.00    +0.120 C 
ATOM     19  N   UNL     1       4.776   3.589   3.557  0.00  0.00    -0.325 N 
ATOM     20  C   UNL     1       5.356   3.175   2.272  0.00  0.00    +0.120 C 
ATOM     21  C   UNL     1       4.518   3.750   1.128  0.00  0.00    +0.104 C 
BRANCH  19  22
ATOM     22  C   UNL     1       5.557   3.141   4.628  0.00  0.00    +0.072 A 
ATOM     23  C   UNL     1       5.055   2.192   5.507  0.00  0.00    +0.027 A 
ATOM     24  C   UNL     1       5.829   1.752   6.564  0.00  0.00    +0.002 A 
ATOM     25  C   UNL     1       7.104   2.254   6.749  0.00  0.00    +0.004 A 
ATOM     26  C   UNL     1       7.611   3.199   5.876  0.00  0.00    +0.047 A 
ATOM     27  C   UNL     1       6.844   3.642   4.811  0.00  0.00    +0.141 A 
BRANCH  27  28
ATOM     28  O   UNL     1       7.345   4.567   3.949  0.00  0.00    -0.493 OA
ATOM     29  C   UNL     1       8.671   5.036   4.199  0.00  0.00    +0.277 C 
ENDBRANCH  27  28
ENDBRANCH  19  22
ENDBRANCH   1  16
BRANCH   1  30
ATOM     30  C   UNL     1       2.886   3.226  -1.164  0.00  0.00    +0.173 A 
ATOM     31  N   UNL     1       3.304   2.007  -1.399  0.00  0.00    -0.111 NA
ATOM     32  N   UNL     1       3.719   1.956  -2.618  0.00  0.00    -0.023 NA
ATOM     33  N   UNL     1       3.583   3.115  -3.163  0.00  0.00    -0.044 NA
ATOM     34  N   UNL     1       3.073   3.925  -2.299  0.00  0.00    -0.225 N 
BRANCH  34  35
ATOM     35  C   UNL     1       2.756   5.339  -2.513  0.00  0.00    +0.179 C 
BRANCH  35  36
ATOM     36  C   UNL     1       3.970   6.195  -2.145  0.00  0.00    +0.140 C 
ATOM     37  C   UNL     1       3.609   7.691  -2.257  0.00  0.00    +0.035 C 
ATOM     38  C   UNL     1       4.902   8.298  -2.866  0.00  0.00    +0.031 C 
ATOM     39  C   UNL     1       5.370   7.138  -3.780  0.00  0.00    +0.160 C 
ATOM     40  O   UNL     1       5.041   5.938  -3.061  0.00  0.00    -0.375 OA
ENDBRANCH  35  36
ENDBRANCH  34  35
ENDBRANCH   1  30
TORSDOF 7
