REMARK  Name = ZINC39605184
REMARK  11 active torsions:
REMARK  status: ('A' for Active; 'I' for Inactive)
REMARK    1  A    between atoms: C_1  and  C_2
REMARK    2  A    between atoms: C_2  and  C_3
REMARK    3  A    between atoms: C_2  and  O_4
REMARK    4  A    between atoms: O_4  and  C_5
REMARK    5  A    between atoms: C_5  and  C_6
REMARK    6  A    between atoms: C_6  and  C_7
REMARK    7  A    between atoms: C_7  and  N_8
REMARK    8  A    between atoms: C_9  and  C_11
REMARK    9  A    between atoms: C_22  and  C_24
REMARK   10  A    between atoms: C_26  and  O_31
REMARK   11  A    between atoms: O_31  and  C_32
REMARK                            x       y       z     vdW  Elec       q    Type
REMARK                         _______ _______ _______ _____ _____    ______ ____
ROOT
ATOM      1  C   UNL     1       6.933  -2.190  -5.310  0.00  0.00    +0.100 C 
ATOM      2  C   UNL     1       6.329  -3.608  -5.409  0.00  0.00    +0.121 C 
ATOM      3  N   UNL     1       7.456  -4.466  -5.845  0.00  0.00    -0.296 N 
ATOM      4  C   UNL     1       8.625  -3.947  -5.095  0.00  0.00    +0.115 C 
ATOM      5  C   UNL     1       8.440  -2.416  -5.102  0.00  0.00    -0.004 C 
ATOM      6  C   UNL     1       8.885  -1.825  -3.768  0.00  0.00    -0.010 C 
ATOM      7  C   UNL     1      10.397  -2.011  -3.611  0.00  0.00    -0.082 C 
ATOM      8  N   UNL     1      11.091  -1.346  -4.720  0.00  0.00    +0.379 N 
ATOM      9  C   UNL     1      10.729  -1.982  -5.992  0.00  0.00    -0.082 C 
ATOM     10  C   UNL     1       9.231  -1.795  -6.250  0.00  0.00    -0.010 C 
ATOM     11  C   UNL     1       7.426  -5.487  -6.724  0.00  0.00    +0.248 C 
ATOM     12  O   UNL     1       8.420  -6.162  -6.907  0.00  0.00    -0.270 OA
ATOM     13  H   UNL     1      10.827  -0.372  -4.744  0.00  0.00    -0.086 HD
ATOM     14  H   UNL     1      12.088  -1.417  -4.582  0.00  0.00    -0.086 HD
ENDROOT
BRANCH  11  15
ATOM     15  C   UNL     1       6.183  -5.786  -7.466  0.00  0.00    +0.054 A 
ATOM     16  C   UNL     1       4.942  -5.627  -6.848  0.00  0.00    +0.059 A 
ATOM     17  C   UNL     1       3.782  -5.909  -7.549  0.00  0.00    +0.121 A 
ATOM     18  C   UNL     1       3.855  -6.349  -8.864  0.00  0.00    +0.047 A 
ATOM     19  C   UNL     1       5.082  -6.507  -9.479  0.00  0.00    +0.019 A 
ATOM     20  C   UNL     1       6.246  -6.224  -8.791  0.00  0.00    +0.030 A 
ATOM     21 BR   UNL     1       7.923  -6.436  -9.639  0.00  0.00    -0.050 Br
BRANCH  17  22
ATOM     22  O   UNL     1       2.572  -5.755  -6.950  0.00  0.00    -0.495 OA
ATOM     23  C   UNL     1       1.417  -6.064  -7.732  0.00  0.00    +0.277 C 
ENDBRANCH  17  22
ENDBRANCH  11  15
BRANCH   1  25
ATOM     24  N   UNL     1       6.247  -0.107  -4.165  0.00  0.00    -0.315 N 
ATOM     25  C   UNL     1       6.347  -1.451  -4.134  0.00  0.00    +0.218 C 
ATOM     26  O   UNL     1       5.966  -2.066  -3.160  0.00  0.00    -0.275 OA
ATOM     27  H   UNL     1       6.551   0.384  -4.944  0.00  0.00    +0.149 HD
BRANCH  24  28
ATOM     28  C   UNL     1       5.677   0.611  -3.022  0.00  0.00    +0.106 C 
BRANCH  28  29
ATOM     29  C   UNL     1       5.678   2.113  -3.312  0.00  0.00    +0.047 C 
BRANCH  29  30
ATOM     30  C   UNL     1       5.083   2.863  -2.118  0.00  0.00    +0.161 C 
BRANCH  30  31
ATOM     31  O   UNL     1       5.084   4.266  -2.389  0.00  0.00    -0.377 OA
BRANCH  31  33
ATOM     32  C   UNL     1       5.668   5.459  -0.369  0.00  0.00    +0.037 C 
ATOM     33  C   UNL     1       4.546   5.063  -1.332  0.00  0.00    +0.112 C 
ATOM     34  C   UNL     1       3.907   6.324  -1.917  0.00  0.00    +0.037 C 
ENDBRANCH  31  33
ENDBRANCH  30  31
ENDBRANCH  29  30
ENDBRANCH  28  29
ENDBRANCH  24  28
ENDBRANCH   1  25
TORSDOF 8
