REMARK  Name = ZINC64031803
REMARK  12 active torsions:
REMARK  status: ('A' for Active; 'I' for Inactive)
REMARK    1  A    between atoms: C_1  and  C_2
REMARK    2  A    between atoms: C_2  and  C_3
REMARK    3  A    between atoms: C_3  and  C_4
REMARK    4  A    between atoms: C_4  and  N_5
REMARK    5  A    between atoms: C_6  and  S_22
REMARK    6  A    between atoms: C_10  and  C_11
REMARK    7  A    between atoms: C_11  and  N_12
REMARK    8  A    between atoms: N_12  and  C_13
REMARK    9  A    between atoms: N_12  and  C_14
REMARK   10  A    between atoms: C_14  and  C_15
REMARK   11  A    between atoms: C_19  and  C_21
REMARK   12  A    between atoms: S_22  and  C_25
REMARK                            x       y       z     vdW  Elec       q    Type
REMARK                         _______ _______ _______ _____ _____    ______ ____
ROOT
ATOM      1  N   UNL     1       0.913  -1.843  -2.859  0.00  0.00    -0.254 NA
ATOM      2  C   UNL     1       0.280  -3.180  -2.951  0.00  0.00    +0.319 C 
ATOM      3  N   UNL     1       1.062  -3.925  -3.945  0.00  0.00    -0.253 NA
ATOM      4  C   UNL     1       2.191  -3.364  -4.147  0.00  0.00    +0.101 C 
ATOM      5  C   UNL     1       2.306  -2.128  -3.284  0.00  0.00    +0.115 C 
ENDROOT
BRANCH   2   6
ATOM      6  S   UNL     1      -1.442  -3.021  -3.499  0.00  0.00    +0.008 S 
ATOM      7  O   UNL     1      -2.011  -4.321  -3.580  0.00  0.00    -0.171 OA
ATOM      8  O   UNL     1      -2.080  -2.036  -2.697  0.00  0.00    -0.171 OA
BRANCH   6   9
ATOM      9  C   UNL     1      -1.268  -2.365  -5.182  0.00  0.00    +0.134 C 
ATOM     10  C   UNL     1      -0.641  -0.971  -5.124  0.00  0.00    +0.026 C 
ATOM     11  C   UNL     1      -0.494  -0.419  -6.543  0.00  0.00    +0.002 C 
ATOM     12  C   UNL     1      -1.872  -0.331  -7.201  0.00  0.00    +0.000 C 
ATOM     13  C   UNL     1      -2.499  -1.725  -7.259  0.00  0.00    +0.002 C 
ATOM     14  C   UNL     1      -2.646  -2.277  -5.840  0.00  0.00    +0.026 C 
ENDBRANCH   6   9
ENDBRANCH   2   6
BRANCH   1  15
ATOM     15  C   UNL     1       0.877  -1.338  -1.480  0.00  0.00    +0.088 C 
BRANCH  15  16
ATOM     16  C   UNL     1       1.631  -0.009  -1.404  0.00  0.00    +0.015 C 
BRANCH  16  18
ATOM     17  C   UNL     1       2.202   1.926   0.071  0.00  0.00    +0.004 C 
ATOM     18  C   UNL     1       1.550   0.542   0.021  0.00  0.00    -0.002 C 
ENDBRANCH  16  18
ENDBRANCH  15  16
ENDBRANCH   1  15
BRANCH   5  19
ATOM     19  C   UNL     1       2.866  -0.959  -4.098  0.00  0.00    +0.109 C 
BRANCH  19  20
ATOM     20  N   UNL     1       4.279  -1.211  -4.409  0.00  0.00    -0.297 NA
ATOM     21  C   UNL     1       5.106  -1.136  -3.196  0.00  0.00    +0.105 C 
BRANCH  20  22
ATOM     22  C   UNL     1       4.766  -0.280  -5.436  0.00  0.00    +0.156 C 
BRANCH  22  23
ATOM     23  C   UNL     1       4.252  -0.709  -6.786  0.00  0.00    +0.099 A 
ATOM     24  H   UNL     1       4.185   1.064  -7.868  0.00  0.00    +0.167 HD
ATOM     25  N   UNL     1       3.935  -1.928  -7.127  0.00  0.00    -0.349 N 
ATOM     26  C   UNL     1       3.516  -1.936  -8.401  0.00  0.00    +0.105 A 
ATOM     27  C   UNL     1       3.576  -0.674  -8.867  0.00  0.00    +0.030 A 
ATOM     28  N   UNL     1       4.037   0.106  -7.841  0.00  0.00    -0.346 N 
ATOM     29  C   UNL     1       3.200  -0.208 -10.251  0.00  0.00    +0.065 C 
ATOM     30  H   UNL     1       3.993  -2.706  -6.550  0.00  0.00    +0.166 HD
ENDBRANCH  22  23
ENDBRANCH  20  22
ENDBRANCH  19  20
ENDBRANCH   5  19
TORSDOF 9
