REMARK  Name = ZINC00944918
REMARK  6 active torsions:
REMARK  status: ('A' for Active; 'I' for Inactive)
REMARK    1  A    between atoms: C_1  and  C_2
REMARK    2  A    between atoms: C_9  and  N_14
REMARK    3  A    between atoms: C_10  and  C_11
REMARK    4  A    between atoms: C_15  and  C_17
REMARK    5  A    between atoms: C_17  and  C_18
REMARK    6  A    between atoms: C_18  and  N_19
REMARK                            x       y       z     vdW  Elec       q    Type
REMARK                         _______ _______ _______ _____ _____    ______ ____
ROOT
ATOM      1  N   UNL     1      -0.453   1.393   3.718  0.00  0.00    -0.279 N 
ATOM      2  C   UNL     1       0.000   1.080   2.488  0.00  0.00    +0.219 C 
ATOM      3  O   UNL     1       0.994   0.397   2.363  0.00  0.00    -0.275 OA
ATOM      4  H   UNL     1      -1.248   1.939   3.817  0.00  0.00    +0.155 HD
ENDROOT
BRANCH   1  12
ATOM      5  C   UNL     1       3.560  -1.469   9.792  0.00  0.00    +0.008 C 
ATOM      6  C   UNL     1       2.395  -1.017   8.908  0.00  0.00    -0.009 C 
ATOM      7  C   UNL     1       1.889   0.347   9.386  0.00  0.00    +0.008 C 
ATOM      8  C   UNL     1       0.579   0.693   8.675  0.00  0.00    +0.037 C 
ATOM      9  C   UNL     1       0.783   0.549   7.172  0.00  0.00    -0.023 A 
ATOM     10  C   UNL     1       1.818  -0.163   6.676  0.00  0.00    -0.004 A 
ATOM     11  S   UNL     1       1.645  -0.046   4.918  0.00  0.00    -0.077 S 
ATOM     12  C   UNL     1       0.218   0.933   4.841  0.00  0.00    +0.084 A 
ATOM     13  C   UNL     1      -0.088   1.152   6.177  0.00  0.00    +0.068 A 
ATOM     14  C   UNL     1       2.872  -0.887   7.455  0.00  0.00    +0.046 C 
BRANCH  13  15
ATOM     15  C   UNL     1      -1.248   1.957   6.570  0.00  0.00    +0.244 C 
ATOM     16  O   UNL     1      -2.330   1.425   6.738  0.00  0.00    -0.270 OA
ATOM     17  N   UNL     1      -1.117   3.287   6.745  0.00  0.00    -0.325 N 
ATOM     18  H   UNL     1      -0.256   3.711   6.611  0.00  0.00    +0.145 HD
ATOM     19  H   UNL     1      -1.885   3.820   7.005  0.00  0.00    +0.145 HD
ENDBRANCH  13  15
ENDBRANCH   1  12
BRANCH   2  20
ATOM     20  C   UNL     1      -0.729   1.579   1.267  0.00  0.00    +0.115 C 
BRANCH  20  21
ATOM     21  C   UNL     1      -0.013   1.086   0.008  0.00  0.00    +0.126 C 
BRANCH  21  22
ATOM     22  N   UNL     1      -0.721   1.571  -1.179  0.00  0.00    -0.234 N 
ATOM     23  C   UNL     1      -1.714   0.906  -1.798  0.00  0.00    +0.254 C 
ATOM     24  O   UNL     1      -2.158  -0.174  -1.466  0.00  0.00    -0.270 OA
ATOM     25  C   UNL     1      -2.175   1.713  -2.947  0.00  0.00    +0.049 A 
ATOM     26  C   UNL     1      -3.146   1.542  -3.921  0.00  0.00    +0.014 A 
ATOM     27  C   UNL     1      -3.326   2.517  -4.890  0.00  0.00    +0.001 A 
ATOM     28  C   UNL     1      -2.544   3.657  -4.891  0.00  0.00    +0.001 A 
ATOM     29  C   UNL     1      -1.569   3.841  -3.923  0.00  0.00    +0.014 A 
ATOM     30  C   UNL     1      -1.377   2.875  -2.949  0.00  0.00    +0.049 A 
ATOM     31  C   UNL     1      -0.461   2.737  -1.797  0.00  0.00    +0.254 C 
ATOM     32  O   UNL     1       0.384   3.543  -1.463  0.00  0.00    -0.270 OA
ENDBRANCH  21  22
ENDBRANCH  20  21
ENDBRANCH   2  20
TORSDOF 5
