REMARK  Name = ZINC14548240
REMARK  6 active torsions:
REMARK  status: ('A' for Active; 'I' for Inactive)
REMARK    1  A    between atoms: C_1  and  C_2
REMARK    2  A    between atoms: C_2  and  C_3
REMARK    3  A    between atoms: C_2  and  O_4
REMARK    4  A    between atoms: O_4  and  C_5
REMARK    5  A    between atoms: C_12  and  C_21
REMARK    6  A    between atoms: C_30  and  O_31
REMARK                            x       y       z     vdW  Elec       q    Type
REMARK                         _______ _______ _______ _____ _____    ______ ____
ROOT
ATOM      1  C   UNL     1      -0.690  -6.123  -1.725  0.00  0.00    +0.142 A 
ATOM      2  C   UNL     1      -1.309  -7.328  -1.455  0.00  0.00    +0.047 A 
ATOM      3  C   UNL     1      -2.140  -7.451  -0.357  0.00  0.00    +0.004 A 
ATOM      4  C   UNL     1      -2.354  -6.360   0.465  0.00  0.00    +0.006 A 
ATOM      5  C   UNL     1      -1.745  -5.151   0.199  0.00  0.00    -0.016 A 
ATOM      6  C   UNL     1      -0.892  -5.013  -0.897  0.00  0.00    +0.074 A 
ATOM      7  N   UNL     1      -0.206  -3.838  -1.213  0.00  0.00    -0.334 N 
ATOM      8  C   UNL     1      -0.491  -2.661  -0.376  0.00  0.00    +0.109 C 
ATOM      9  C   UNL     1      -0.636  -3.151   1.050  0.00  0.00    +0.029 C 
ATOM     10  C   UNL     1      -1.968  -3.964   1.053  0.00  0.00    +0.049 C 
ATOM     11  C   UNL     1      -2.303  -4.037   2.506  0.00  0.00    -0.023 C 
ATOM     12  C   UNL     1      -1.765  -2.995   3.130  0.00  0.00    -0.030 C 
ATOM     13  C   UNL     1      -1.000  -2.126   2.129  0.00  0.00    +0.033 C 
ATOM     14  H   UNL     1      -0.298  -3.616  -2.193  0.00  0.00    +0.147 HD
ENDROOT
BRANCH   8  15
ATOM     15  C   UNL     1       0.647  -1.677  -0.468  0.00  0.00    +0.022 A 
ATOM     16  C   UNL     1       0.384  -0.306  -0.616  0.00  0.00    -0.009 A 
ATOM     17  C   UNL     1      -0.933   0.181  -0.681  0.00  0.00    +0.009 A 
ATOM     18  C   UNL     1      -1.151   1.517  -0.824  0.00  0.00    +0.001 A 
ATOM     19  C   UNL     1      -0.086   2.413  -0.908  0.00  0.00    +0.001 A 
ATOM     20  C   UNL     1       1.202   1.977  -0.849  0.00  0.00    +0.008 A 
ATOM     21  C   UNL     1       1.466   0.605  -0.702  0.00  0.00    -0.017 A 
ATOM     22  C   UNL     1       2.784   0.120  -0.637  0.00  0.00    +0.012 A 
ATOM     23  C   UNL     1       3.006  -1.214  -0.493  0.00  0.00    +0.046 A 
ATOM     24  C   UNL     1       1.939  -2.115  -0.409  0.00  0.00    +0.122 A 
BRANCH  24  25
ATOM     25  O   UNL     1       2.192  -3.442  -0.267  0.00  0.00    -0.506 OA
ATOM     26  H   UNL     1       2.256  -3.734   0.653  0.00  0.00    +0.292 HD
ENDBRANCH  24  25
ENDBRANCH   8  15
BRANCH   1  27
ATOM     27  O   UNL     1       0.126  -6.015  -2.808  0.00  0.00    -0.488 OA
BRANCH  27  29
ATOM     28  C   UNL     1       0.610  -6.680  -5.081  0.00  0.00    +0.051 C 
ATOM     29  C   UNL     1       0.198  -7.143  -3.682  0.00  0.00    +0.167 C 
ATOM     30  C   UNL     1       1.232  -8.136  -3.148  0.00  0.00    +0.051 C 
ENDBRANCH  27  29
ENDBRANCH   1  27
TORSDOF 4
