REMARK  Name = ZINC58382093
REMARK  7 active torsions:
REMARK  status: ('A' for Active; 'I' for Inactive)
REMARK    1  A    between atoms: C_1  and  C_2
REMARK    2  A    between atoms: C_4  and  C_22
REMARK    3  A    between atoms: C_6  and  N_8
REMARK    4  A    between atoms: N_8  and  C_9
REMARK    5  A    between atoms: C_9  and  C_11
REMARK    6  A    between atoms: C_9  and  C_12
REMARK    7  A    between atoms: C_18  and  C_21
REMARK                            x       y       z     vdW  Elec       q    Type
REMARK                         _______ _______ _______ _____ _____    ______ ____
ROOT
ATOM      1  C   UNL     1       0.048  -2.073   3.666  0.00  0.00    +0.154 C 
ATOM      2  C   UNL     1      -1.456  -1.976   3.924  0.00  0.00    +0.038 C 
ENDROOT
BRANCH   1   3
ATOM      3  C   UNL     1       0.665  -3.035   4.648  0.00  0.00    +0.236 C 
ATOM      4  O   UNL     1       0.805  -4.202   4.348  0.00  0.00    -0.274 OA
ATOM      5  N   UNL     1       1.062  -2.599   5.860  0.00  0.00    -0.300 N 
ATOM      6  C   UNL     1       0.796  -1.217   6.282  0.00  0.00    +0.108 C 
ATOM      7  C   UNL     1       0.072  -1.245   7.632  0.00  0.00    +0.019 C 
ATOM      8  C   UNL     1       0.896  -2.060   8.631  0.00  0.00    +0.006 C 
ATOM      9  C   UNL     1       1.035  -3.498   8.128  0.00  0.00    +0.003 C 
ATOM     10  C   UNL     1       1.764  -3.498   6.786  0.00  0.00    +0.111 C 
ATOM     11  C   UNL     1       1.831  -4.321   9.144  0.00  0.00    +0.009 C 
ENDBRANCH   1   3
BRANCH   1  12
ATOM     12  N   UNL     1       0.279  -2.553   2.301  0.00  0.00    -0.333 N 
ATOM     13  H   UNL     1       0.424  -3.498   2.137  0.00  0.00    +0.147 HD
BRANCH  12  19
ATOM     14  C   UNL     1      -0.132   2.062   0.663  0.00  0.00    +0.044 C 
ATOM     15  C   UNL     1       0.094   0.593   0.412  0.00  0.00    -0.048 A 
ATOM     16  C   UNL     1       0.312   0.138  -0.876  0.00  0.00    +0.006 A 
ATOM     17  C   UNL     1       0.519  -1.208  -1.111  0.00  0.00    -0.048 A 
ATOM     18  C   UNL     1       0.509  -2.104  -0.059  0.00  0.00    +0.026 A 
ATOM     19  C   UNL     1       0.290  -1.650   1.235  0.00  0.00    +0.028 A 
ATOM     20  C   UNL     1       0.088  -0.296   1.468  0.00  0.00    +0.026 A 
ATOM     21  C   UNL     1       0.756  -1.700  -2.515  0.00  0.00    +0.044 C 
ENDBRANCH  12  19
ENDBRANCH   1  12
TORSDOF 3
