REMARK  Name = ZINC09281407
REMARK  10 active torsions:
REMARK  status: ('A' for Active; 'I' for Inactive)
REMARK    1  A    between atoms: C_1  and  C_2
REMARK    2  A    between atoms: C_2  and  C_3
REMARK    3  A    between atoms: C_2  and  C_4
REMARK    4  A    between atoms: C_2  and  C_5
REMARK    5  A    between atoms: C_12  and  N_25
REMARK    6  A    between atoms: C_13  and  C_14
REMARK    7  A    between atoms: N_16  and  C_17
REMARK    8  A    between atoms: C_26  and  C_28
REMARK    9  A    between atoms: C_32  and  O_34
REMARK   10  A    between atoms: O_34  and  C_35
REMARK                            x       y       z     vdW  Elec       q    Type
REMARK                         _______ _______ _______ _____ _____    ______ ____
ROOT
ATOM      1  C   UNL     1      -5.524   4.260   2.972  0.00  0.00    -0.000 C 
ATOM      2  C   UNL     1      -5.538   3.268   1.805  0.00  0.00    +0.009 C 
ATOM      3  C   UNL     1      -4.123   2.748   1.546  0.00  0.00    +0.037 C 
ATOM      4  C   UNL     1      -3.546   2.224   2.855  0.00  0.00    -0.023 A 
ATOM      5  C   UNL     1      -4.084   2.577   4.043  0.00  0.00    -0.004 A 
ATOM      6  S   UNL     1      -3.096   1.743   5.253  0.00  0.00    -0.077 S 
ATOM      7  C   UNL     1      -1.988   0.931   4.197  0.00  0.00    +0.085 A 
ATOM      8  C   UNL     1      -2.408   1.324   2.934  0.00  0.00    +0.069 A 
ATOM      9  C   UNL     1      -5.256   3.481   4.271  0.00  0.00    +0.046 C 
ENDROOT
BRANCH   1  11
ATOM     10  C   UNL     1      -7.977   3.916   3.299  0.00  0.00    +0.011 C 
ATOM     11  C   UNL     1      -6.882   4.959   3.067  0.00  0.00    -0.035 C 
ATOM     12  C   UNL     1      -6.864   5.949   4.234  0.00  0.00    +0.011 C 
ATOM     13  C   UNL     1      -7.161   5.710   1.764  0.00  0.00    +0.011 C 
ENDBRANCH   1  11
BRANCH   8  14
ATOM     14  C   UNL     1      -1.726   0.853   1.725  0.00  0.00    +0.247 C 
ATOM     15  O   UNL     1      -2.091  -0.172   1.180  0.00  0.00    -0.270 OA
ATOM     16  N   UNL     1      -0.695   1.556   1.216  0.00  0.00    -0.307 N 
ATOM     17  H   UNL     1      -0.404   2.373   1.650  0.00  0.00    +0.149 HD
BRANCH  16  18
ATOM     18  C   UNL     1      -0.013   1.086   0.008  0.00  0.00    +0.096 C 
ATOM     19  C   UNL     1      -0.767   1.593  -1.232  0.00  0.00    +0.046 C 
ATOM     20  C   UNL     1       0.134   1.355  -2.478  0.00  0.00    +0.168 C 
ATOM     21  S   UNL     1       1.780   1.828  -1.798  0.00  0.00    -0.029 S 
ATOM     22  O   UNL     1       2.014   3.204  -2.068  0.00  0.00    -0.174 OA
ATOM     23  O   UNL     1       2.742   0.864  -2.202  0.00  0.00    -0.174 OA
ATOM     24  C   UNL     1       1.440   1.619  -0.003  0.00  0.00    +0.188 C 
ENDBRANCH  16  18
ENDBRANCH   8  14
BRANCH   7  25
ATOM     25  N   UNL     1      -0.937   0.093   4.533  0.00  0.00    -0.275 N 
ATOM     26  C   UNL     1      -0.676  -0.176   5.827  0.00  0.00    +0.249 C 
ATOM     27  O   UNL     1      -1.363   0.316   6.701  0.00  0.00    -0.270 OA
ATOM     28  H   UNL     1      -0.388  -0.300   3.836  0.00  0.00    +0.156 HD
BRANCH  26  29
ATOM     29  C   UNL     1       0.445  -1.071   6.185  0.00  0.00    +0.040 A 
ATOM     30  C   UNL     1       1.232  -1.642   5.183  0.00  0.00    +0.013 A 
ATOM     31  C   UNL     1       2.281  -2.473   5.521  0.00  0.00    +0.004 A 
ATOM     32  C   UNL     1       2.549  -2.750   6.849  0.00  0.00    +0.045 A 
ATOM     33  C   UNL     1       1.769  -2.190   7.852  0.00  0.00    +0.121 A 
ATOM     34  C   UNL     1       0.717  -1.351   7.524  0.00  0.00    +0.058 A 
BRANCH  33  35
ATOM     35  O   UNL     1       2.037  -2.466   9.155  0.00  0.00    -0.495 OA
ATOM     36  C   UNL     1       3.137  -3.340   9.420  0.00  0.00    +0.277 C 
ENDBRANCH  33  35
ENDBRANCH  26  29
ENDBRANCH   7  25
TORSDOF 6
