REMARK  Name = ZINC50247678
REMARK  11 active torsions:
REMARK  status: ('A' for Active; 'I' for Inactive)
REMARK    1  A    between atoms: C_1  and  C_2
REMARK    2  A    between atoms: C_2  and  C_3
REMARK    3  A    between atoms: C_2  and  C_4
REMARK    4  A    between atoms: C_4  and  N_5
REMARK    5  A    between atoms: C_6  and  S_10
REMARK    6  A    between atoms: S_10  and  C_11
REMARK    7  A    between atoms: C_11  and  C_12
REMARK    8  A    between atoms: C_15  and  C_17
REMARK    9  A    between atoms: C_20  and  C_23
REMARK   10  A    between atoms: C_23  and  O_25
REMARK   11  A    between atoms: O_25  and  C_26
REMARK                            x       y       z     vdW  Elec       q    Type
REMARK                         _______ _______ _______ _____ _____    ______ ____
ROOT
ATOM      1  C   UNL     1      -4.425   4.666  -0.394  0.00  0.00    +0.059 A 
ATOM      2  C   UNL     1      -5.553   4.663   0.369  0.00  0.00    +0.071 A 
ATOM      3  S   UNL     1      -5.420   6.262   1.159  0.00  0.00    -0.075 S 
ATOM      4  C   UNL     1      -3.883   6.757   0.390  0.00  0.00    +0.109 A 
ATOM      5  N   UNL     1      -3.620   5.699  -0.365  0.00  0.00    -0.243 NA
ENDROOT
BRANCH   4   6
ATOM      6  C   UNL     1      -3.113   8.007   0.555  0.00  0.00    +0.007 A 
ATOM      7  C   UNL     1      -1.925   8.194  -0.157  0.00  0.00    +0.011 A 
ATOM      8  C   UNL     1      -1.209   9.353  -0.005  0.00  0.00    +0.015 A 
ATOM      9  C   UNL     1      -1.669  10.349   0.862  0.00  0.00    +0.059 A 
ATOM     10  C   UNL     1      -2.858  10.162   1.574  0.00  0.00    +0.015 A 
ATOM     11  C   UNL     1      -3.575   9.004   1.417  0.00  0.00    +0.011 A 
BRANCH   9  12
ATOM     12  C   UNL     1      -0.899  11.597   1.027  0.00  0.00    +0.339 C 
ATOM     13  O   UNL     1       0.134  11.760   0.408  0.00  0.00    -0.245 OA
BRANCH  12  14
ATOM     14  O   UNL     1      -1.342  12.557   1.862  0.00  0.00    -0.464 OA
ATOM     15  C   UNL     1      -0.547  13.739   1.972  0.00  0.00    +0.280 C 
ENDBRANCH  12  14
ENDBRANCH   9  12
ENDBRANCH   4   6
BRANCH   1  16
ATOM     16  C   UNL     1      -4.101   3.480  -1.266  0.00  0.00    +0.133 C 
BRANCH  16  17
ATOM     17  S   UNL     1      -3.103   2.293  -0.325  0.00  0.00    -0.078 S 
BRANCH  17  19
ATOM     18  N   UNL     1      -2.105  -0.148  -1.230  0.00  0.00    -0.220 N 
ATOM     19  C   UNL     1      -2.811   0.983  -1.467  0.00  0.00    +0.210 A 
ATOM     20  N   UNL     1      -3.238   0.919  -2.710  0.00  0.00    -0.102 NA
ATOM     21  N   UNL     1      -2.848  -0.171  -3.264  0.00  0.00    -0.022 NA
ATOM     22  N   UNL     1      -2.151  -0.871  -2.436  0.00  0.00    -0.043 NA
BRANCH  18  23
ATOM     23  C   UNL     1      -1.433  -0.534   0.013  0.00  0.00    +0.151 C 
BRANCH  23  25
ATOM     24  C   UNL     1      -0.019   1.526   0.010  0.00  0.00    +0.009 C 
ATOM     25  C   UNL     1       0.002  -0.004   0.002  0.00  0.00    +0.004 C 
ATOM     26  C   UNL     1       0.742  -0.511   1.242  0.00  0.00    +0.009 C 
ENDBRANCH  23  25
ENDBRANCH  18  23
ENDBRANCH  17  19
ENDBRANCH  16  17
ENDBRANCH   1  16
TORSDOF 8
