REMARK  Name = ZINC24764077
REMARK  9 active torsions:
REMARK  status: ('A' for Active; 'I' for Inactive)
REMARK    1  A    between atoms: C_1  and  C_2
REMARK    2  A    between atoms: C_2  and  C_3
REMARK    3  A    between atoms: C_3  and  C_4
REMARK    4  A    between atoms: C_4  and  C_25
REMARK    5  A    between atoms: N_7  and  C_11
REMARK    6  A    between atoms: C_11  and  C_12
REMARK    7  A    between atoms: C_15  and  C_17
REMARK    8  A    between atoms: C_20  and  C_24
REMARK    9  A    between atoms: C_22  and  C_23
REMARK                            x       y       z     vdW  Elec       q    Type
REMARK                         _______ _______ _______ _____ _____    ______ ____
ROOT
ATOM      1  C   UNL     1      -3.507  -0.025   2.443  0.00  0.00    +0.138 C 
ATOM      2  C   UNL     1      -2.605  -0.341   1.266  0.00  0.00    +0.251 C 
ATOM      3  O   UNL     1      -1.955  -1.349   1.091  0.00  0.00    -0.272 OA
ATOM      4  N   UNL     1      -2.674   0.734   0.456  0.00  0.00    -0.218 N 
ATOM      5  C   UNL     1      -3.492   1.671   0.948  0.00  0.00    +0.310 C 
ATOM      6  O   UNL     1      -3.719   2.729   0.394  0.00  0.00    -0.252 OA
ATOM      7  N   UNL     1      -4.035   1.313   2.125  0.00  0.00    -0.281 N 
ATOM      8  H   UNL     1      -4.735   1.805   2.816  0.00  0.00    +0.152 HD
ENDROOT
BRANCH   1   9
ATOM      9  C   UNL     1      -4.627  -1.029   2.534  0.00  0.00    -0.015 A 
ATOM     10  C   UNL     1      -4.502  -2.131   3.361  0.00  0.00    +0.006 A 
ATOM     11  C   UNL     1      -5.532  -3.049   3.448  0.00  0.00    +0.000 A 
ATOM     12  C   UNL     1      -6.682  -2.872   2.702  0.00  0.00    +0.000 A 
ATOM     13  C   UNL     1      -6.804  -1.773   1.872  0.00  0.00    +0.000 A 
ATOM     14  C   UNL     1      -5.777  -0.852   1.788  0.00  0.00    +0.006 A 
ENDBRANCH   1   9
BRANCH   1  15
ATOM     15  C   UNL     1      -2.707   0.007   3.746  0.00  0.00    +0.040 C 
BRANCH  15  17
ATOM     16  C   UNL     1      -0.823   1.114   4.957  0.00  0.00    +0.004 C 
ATOM     17  C   UNL     1      -1.623   1.082   3.653  0.00  0.00    -0.000 C 
ENDBRANCH  15  17
ENDBRANCH   1  15
BRANCH   4  18
ATOM     18  C   UNL     1      -1.948   0.858  -0.811  0.00  0.00    +0.176 C 
BRANCH  18  19
ATOM     19  C   UNL     1      -0.605   1.494  -0.560  0.00  0.00    +0.098 A 
ATOM     20  C   UNL     1       0.556   0.844  -0.367  0.00  0.00    +0.222 A 
ATOM     21  O   UNL     1       1.512   1.776  -0.186  0.00  0.00    -0.443 OA
ATOM     22  C   UNL     1       0.925   2.983  -0.264  0.00  0.00    +0.228 A 
ATOM     23  N   UNL     1      -0.356   2.811  -0.487  0.00  0.00    -0.212 NA
BRANCH  22  24
ATOM     24  C   UNL     1       1.609   4.286  -0.123  0.00  0.00    +0.040 A 
ATOM     25  C   UNL     1       1.367   5.308  -1.042  0.00  0.00    +0.014 A 
ATOM     26  C   UNL     1       2.005   6.523  -0.902  0.00  0.00    +0.004 A 
ATOM     27  C   UNL     1       2.891   6.727   0.141  0.00  0.00    -0.050 A 
ATOM     28  C   UNL     1       3.139   5.716   1.053  0.00  0.00    +0.007 A 
ATOM     29  C   UNL     1       2.504   4.498   0.927  0.00  0.00    -0.038 A 
ATOM     30  C   UNL     1       2.776   3.398   1.921  0.00  0.00    +0.044 C 
ATOM     31  C   UNL     1       3.589   8.055   0.284  0.00  0.00    +0.044 C 
ENDBRANCH  22  24
ENDBRANCH  18  19
ENDBRANCH   4  18
TORSDOF 6
