REMARK  Name = ZINC17180399
REMARK  3 active torsions:
REMARK  status: ('A' for Active; 'I' for Inactive)
REMARK    1  A    between atoms: C_4  and  C_7
REMARK    2  A    between atoms: C_7  and  S_8
REMARK    3  A    between atoms: S_8  and  C_9
REMARK                            x       y       z     vdW  Elec       q    Type
REMARK                         _______ _______ _______ _____ _____    ______ ____
ROOT
ATOM      1  C   UNL     1       5.786  -1.866   1.477  0.00  0.00    +0.171 A 
ATOM      2  N   UNL     1       6.223  -2.106   0.262  0.00  0.00    -0.185 NA
ATOM      3  C   UNL     1       7.371  -2.747  -0.017  0.00  0.00    +0.282 A 
ATOM      4  C   UNL     1       8.170  -3.201   1.152  0.00  0.00    +0.076 A 
ATOM      5  C   UNL     1       9.390  -3.890   1.119  0.00  0.00    -0.018 A 
ATOM      6  C   UNL     1       9.962  -4.202   2.329  0.00  0.00    +0.025 A 
ATOM      7  S   UNL     1       8.830  -3.583   3.538  0.00  0.00    -0.070 S 
ATOM      8  C   UNL     1       7.637  -2.909   2.425  0.00  0.00    +0.093 A 
ATOM      9  N   UNL     1       6.466  -2.246   2.607  0.00  0.00    -0.328 N 
ATOM     10  C   UNL     1      11.245  -4.887   2.473  0.00  0.00    -0.008 A 
ATOM     11  C   UNL     1      11.676  -5.446   3.669  0.00  0.00    +0.009 A 
ATOM     12  C   UNL     1      12.889  -6.105   3.718  0.00  0.00    +0.001 A 
ATOM     13  C   UNL     1      13.668  -6.208   2.579  0.00  0.00    +0.000 A 
ATOM     14  C   UNL     1      13.249  -5.642   1.388  0.00  0.00    +0.004 A 
ATOM     15  C   UNL     1      12.048  -4.968   1.325  0.00  0.00    -0.039 A 
ATOM     16  C   UNL     1      11.616  -4.284   0.058  0.00  0.00    +0.040 C 
ATOM     17  C   UNL     1      10.108  -4.326  -0.153  0.00  0.00    +0.042 C 
ATOM     18  O   UNL     1       7.737  -2.946  -1.165  0.00  0.00    -0.265 OA
ATOM     19  H   UNL     1       6.124  -2.053   3.494  0.00  0.00    +0.168 HD
ENDROOT
BRANCH   1  20
ATOM     20  S   UNL     1       4.257  -1.011   1.666  0.00  0.00    -0.083 S 
BRANCH  20  21
ATOM     21  C   UNL     1       3.711  -0.707  -0.038  0.00  0.00    +0.112 C 
BRANCH  21  25
ATOM     22  C   UNL     1      -0.017   1.378   0.010  0.00  0.00    +0.000 A 
ATOM     23  C   UNL     1       1.171   2.086   0.002  0.00  0.00    +0.000 A 
ATOM     24  C   UNL     1       2.377   1.411  -0.013  0.00  0.00    +0.004 A 
ATOM     25  C   UNL     1       2.396   0.029  -0.020  0.00  0.00    -0.037 A 
ATOM     26  C   UNL     1       1.208  -0.679  -0.012  0.00  0.00    +0.004 A 
ATOM     27  C   UNL     1       0.002  -0.004   0.002  0.00  0.00    +0.000 A 
ENDBRANCH  21  25
ENDBRANCH  20  21
ENDBRANCH   1  20
TORSDOF 3
