REMARK  Name = ZINC24257613
REMARK  5 active torsions:
REMARK  status: ('A' for Active; 'I' for Inactive)
REMARK    1  A    between atoms: C_3  and  C_26
REMARK    2  A    between atoms: C_5  and  N_7
REMARK    3  A    between atoms: N_10  and  C_13
REMARK    4  A    between atoms: C_13  and  C_14
REMARK    5  A    between atoms: C_17  and  C_19
REMARK                            x       y       z     vdW  Elec       q    Type
REMARK                         _______ _______ _______ _____ _____    ______ ____
ROOT
ATOM      1  N   UNL     1      -0.069   5.239   0.030  0.00  0.00    -0.333 N 
ATOM      2  C   UNL     1      -0.850   5.761  -1.099  0.00  0.00    +0.086 C 
ATOM      3  C   UNL     1      -0.913   7.288  -1.011  0.00  0.00    -0.059 C 
ATOM      4  N   UNL     1       0.451   7.833  -1.021  0.00  0.00    +0.385 N 
ATOM      5  C   UNL     1       1.233   7.311   0.108  0.00  0.00    -0.059 C 
ATOM      6  C   UNL     1       1.296   5.784   0.020  0.00  0.00    +0.086 C 
ATOM      7  H   UNL     1       0.940   7.508  -1.952  0.00  0.00    -0.081 HD
ENDROOT
BRANCH   1  12
ATOM      8  C   UNL     1       1.177   1.782   0.000  0.00  0.00    +0.002 A 
ATOM      9  C   UNL     1      -0.013   1.076   0.008  0.00  0.00    +0.012 A 
ATOM     10  C   UNL     1      -1.220   1.749   0.017  0.00  0.00    +0.057 A 
ATOM     11  C   UNL     1      -1.242   3.130   0.031  0.00  0.00    +0.035 A 
ATOM     12  C   UNL     1      -0.050   3.842   0.023  0.00  0.00    +0.030 A 
ATOM     13  C   UNL     1       1.161   3.163   0.008  0.00  0.00    +0.023 A 
BRANCH  10  14
ATOM     14  C   UNL     1      -2.513   0.976   0.019  0.00  0.00    +0.417 C 
ATOM     15  F   UNL     1      -2.236  -0.396   0.010  0.00  0.00    -0.166 F 
ATOM     16  F   UNL     1      -3.247   1.295   1.166  0.00  0.00    -0.166 F 
ATOM     17  F   UNL     1      -3.257   1.309  -1.118  0.00  0.00    -0.166 F 
ENDBRANCH  10  14
ENDBRANCH   1  12
BRANCH   4  18
ATOM     18  C   UNL     1       0.431   9.302  -1.014  0.00  0.00    -0.019 C 
BRANCH  18  19
ATOM     19  C   UNL     1      -0.161   9.803  -2.306  0.00  0.00    +0.063 A 
ATOM     20  C   UNL     1      -1.449  10.135  -2.510  0.00  0.00    +0.219 A 
ATOM     21  O   UNL     1      -1.560  10.535  -3.793  0.00  0.00    -0.443 OA
ATOM     22  C   UNL     1      -0.345  10.435  -4.359  0.00  0.00    +0.227 A 
ATOM     23  N   UNL     1       0.500   9.992  -3.458  0.00  0.00    -0.216 NA
BRANCH  22  24
ATOM     24  C   UNL     1      -0.016  10.768  -5.761  0.00  0.00    +0.037 A 
ATOM     25  C   UNL     1       1.292  10.624  -6.226  0.00  0.00    +0.016 A 
ATOM     26  C   UNL     1       1.593  10.932  -7.536  0.00  0.00    +0.039 A 
ATOM     27  C   UNL     1       0.601  11.392  -8.388  0.00  0.00    +0.123 A 
ATOM     28  C   UNL     1      -0.698  11.541  -7.929  0.00  0.00    +0.039 A 
ATOM     29  C   UNL     1      -1.011  11.232  -6.622  0.00  0.00    +0.016 A 
ATOM     30  F   UNL     1       0.902  11.697  -9.669  0.00  0.00    -0.205 F 
ENDBRANCH  22  24
ENDBRANCH  18  19
ENDBRANCH   4  18
TORSDOF 5
