REMARK  Name = ZINC04353219
REMARK  11 active torsions:
REMARK  status: ('A' for Active; 'I' for Inactive)
REMARK    1  A    between atoms: C_4  and  N_7
REMARK    2  A    between atoms: C_8  and  O_10
REMARK    3  A    between atoms: O_10  and  C_11
REMARK    4  A    between atoms: C_11  and  C_12
REMARK    5  A    between atoms: C_14  and  O_31
REMARK    6  A    between atoms: C_15  and  C_20
REMARK    7  A    between atoms: C_20  and  O_21
REMARK    8  A    between atoms: O_21  and  C_22
REMARK    9  A    between atoms: N_24  and  C_25
REMARK   10  A    between atoms: O_31  and  C_32
REMARK   11  A    between atoms: N_34  and  C_35
REMARK                            x       y       z     vdW  Elec       q    Type
REMARK                         _______ _______ _______ _____ _____    ______ ____
ROOT
ATOM      1  C   UNL     1       1.780   3.535   0.323  0.00  0.00    +0.202 C 
ATOM      2  C   UNL     1       2.917   4.538   0.546  0.00  0.00    +0.242 C 
ATOM      3  C   UNL     1       3.821   4.545  -0.692  0.00  0.00    +0.202 C 
ATOM      4  O   UNL     1       3.021   4.803  -1.850  0.00  0.00    -0.344 OA
ATOM      5  C   UNL     1       1.966   3.857  -2.044  0.00  0.00    +0.324 C 
ATOM      6  O   UNL     1       1.110   3.857  -0.899  0.00  0.00    -0.344 OA
ENDROOT
BRANCH   1   7
ATOM      7  C   UNL     1       2.355   2.120   0.235  0.00  0.00    +0.269 C 
BRANCH   7   8
ATOM      8  O   UNL     1       1.269   1.161   0.142  0.00  0.00    -0.447 OA
BRANCH   8  10
ATOM      9  N   UNL     1       0.647  -1.081  -0.032  0.00  0.00    -0.251 N 
ATOM     10  C   UNL     1       1.607  -0.140   0.057  0.00  0.00    +0.405 C 
ATOM     11  O   UNL     1       2.778  -0.464   0.059  0.00  0.00    -0.226 OA
ATOM     12  H   UNL     1      -0.287  -0.830   0.042  0.00  0.00    +0.158 HD
BRANCH   9  16
ATOM     13  C   UNL     1       1.691  -5.072  -0.618  0.00  0.00    +0.000 A 
ATOM     14  C   UNL     1       0.575  -4.754   0.134  0.00  0.00    +0.002 A 
ATOM     15  C   UNL     1       0.227  -3.432   0.330  0.00  0.00    +0.023 A 
ATOM     16  C   UNL     1       0.998  -2.422  -0.229  0.00  0.00    +0.036 A 
ATOM     17  C   UNL     1       2.115  -2.744  -0.989  0.00  0.00    +0.023 A 
ATOM     18  C   UNL     1       2.462  -4.068  -1.176  0.00  0.00    +0.002 A 
ENDBRANCH   9  16
ENDBRANCH   8  10
ENDBRANCH   7   8
ENDBRANCH   1   7
BRANCH   3  19
ATOM     19  C   UNL     1       4.880   5.639  -0.547  0.00  0.00    +0.269 C 
BRANCH  19  20
ATOM     20  O   UNL     1       5.806   5.568  -1.663  0.00  0.00    -0.447 OA
BRANCH  20  21
ATOM     21  C   UNL     1       6.806   6.469  -1.686  0.00  0.00    +0.405 C 
ATOM     22  O   UNL     1       6.902   7.293  -0.798  0.00  0.00    -0.226 OA
ATOM     23  N   UNL     1       7.701   6.457  -2.694  0.00  0.00    -0.251 N 
ATOM     24  H   UNL     1       7.586   5.845  -3.438  0.00  0.00    +0.158 HD
BRANCH  23  25
ATOM     25  C   UNL     1       8.796   7.328  -2.668  0.00  0.00    +0.036 A 
ATOM     26  C   UNL     1       8.657   8.605  -2.140  0.00  0.00    +0.023 A 
ATOM     27  C   UNL     1       9.742   9.460  -2.111  0.00  0.00    +0.002 A 
ATOM     28  C   UNL     1      10.961   9.050  -2.616  0.00  0.00    +0.000 A 
ATOM     29  C   UNL     1      11.102   7.781  -3.147  0.00  0.00    +0.002 A 
ATOM     30  C   UNL     1      10.023   6.919  -3.175  0.00  0.00    +0.023 A 
ENDBRANCH  23  25
ENDBRANCH  20  21
ENDBRANCH  19  20
ENDBRANCH   3  19
BRANCH   2  31
ATOM     31  O   UNL     1       2.363   5.864   0.754  0.00  0.00    -0.441 OA
BRANCH  31  32
ATOM     32  C   UNL     1       3.064   6.703   1.539  0.00  0.00    +0.405 C 
ATOM     33  O   UNL     1       4.110   6.338   2.037  0.00  0.00    -0.226 OA
ATOM     34  N   UNL     1       2.605   7.949   1.773  0.00  0.00    -0.251 N 
ATOM     35  H   UNL     1       1.738   8.218   1.431  0.00  0.00    +0.158 HD
BRANCH  34  36
ATOM     36  C   UNL     1       3.379   8.853   2.510  0.00  0.00    +0.036 A 
ATOM     37  C   UNL     1       4.148   8.404   3.575  0.00  0.00    +0.023 A 
ATOM     38  C   UNL     1       4.915   9.298   4.296  0.00  0.00    +0.002 A 
ATOM     39  C   UNL     1       4.908  10.640   3.966  0.00  0.00    +0.000 A 
ATOM     40  C   UNL     1       4.139  11.092   2.909  0.00  0.00    +0.002 A 
ATOM     41  C   UNL     1       3.375  10.202   2.180  0.00  0.00    +0.023 A 
ENDBRANCH  34  36
ENDBRANCH  31  32
ENDBRANCH   2  31
TORSDOF 11
