REMARK  Name = ZINC21082016
REMARK  8 active torsions:
REMARK  status: ('A' for Active; 'I' for Inactive)
REMARK    1  A    between atoms: C_1  and  C_2
REMARK    2  A    between atoms: C_2  and  C_21
REMARK    3  A    between atoms: N_3  and  N_4
REMARK    4  A    between atoms: C_7  and  S_10
REMARK    5  A    between atoms: S_10  and  C_11
REMARK    6  A    between atoms: C_11  and  C_12
REMARK    7  A    between atoms: C_12  and  O_14
REMARK    8  A    between atoms: O_14  and  C_15
REMARK                            x       y       z     vdW  Elec       q    Type
REMARK                         _______ _______ _______ _____ _____    ______ ____
ROOT
ATOM      1  N   UNL     1      -0.011   0.966   0.007  0.00  0.00    -0.205 N 
ATOM      2  C   UNL     1      -1.222   1.643   0.017  0.00  0.00    +0.232 A 
ATOM      3  N   UNL     1      -2.463   1.070   0.019  0.00  0.00    -0.186 NA
ATOM      4  C   UNL     1      -3.391   2.073   0.029  0.00  0.00    +0.211 A 
ATOM      5  N   UNL     1      -2.751   3.217   0.033  0.00  0.00    -0.144 NA
ATOM      6  N   UNL     1      -1.377   2.945   0.030  0.00  0.00    -0.245 N 
ATOM      7  H   UNL     1       0.004  -0.134   0.006  0.00  0.00    +0.177 HD
ATOM      8  H   UNL     1      -0.495   3.603   0.037  0.00  0.00    +0.192 HD
ENDROOT
BRANCH   1  11
ATOM      9  C   UNL     1       2.346  -0.458  -0.023  0.00  0.00    +0.068 C 
ATOM     10  C   UNL     1       2.326   1.049  -0.015  0.00  0.00    +0.063 C 
ATOM     11  N   UNL     1       1.193   1.683  -0.000  0.00  0.00    -0.184 NA
BRANCH  10  12
ATOM     12  C   UNL     1       3.592   1.803  -0.023  0.00  0.00    -0.002 A 
ATOM     13  C   UNL     1       4.813   1.124  -0.032  0.00  0.00    +0.012 A 
ATOM     14  C   UNL     1       5.995   1.835  -0.046  0.00  0.00    +0.039 A 
ATOM     15  C   UNL     1       5.973   3.221  -0.038  0.00  0.00    +0.123 A 
ATOM     16  C   UNL     1       4.765   3.901  -0.022  0.00  0.00    +0.039 A 
ATOM     17  C   UNL     1       3.577   3.200  -0.015  0.00  0.00    +0.012 A 
ATOM     18  F   UNL     1       7.133   3.912  -0.045  0.00  0.00    -0.205 F 
ENDBRANCH  10  12
ENDBRANCH   1  11
BRANCH   4  19
ATOM     19  S   UNL     1      -5.141   1.864   0.037  0.00  0.00    -0.073 S 
BRANCH  19  20
ATOM     20  C   UNL     1      -5.784   3.560   0.049  0.00  0.00    +0.197 C 
BRANCH  20  21
ATOM     21  C   UNL     1      -7.291   3.526   0.056  0.00  0.00    +0.318 C 
ATOM     22  O   UNL     1      -7.871   2.466   0.054  0.00  0.00    -0.250 OA
BRANCH  21  23
ATOM     23  O   UNL     1      -7.989   4.673   0.066  0.00  0.00    -0.461 OA
BRANCH  23  24
ATOM     24  C   UNL     1      -9.436   4.563   0.073  0.00  0.00    +0.176 C 
ATOM     25  C   UNL     1      -9.952   4.532  -1.368  0.00  0.00    +0.044 C 
ATOM     26  C   UNL     1     -11.478   4.417  -1.361  0.00  0.00    +0.004 C 
ATOM     27  C   UNL     1     -12.077   5.621  -0.630  0.00  0.00    +0.000 C 
ATOM     28  C   UNL     1     -11.561   5.652   0.810  0.00  0.00    +0.004 C 
ATOM     29  C   UNL     1     -10.035   5.767   0.803  0.00  0.00    +0.044 C 
ENDBRANCH  23  24
ENDBRANCH  21  23
ENDBRANCH  20  21
ENDBRANCH  19  20
ENDBRANCH   4  19
TORSDOF 7
