REMARK  Name = ZINC15793164
REMARK  11 active torsions:
REMARK  status: ('A' for Active; 'I' for Inactive)
REMARK    1  A    between atoms: C_1  and  C_2
REMARK    2  A    between atoms: C_5  and  S_24
REMARK    3  A    between atoms: C_7  and  C_8
REMARK    4  A    between atoms: N_10  and  N_11
REMARK    5  A    between atoms: C_12  and  C_14
REMARK    6  A    between atoms: C_17  and  O_22
REMARK    7  A    between atoms: C_18  and  O_20
REMARK    8  A    between atoms: O_20  and  C_21
REMARK    9  A    between atoms: O_22  and  C_23
REMARK   10  A    between atoms: S_24  and  N_27
REMARK   11  A    between atoms: C_32  and  C_34
REMARK                            x       y       z     vdW  Elec       q    Type
REMARK                         _______ _______ _______ _____ _____    ______ ____
ROOT
ATOM      1  C   UNL     1       1.392  -3.467  -6.231  0.00  0.00    +0.260 C 
ATOM      2  O   UNL     1       1.168  -3.615  -7.417  0.00  0.00    -0.269 OA
ATOM      3  N   UNL     1       0.933  -4.369  -5.341  0.00  0.00    -0.230 N 
ATOM      4  H   UNL     1       1.112  -4.251  -4.395  0.00  0.00    +0.173 HD
ENDROOT
BRANCH   1  11
ATOM      5  C   UNL     1       2.485  -1.613  -8.165  0.00  0.00    +0.044 C 
ATOM      6  C   UNL     1       2.701  -1.398  -6.689  0.00  0.00    -0.038 A 
ATOM      7  C   UNL     1       3.425  -0.309  -6.248  0.00  0.00    +0.006 A 
ATOM      8  C   UNL     1       3.624  -0.110  -4.894  0.00  0.00    +0.029 A 
ATOM      9  C   UNL     1       3.099  -0.999  -3.973  0.00  0.00    +0.106 A 
ATOM     10  C   UNL     1       2.378  -2.095  -4.401  0.00  0.00    +0.042 A 
ATOM     11  C   UNL     1       2.169  -2.299  -5.766  0.00  0.00    +0.043 A 
BRANCH   9  12
ATOM     12  S   UNL     1       3.358  -0.736  -2.250  0.00  0.00    +0.061 S 
ATOM     13  O   UNL     1       4.532   0.057  -2.132  0.00  0.00    -0.153 OA
ATOM     14  O   UNL     1       3.230  -2.004  -1.622  0.00  0.00    -0.153 OA
BRANCH  12  15
ATOM     15  N   UNL     1       2.102   0.193  -1.702  0.00  0.00    -0.174 NA
ATOM     16  C   UNL     1       2.246   1.650  -1.579  0.00  0.00    +0.110 C 
ATOM     17  C   UNL     1       1.867   2.064  -0.154  0.00  0.00    +0.017 C 
ATOM     18  C   UNL     1       0.465   1.542   0.169  0.00  0.00    +0.003 C 
ATOM     19  C   UNL     1       0.458   0.013   0.092  0.00  0.00    +0.020 C 
ATOM     20  C   UNL     1       0.821  -0.424  -1.330  0.00  0.00    +0.077 C 
ATOM     21  C   UNL     1       0.949  -1.948  -1.381  0.00  0.00    +0.026 C 
ENDBRANCH  12  15
ENDBRANCH   9  12
ENDBRANCH   1  11
BRANCH   3  22
ATOM     22  N   UNL     1       0.197  -5.477  -5.783  0.00  0.00    -0.230 N 
ATOM     23  C   UNL     1      -0.263  -6.378  -4.893  0.00  0.00    +0.260 C 
ATOM     24  O   UNL     1      -0.038  -6.231  -3.707  0.00  0.00    -0.269 OA
ATOM     25  H   UNL     1       0.018  -5.594  -6.729  0.00  0.00    +0.173 HD
BRANCH  23  26
ATOM     26  C   UNL     1      -1.038  -7.545  -5.357  0.00  0.00    +0.042 A 
ATOM     27  C   UNL     1      -1.302  -7.713  -6.719  0.00  0.00    +0.017 A 
ATOM     28  C   UNL     1      -2.021  -8.806  -7.152  0.00  0.00    +0.050 A 
ATOM     29  C   UNL     1      -2.495  -9.735  -6.237  0.00  0.00    +0.162 A 
ATOM     30  C   UNL     1      -2.241  -9.571  -4.876  0.00  0.00    +0.162 A 
ATOM     31  C   UNL     1      -1.515  -8.481  -4.436  0.00  0.00    +0.062 A 
BRANCH  30  32
ATOM     32  O   UNL     1      -2.706 -10.484  -3.982  0.00  0.00    -0.491 OA
ATOM     33  C   UNL     1      -2.408 -10.253  -2.603  0.00  0.00    +0.277 C 
ENDBRANCH  30  32
BRANCH  29  34
ATOM     34  O   UNL     1      -3.209 -10.807  -6.668  0.00  0.00    -0.491 OA
ATOM     35  C   UNL     1      -3.434 -10.914  -8.075  0.00  0.00    +0.277 C 
ENDBRANCH  29  34
ENDBRANCH  23  26
ENDBRANCH   3  22
TORSDOF 7
