REMARK  Name = ZINC33812602
REMARK  16 active torsions:
REMARK  status: ('A' for Active; 'I' for Inactive)
REMARK    1  A    between atoms: C_1  and  C_2
REMARK    2  A    between atoms: C_2  and  C_3
REMARK    3  A    between atoms: C_3  and  C_4
REMARK    4  A    between atoms: C_4  and  C_5
REMARK    5  A    between atoms: C_5  and  C_7
REMARK    6  A    between atoms: C_5  and  C_9
REMARK    7  A    between atoms: C_7  and  C_8
REMARK    8  A    between atoms: C_9  and  N_10
REMARK    9  A    between atoms: C_14  and  C_15
REMARK   10  A    between atoms: C_16  and  C_34
REMARK   11  A    between atoms: C_17  and  C_32
REMARK   12  A    between atoms: N_20  and  C_29
REMARK   13  A    between atoms: C_21  and  N_22
REMARK   14  A    between atoms: N_25  and  C_28
REMARK   15  A    between atoms: C_29  and  C_30
REMARK   16  A    between atoms: C_30  and  C_31
REMARK                            x       y       z     vdW  Elec       q    Type
REMARK                         _______ _______ _______ _____ _____    ______ ____
ROOT
ATOM      1  C   UNL     1      -8.276  -5.715   1.750  0.00  0.00    +0.019 A 
ATOM      2  C   UNL     1      -8.765  -6.110   0.493  0.00  0.00    -0.017 A 
ATOM      3  C   UNL     1     -10.089  -6.526   0.386  0.00  0.00    +0.120 A 
ATOM      4  C   UNL     1     -10.910  -6.542   1.542  0.00  0.00    +0.270 A 
ATOM      5  O   UNL     1     -12.070  -6.905   1.455  0.00  0.00    -0.266 OA
ATOM      6  N   UNL     1     -10.419  -6.159   2.734  0.00  0.00    -0.295 N 
ATOM      7  C   UNL     1      -9.129  -5.754   2.865  0.00  0.00    +0.112 A 
ATOM      8  C   UNL     1      -7.870  -6.083  -0.719  0.00  0.00    +0.046 C 
ENDROOT
BRANCH   1  13
ATOM      9  N   UNL     1      -3.665  -6.980   1.581  0.00  0.00    -0.255 N 
ATOM     10  C   UNL     1      -4.460  -5.948   1.805  0.00  0.00    +0.258 C 
ATOM     11  O   UNL     1      -4.004  -4.853   2.080  0.00  0.00    -0.269 OA
ATOM     12  C   UNL     1      -5.870  -6.156   1.715  0.00  0.00    +0.077 C 
ATOM     13  C   UNL     1      -6.889  -5.273   1.897  0.00  0.00    +0.032 C 
ATOM     14  S   UNL     1      -5.932  -7.893   1.297  0.00  0.00    -0.061 S 
ATOM     15  C   UNL     1      -4.171  -8.194   1.270  0.00  0.00    +0.121 C 
ATOM     16  S   UNL     1      -3.337  -9.651   0.937  0.00  0.00    -0.027 S 
BRANCH   9  17
ATOM     17  C   UNL     1      -2.213  -6.804   1.664  0.00  0.00    +0.118 C 
BRANCH  17  18
ATOM     18  C   UNL     1      -1.668  -6.401   0.293  0.00  0.00    +0.007 C 
BRANCH  18  19
ATOM     19  C   UNL     1      -2.221  -5.027  -0.092  0.00  0.00    +0.002 C 
ATOM     20  C   UNL     1      -1.739  -4.658  -1.496  0.00  0.00    +0.004 C 
ENDBRANCH  18  19
BRANCH  18  21
ATOM     21  C   UNL     1      -0.140  -6.338   0.349  0.00  0.00    +0.005 C 
BRANCH  21  22
ATOM     22  C   UNL     1       0.416  -7.732   0.646  0.00  0.00    +0.000 C 
BRANCH  22  24
ATOM     23  C   UNL     1       2.501  -9.090   0.871  0.00  0.00    +0.004 C 
ATOM     24  C   UNL     1       1.944  -7.697   0.574  0.00  0.00    -0.003 C 
ENDBRANCH  22  24
ENDBRANCH  21  22
ENDBRANCH  18  21
ENDBRANCH  17  18
ENDBRANCH   9  17
ENDBRANCH   1  13
BRANCH   7  25
ATOM     25  N   UNL     1      -8.660  -5.377   4.090  0.00  0.00    -0.320 N 
ATOM     26  C   UNL     1      -7.937  -6.328   4.948  0.00  0.00    +0.088 C 
ATOM     27  C   UNL     1      -6.631  -5.672   5.408  0.00  0.00    -0.060 C 
ATOM     28  N   UNL     1      -6.930  -4.385   6.048  0.00  0.00    +0.380 N 
ATOM     29  C   UNL     1      -7.512  -3.461   5.066  0.00  0.00    -0.060 C 
ATOM     30  C   UNL     1      -8.857  -4.006   4.586  0.00  0.00    +0.088 C 
ATOM     31  C   UNL     1      -5.691  -3.807   6.586  0.00  0.00    -0.096 C 
ATOM     32  H   UNL     1      -7.586  -4.529   6.801  0.00  0.00    -0.082 HD
ENDBRANCH   7  25
BRANCH   3  33
ATOM     33  C   UNL     1     -10.617  -6.934  -0.881  0.00  0.00    +0.105 C 
ATOM     34  N   UNL     1     -11.036  -7.258  -1.886  0.00  0.00    -0.191 NA
ENDBRANCH   3  33
BRANCH   6  35
ATOM     35  C   UNL     1     -11.289  -6.184   3.913  0.00  0.00    +0.126 C 
BRANCH  35  36
ATOM     36  C   UNL     1     -11.134  -7.525   4.632  0.00  0.00    +0.018 C 
ATOM     37  C   UNL     1     -12.043  -7.551   5.863  0.00  0.00    +0.005 C 
ENDBRANCH  35  36
ENDBRANCH   6  35
TORSDOF 11
