REMARK  Name = ZINC15150536
REMARK  7 active torsions:
REMARK  status: ('A' for Active; 'I' for Inactive)
REMARK    1  A    between atoms: C_1  and  C_2
REMARK    2  A    between atoms: C_4  and  C_27
REMARK    3  A    between atoms: C_5  and  N_9
REMARK    4  A    between atoms: N_9  and  C_10
REMARK    5  A    between atoms: C_10  and  N_12
REMARK    6  A    between atoms: N_12  and  N_13
REMARK    7  A    between atoms: C_14  and  C_16
REMARK                            x       y       z     vdW  Elec       q    Type
REMARK                         _______ _______ _______ _____ _____    ______ ____
ROOT
ATOM      1  N   UNL     1      -2.617  -1.027   0.905  0.00  0.00    -0.246 N 
ATOM      2  H   UNL     1      -2.371  -1.920   1.192  0.00  0.00    +0.172 HD
ENDROOT
BRANCH   1   3
ATOM      3  N   UNL     1      -3.949  -0.736   0.584  0.00  0.00    -0.232 N 
ATOM      4  C   UNL     1      -4.889  -1.697   0.675  0.00  0.00    +0.273 C 
ATOM      5  O   UNL     1      -4.582  -2.814   1.033  0.00  0.00    -0.270 OA
ATOM      6  H   UNL     1      -4.195   0.158   0.297  0.00  0.00    +0.173 HD
BRANCH   4   7
ATOM      7  C   UNL     1      -6.322  -1.385   0.330  0.00  0.00    +0.297 C 
ATOM      8  C   UNL     1      -6.888  -0.374   1.337  0.00  0.00    +0.283 C 
ATOM      9  O   UNL     1      -8.252  -0.111   0.989  0.00  0.00    -0.484 OA
ATOM     10  C   UNL     1      -9.032  -1.191   0.708  0.00  0.00    +0.162 A 
ATOM     11  C   UNL     1     -10.412  -1.055   0.716  0.00  0.00    +0.049 A 
ATOM     12  C   UNL     1     -11.216  -2.141   0.427  0.00  0.00    +0.004 A 
ATOM     13  C   UNL     1     -10.648  -3.366   0.129  0.00  0.00    +0.004 A 
ATOM     14  C   UNL     1      -9.273  -3.508   0.121  0.00  0.00    +0.049 A 
ATOM     15  C   UNL     1      -8.460  -2.423   0.411  0.00  0.00    +0.163 A 
ATOM     16  O   UNL     1      -7.108  -2.579   0.402  0.00  0.00    -0.472 OA
ENDBRANCH   4   7
ENDBRANCH   1   3
BRANCH   1  17
ATOM     17  C   UNL     1      -1.677  -0.065   0.815  0.00  0.00    +0.151 C 
ATOM     18  S   UNL     1      -0.048  -0.420   1.206  0.00  0.00    -0.017 S 
BRANCH  17  19
ATOM     19  N   UNL     1      -2.018   1.176   0.416  0.00  0.00    -0.294 N 
ATOM     20  H   UNL     1      -2.950   1.396   0.259  0.00  0.00    +0.154 HD
BRANCH  19  25
ATOM     21  C   UNL     1       2.000   5.110  -0.342  0.00  0.00    +0.044 C 
ATOM     22  C   UNL     1       0.931   4.067  -0.141  0.00  0.00    -0.049 A 
ATOM     23  C   UNL     1       0.752   3.072  -1.085  0.00  0.00    +0.008 A 
ATOM     24  C   UNL     1      -0.227   2.115  -0.905  0.00  0.00    -0.028 A 
ATOM     25  C   UNL     1      -1.029   2.148   0.228  0.00  0.00    +0.054 A 
ATOM     26  C   UNL     1      -0.850   3.151   1.173  0.00  0.00    +0.063 A 
ATOM     27  C   UNL     1       0.132   4.106   0.986  0.00  0.00    +0.025 A 
ATOM     28 CL   UNL     1      -1.853   3.201   2.588  0.00  0.00    -0.082 Cl
ATOM     29  C   UNL     1      -0.421   1.031  -1.935  0.00  0.00    +0.046 C 
ENDBRANCH  19  25
ENDBRANCH  17  19
ENDBRANCH   1  17
TORSDOF 5
