REMARK  Name = ZINC13916719
REMARK  7 active torsions:
REMARK  status: ('A' for Active; 'I' for Inactive)
REMARK    1  A    between atoms: C_1  and  C_2
REMARK    2  A    between atoms: C_5  and  C_9
REMARK    3  A    between atoms: C_6  and  C_8
REMARK    4  A    between atoms: C_11  and  C_32
REMARK    5  A    between atoms: C_12  and  N_31
REMARK    6  A    between atoms: N_13  and  C_21
REMARK    7  A    between atoms: C_26  and  N_27
REMARK                            x       y       z     vdW  Elec       q    Type
REMARK                         _______ _______ _______ _____ _____    ______ ____
ROOT
ATOM      1  C   UNL     1      -2.224   2.269   2.720  0.00  0.00    +0.098 C 
ATOM      2  C   UNL     1      -3.620   1.723   2.656  0.00  0.00    +0.077 C 
ATOM      3  C   UNL     1      -4.280   1.620   1.474  0.00  0.00    +0.107 C 
ATOM      4  N   UNL     1      -3.667   2.011   0.305  0.00  0.00    -0.258 N 
ATOM      5  C   UNL     1      -2.303   2.122   0.238  0.00  0.00    +0.025 C 
ATOM      6  C   UNL     1      -1.567   2.246   1.363  0.00  0.00    +0.025 C 
ATOM      7  C   UNL     1      -0.165   2.362   1.306  0.00  0.00    +0.162 C 
ATOM      8  O   UNL     1       0.471   2.455   2.337  0.00  0.00    -0.292 OA
ATOM      9  C   UNL     1       0.560   2.373  -0.012  0.00  0.00    +0.080 C 
ATOM     10  C   UNL     1      -0.370   2.940  -1.090  0.00  0.00    +0.014 C 
ATOM     11  C   UNL     1      -1.647   2.097  -1.120  0.00  0.00    +0.052 C 
ENDROOT
BRANCH   1  16
ATOM     12  C   UNL     1      -2.407   7.715   4.644  0.00  0.00    +0.044 C 
ATOM     13  C   UNL     1      -2.360   6.295   4.142  0.00  0.00    -0.050 A 
ATOM     14  C   UNL     1      -2.917   5.975   2.918  0.00  0.00    +0.003 A 
ATOM     15  C   UNL     1      -2.874   4.672   2.458  0.00  0.00    +0.005 A 
ATOM     16  C   UNL     1      -2.272   3.689   3.222  0.00  0.00    -0.032 A 
ATOM     17  C   UNL     1      -1.718   4.009   4.447  0.00  0.00    -0.046 A 
ATOM     18  C   UNL     1      -1.758   5.312   4.905  0.00  0.00    +0.007 A 
ATOM     19  C   UNL     1      -1.067   2.936   5.282  0.00  0.00    +0.044 C 
ENDBRANCH   1  16
BRANCH   4  20
ATOM     20  C   UNL     1      -4.443   2.298  -0.825  0.00  0.00    +0.070 A 
ATOM     21  C   UNL     1      -4.826   3.606  -1.091  0.00  0.00    +0.027 A 
ATOM     22  C   UNL     1      -5.587   3.887  -2.209  0.00  0.00    +0.022 A 
ATOM     23  C   UNL     1      -5.978   2.865  -3.057  0.00  0.00    +0.043 A 
ATOM     24  C   UNL     1      -5.602   1.560  -2.791  0.00  0.00    +0.054 A 
ATOM     25  C   UNL     1      -4.836   1.275  -1.677  0.00  0.00    +0.149 A 
ATOM     26 CL   UNL     1      -6.941   3.221  -4.457  0.00  0.00    -0.083 Cl
BRANCH  25  27
ATOM     27  N   UNL     1      -4.434  -0.121  -1.393  0.00  0.00    +0.058 N 
ATOM     28  O   UNL     1      -4.838  -1.027  -2.100  0.00  0.00    -0.126 OA
ATOM     29  O   UNL     1      -3.699  -0.364  -0.453  0.00  0.00    -0.126 OA
ENDBRANCH  25  27
ENDBRANCH   4  20
BRANCH   3  30
ATOM     30  N   UNL     1      -5.562   1.125   1.444  0.00  0.00    -0.345 N 
ATOM     31  H   UNL     1      -6.034   1.050   0.599  0.00  0.00    +0.144 HD
ATOM     32  H   UNL     1      -5.995   0.849   2.267  0.00  0.00    +0.144 HD
ENDBRANCH   3  30
BRANCH   2  33
ATOM     33  C   UNL     1      -4.269   1.305   3.863  0.00  0.00    +0.099 C 
ATOM     34  N   UNL     1      -4.783   0.972   4.820  0.00  0.00    -0.191 NA
ENDBRANCH   2  33
TORSDOF 5
