REMARK  Name = ZINC54617794
REMARK  9 active torsions:
REMARK  status: ('A' for Active; 'I' for Inactive)
REMARK    1  A    between atoms: C_1  and  C_2
REMARK    2  A    between atoms: C_2  and  S_3
REMARK    3  A    between atoms: S_3  and  C_4
REMARK    4  A    between atoms: C_9  and  C_26
REMARK    5  A    between atoms: C_11  and  C_15
REMARK    6  A    between atoms: C_12  and  C_14
REMARK    7  A    between atoms: N_17  and  C_18
REMARK    8  A    between atoms: C_22  and  C_25
REMARK    9  A    between atoms: C_23  and  C_24
REMARK                            x       y       z     vdW  Elec       q    Type
REMARK                         _______ _______ _______ _____ _____    ______ ____
ROOT
ATOM      1  C   UNL     1      -0.319  -2.481  -2.881  0.00  0.00    +0.210 A 
ATOM      2  N   UNL     1      -0.280  -2.967  -1.631  0.00  0.00    -0.187 NA
ATOM      3  C   UNL     1       0.106  -4.213  -1.659  0.00  0.00    +0.219 A 
ATOM      4  N   UNL     1       0.321  -4.559  -2.953  0.00  0.00    -0.220 N 
ATOM      5  N   UNL     1       0.039  -3.429  -3.720  0.00  0.00    -0.141 NA
ATOM      6  C   UNL     1       0.755  -5.888  -3.373  0.00  0.00    +0.179 C 
ATOM      7  C   UNL     1       1.199  -6.675  -2.169  0.00  0.00    +0.060 C 
ATOM      8  C   UNL     1       0.962  -6.281  -0.909  0.00  0.00    +0.018 C 
ATOM      9  N   UNL     1       0.299  -5.113  -0.620  0.00  0.00    -0.287 N 
ATOM     10  C   UNL     1       1.438  -7.148   0.228  0.00  0.00    +0.061 C 
ATOM     11  H   UNL     1      -0.023  -4.925   0.276  0.00  0.00    +0.155 HD
ENDROOT
BRANCH   6  12
ATOM     12  C   UNL     1      -0.391  -6.602  -4.044  0.00  0.00    +0.007 A 
ATOM     13  C   UNL     1      -1.559  -6.945  -3.479  0.00  0.00    +0.089 A 
ATOM     14  N   UNL     1      -2.353  -7.578  -4.396  0.00  0.00    -0.360 N 
ATOM     15  H   UNL     1      -3.244  -7.919  -4.221  0.00  0.00    +0.165 HD
ATOM     16  C   UNL     1      -1.698  -7.661  -5.604  0.00  0.00    +0.047 A 
ATOM     17  C   UNL     1      -0.443  -7.047  -5.439  0.00  0.00    +0.005 A 
ATOM     18  C   UNL     1       0.446  -6.977  -6.513  0.00  0.00    +0.010 A 
ATOM     19  C   UNL     1       0.089  -7.503  -7.723  0.00  0.00    +0.001 A 
ATOM     20  C   UNL     1      -1.149  -8.105  -7.893  0.00  0.00    +0.002 A 
ATOM     21  C   UNL     1      -2.038  -8.194  -6.843  0.00  0.00    +0.026 A 
ENDBRANCH   6  12
BRANCH   7  22
ATOM     22  C   UNL     1       1.900  -7.886  -2.375  0.00  0.00    +0.248 C 
ATOM     23  O   UNL     1       3.078  -7.864  -2.681  0.00  0.00    -0.270 OA
ATOM     24  N   UNL     1       1.263  -9.066  -2.234  0.00  0.00    -0.281 N 
ATOM     25  H   UNL     1       0.347  -9.087  -1.916  0.00  0.00    +0.155 HD
BRANCH  24  26
ATOM     26  C   UNL     1       1.923 -10.258  -2.545  0.00  0.00    +0.037 A 
ATOM     27  C   UNL     1       3.241 -10.448  -2.149  0.00  0.00    +0.023 A 
ATOM     28  C   UNL     1       3.890 -11.627  -2.458  0.00  0.00    +0.002 A 
ATOM     29  C   UNL     1       3.229 -12.619  -3.160  0.00  0.00    +0.004 A 
ATOM     30  C   UNL     1       1.917 -12.433  -3.556  0.00  0.00    -0.046 A 
ATOM     31  C   UNL     1       1.261 -11.258  -3.245  0.00  0.00    -0.026 A 
ATOM     32  C   UNL     1      -0.171 -11.059  -3.671  0.00  0.00    +0.046 C 
ATOM     33  C   UNL     1       1.202 -13.516  -4.321  0.00  0.00    +0.044 C 
ENDBRANCH  24  26
ENDBRANCH   7  22
BRANCH   1  34
ATOM     34  S   UNL     1      -0.783  -0.841  -3.327  0.00  0.00    -0.085 S 
BRANCH  34  36
ATOM     35  C   UNL     1      -1.578   1.406  -1.986  0.00  0.00    +0.016 C 
ATOM     36  C   UNL     1      -1.156  -0.044  -1.741  0.00  0.00    +0.074 C 
ENDBRANCH  34  36
ENDBRANCH   1  34
TORSDOF 5
