REMARK  Name = ZINC63374090
REMARK  11 active torsions:
REMARK  status: ('A' for Active; 'I' for Inactive)
REMARK    1  A    between atoms: C_1  and  C_2
REMARK    2  A    between atoms: C_2  and  C_3
REMARK    3  A    between atoms: C_3  and  O_4
REMARK    4  A    between atoms: O_4  and  C_5
REMARK    5  A    between atoms: C_9  and  C_14
REMARK    6  A    between atoms: C_10  and  O_11
REMARK    7  A    between atoms: O_11  and  C_12
REMARK    8  A    between atoms: C_12  and  C_13
REMARK    9  A    between atoms: N_20  and  C_35
REMARK   10  A    between atoms: C_23  and  C_34
REMARK   11  A    between atoms: C_40  and  C_41
REMARK                            x       y       z     vdW  Elec       q    Type
REMARK                         _______ _______ _______ _____ _____    ______ ____
ROOT
ATOM      1  C   UNL     1      -3.965  -6.133   0.019  0.00  0.00    +0.069 C 
ATOM      2  C   UNL     1      -4.747  -6.627  -1.215  0.00  0.00    +0.123 C 
ATOM      3  N   UNL     1      -5.938  -7.337  -0.739  0.00  0.00    -0.268 N 
ATOM      4  C   UNL     1      -7.222  -7.083  -1.028  0.00  0.00    +0.317 C 
ATOM      5  O   UNL     1      -7.582  -6.290  -1.875  0.00  0.00    -0.252 OA
ATOM      6  N   UNL     1      -8.062  -7.805  -0.274  0.00  0.00    -0.192 N 
ATOM      7  C   UNL     1      -7.398  -8.663   0.529  0.00  0.00    +0.253 C 
ATOM      8  O   UNL     1      -7.876  -9.422   1.345  0.00  0.00    -0.272 OA
ATOM      9  C   UNL     1      -5.934  -8.480   0.197  0.00  0.00    +0.137 C 
ATOM     10  C   UNL     1      -5.145  -8.064   1.437  0.00  0.00    +0.139 C 
ATOM     11  C   UNL     1      -4.713  -6.618   1.237  0.00  0.00    -0.027 C 
ATOM     12  C   UNL     1      -5.143  -5.952   2.306  0.00  0.00    -0.000 A 
ATOM     13  C   UNL     1      -4.958  -4.553   2.724  0.00  0.00    +0.010 A 
ATOM     14  C   UNL     1      -5.561  -4.192   3.888  0.00  0.00    +0.001 A 
ATOM     15  C   UNL     1      -6.320  -5.072   4.666  0.00  0.00    +0.002 A 
ATOM     16  C   UNL     1      -6.535  -6.376   4.361  0.00  0.00    +0.026 A 
ATOM     17  C   UNL     1      -5.945  -6.875   3.164  0.00  0.00    +0.043 A 
ATOM     18  N   UNL     1      -5.968  -8.084   2.648  0.00  0.00    -0.375 N 
ATOM     19  C   UNL     1      -5.351  -9.735  -0.455  0.00  0.00    +0.044 C 
ATOM     20  H   UNL     1      -6.441  -8.854   3.000  0.00  0.00    +0.160 HD
ENDROOT
BRANCH   6  21
ATOM     21  C   UNL     1      -9.458  -7.684  -0.314  0.00  0.00    +0.048 A 
ATOM     22  C   UNL     1     -10.200  -8.468  -1.188  0.00  0.00    +0.024 A 
ATOM     23  C   UNL     1     -11.575  -8.347  -1.225  0.00  0.00    +0.002 A 
ATOM     24  C   UNL     1     -12.213  -7.445  -0.393  0.00  0.00    +0.000 A 
ATOM     25  C   UNL     1     -11.478  -6.663   0.478  0.00  0.00    +0.005 A 
ATOM     26  C   UNL     1     -10.103  -6.784   0.524  0.00  0.00    -0.029 A 
ATOM     27  C   UNL     1      -9.302  -5.936   1.478  0.00  0.00    +0.045 C 
ENDBRANCH   6  21
BRANCH   1  32
ATOM     28  C   UNL     1      -2.617  -2.596   0.013  0.00  0.00    +0.162 A 
ATOM     29  C   UNL     1      -3.790  -1.859   0.022  0.00  0.00    +0.049 A 
ATOM     30  C   UNL     1      -5.013  -2.505   0.030  0.00  0.00    +0.004 A 
ATOM     31  C   UNL     1      -5.068  -3.886   0.029  0.00  0.00    +0.008 A 
ATOM     32  C   UNL     1      -3.901  -4.628   0.020  0.00  0.00    +0.007 A 
ATOM     33  C   UNL     1      -2.673  -3.987   0.006  0.00  0.00    +0.166 A 
BRANCH  28  34
ATOM     34  O   UNL     1      -1.414  -1.962   0.005  0.00  0.00    -0.488 OA
BRANCH  34  35
ATOM     35  C   UNL     1      -1.433  -0.534   0.013  0.00  0.00    +0.229 C 
BRANCH  35  37
ATOM     36  C   UNL     1      -0.019   1.526   0.010  0.00  0.00    +0.007 C 
ATOM     37  C   UNL     1       0.002  -0.004   0.002  0.00  0.00    +0.038 C 
ENDBRANCH  35  37
ENDBRANCH  34  35
ENDBRANCH  28  34
BRANCH  33  38
ATOM     38  O   UNL     1      -1.524  -4.715  -0.009  0.00  0.00    -0.488 OA
BRANCH  38  39
ATOM     39  C   UNL     1      -0.964  -5.069   1.258  0.00  0.00    +0.226 C 
ATOM     40  C   UNL     1       0.315  -5.880   1.040  0.00  0.00    +0.048 C 
ENDBRANCH  38  39
ENDBRANCH  33  38
ENDBRANCH   1  32
TORSDOF 7
