REMARK  Name = ZINC20387936
REMARK  7 active torsions:
REMARK  status: ('A' for Active; 'I' for Inactive)
REMARK    1  A    between atoms: C_1  and  C_2
REMARK    2  A    between atoms: C_5  and  N_8
REMARK    3  A    between atoms: N_8  and  C_9
REMARK    4  A    between atoms: C_9  and  C_10
REMARK    5  A    between atoms: C_23  and  C_26
REMARK    6  A    between atoms: N_28  and  C_29
REMARK    7  A    between atoms: C_35  and  C_37
REMARK                            x       y       z     vdW  Elec       q    Type
REMARK                         _______ _______ _______ _____ _____    ______ ____
ROOT
ATOM      1  C   UNL     1       1.082   2.203   0.004  0.00  0.00    +0.043 A 
ATOM      2  C   UNL     1       0.659   3.484   0.015  0.00  0.00    +0.025 A 
ATOM      3  C   UNL     1      -0.750   3.465   0.028  0.00  0.00    +0.020 A 
ATOM      4  C   UNL     1      -1.137   2.173   0.019  0.00  0.00    +0.093 A 
ATOM      5  N   UNL     1      -0.017   1.392   0.010  0.00  0.00    -0.297 N 
ATOM      6  C   UNL     1       0.002  -0.004   0.002  0.00  0.00    +0.202 A 
ATOM      7  N   UNL     1       1.026  -0.840  -0.018  0.00  0.00    -0.121 NA
ATOM      8  N   UNL     1       0.869  -2.091  -0.018  0.00  0.00    -0.124 NA
ATOM      9  C   UNL     1      -0.335  -2.646  -0.010  0.00  0.00    +0.186 A 
ATOM     10  S   UNL     1      -1.354  -1.173   0.009  0.00  0.00    -0.013 S 
ATOM     11  N   UNL     1      -0.701  -3.985  -0.013  0.00  0.00    -0.308 N 
ATOM     12  C   UNL     1      -1.571  -4.295   1.128  0.00  0.00    +0.108 C 
ATOM     13  C   UNL     1      -2.071  -5.737   1.013  0.00  0.00    +0.032 C 
ATOM     14  C   UNL     1      -0.872  -6.688   0.989  0.00  0.00    +0.078 C 
ATOM     15  C   UNL     1       0.044  -6.312  -0.180  0.00  0.00    +0.032 C 
ATOM     16  C   UNL     1       0.482  -4.854  -0.030  0.00  0.00    +0.108 C 
ENDROOT
BRANCH  14  17
ATOM     17  C   UNL     1      -1.355  -8.104   0.815  0.00  0.00    +0.216 C 
ATOM     18  O   UNL     1      -1.003  -8.752  -0.148  0.00  0.00    -0.276 OA
ATOM     19  N   UNL     1      -2.179  -8.652   1.730  0.00  0.00    -0.312 N 
ATOM     20  H   UNL     1      -2.498  -8.066   2.604  0.00  0.00    +0.149 HD
BRANCH  19  21
ATOM     21  C   UNL     1      -2.648 -10.030   1.561  0.00  0.00    +0.076 C 
ATOM     22  C   UNL     1      -1.610 -10.997   2.133  0.00  0.00    +0.022 C 
ATOM     23  C   UNL     1      -2.100 -12.435   1.956  0.00  0.00    +0.002 C 
ATOM     24  C   UNL     1      -3.427 -12.616   2.697  0.00  0.00    +0.000 C 
ATOM     25  C   UNL     1      -4.466 -11.649   2.126  0.00  0.00    +0.005 C 
ATOM     26  C   UNL     1      -3.975 -10.210   2.302  0.00  0.00    +0.006 C 
ATOM     27  C   UNL     1      -5.014  -9.243   1.731  0.00  0.00    +0.009 C 
ENDBRANCH  19  21
ENDBRANCH  14  17
BRANCH   1  28
ATOM     28  C   UNL     1       2.518   1.747  -0.013  0.00  0.00    +0.155 C 
BRANCH  28  29
ATOM     29  N   UNL     1       2.960   1.476   1.358  0.00  0.00    -0.338 N 
ATOM     30  H   UNL     1       2.265   1.619   2.198  0.00  0.00    +0.146 HD
BRANCH  29  35
ATOM     31  C   UNL     1       8.255  -0.306   2.330  0.00  0.00    +0.044 C 
ATOM     32  C   UNL     1       6.848   0.168   2.071  0.00  0.00    -0.050 A 
ATOM     33  C   UNL     1       5.975   0.347   3.129  0.00  0.00    +0.005 A 
ATOM     34  C   UNL     1       4.685   0.781   2.896  0.00  0.00    +0.023 A 
ATOM     35  C   UNL     1       4.264   1.038   1.597  0.00  0.00    +0.027 A 
ATOM     36  C   UNL     1       5.142   0.851   0.537  0.00  0.00    +0.023 A 
ATOM     37  C   UNL     1       6.432   0.422   0.777  0.00  0.00    +0.005 A 
ENDBRANCH  29  35
ENDBRANCH  28  29
ENDBRANCH   1  28
TORSDOF 5
