REMARK  Name = ZINC00718573
REMARK  8 active torsions:
REMARK  status: ('A' for Active; 'I' for Inactive)
REMARK    1  A    between atoms: C_1  and  C_2
REMARK    2  A    between atoms: N_5  and  C_7
REMARK    3  A    between atoms: C_14  and  N_35
REMARK    4  A    between atoms: C_15  and  C_33
REMARK    5  A    between atoms: C_16  and  C_18
REMARK    6  A    between atoms: C_21  and  O_24
REMARK    7  A    between atoms: O_24  and  C_25
REMARK    8  A    between atoms: C_25  and  C_26
REMARK                            x       y       z     vdW  Elec       q    Type
REMARK                         _______ _______ _______ _____ _____    ______ ____
ROOT
ATOM      1  C   UNL     1       2.903   3.051  -3.071  0.00  0.00    +0.068 C 
ATOM      2  C   UNL     1       2.707   4.453  -2.554  0.00  0.00    +0.068 A 
ATOM      3  C   UNL     1       2.515   4.811  -1.226  0.00  0.00    +0.050 A 
ATOM      4  C   UNL     1       2.379   6.170  -1.168  0.00  0.00    +0.230 A 
ATOM      5  N   UNL     1       2.483   6.642  -2.430  0.00  0.00    -0.200 N 
ATOM      6  N   UNL     1       2.689   5.545  -3.281  0.00  0.00    -0.168 NA
ATOM      7  O   UNL     1       2.179   6.838  -0.005  0.00  0.00    -0.423 OA
ATOM      8  C   UNL     1       2.389   6.165   1.145  0.00  0.00    +0.200 C 
ATOM      9  C   UNL     1       2.525   4.822   1.216  0.00  0.00    +0.098 C 
ATOM     10  C   UNL     1       2.452   3.935  -0.001  0.00  0.00    +0.101 C 
ENDROOT
BRANCH   5  11
ATOM     11  C   UNL     1       2.399   7.986  -2.819  0.00  0.00    +0.069 A 
ATOM     12  C   UNL     1       1.535   8.849  -2.158  0.00  0.00    +0.028 A 
ATOM     13  C   UNL     1       1.459  10.174  -2.540  0.00  0.00    +0.002 A 
ATOM     14  C   UNL     1       2.234  10.639  -3.586  0.00  0.00    +0.000 A 
ATOM     15  C   UNL     1       3.091   9.781  -4.250  0.00  0.00    +0.002 A 
ATOM     16  C   UNL     1       3.175   8.456  -3.869  0.00  0.00    +0.028 A 
ENDBRANCH   5  11
BRANCH  10  17
ATOM     17  C   UNL     1       1.156   3.166   0.007  0.00  0.00    -0.034 A 
ATOM     18  C   UNL     1       1.174   1.783   0.000  0.00  0.00    +0.008 A 
ATOM     19  C   UNL     1      -0.013   1.076   0.008  0.00  0.00    +0.046 A 
ATOM     20  C   UNL     1      -1.223   1.754   0.017  0.00  0.00    +0.121 A 
ATOM     21  C   UNL     1      -1.238   3.141   0.029  0.00  0.00    +0.046 A 
ATOM     22  C   UNL     1      -0.049   3.844   0.022  0.00  0.00    +0.008 A 
BRANCH  20  23
ATOM     23  O   UNL     1      -2.392   1.060   0.020  0.00  0.00    -0.487 OA
BRANCH  23  24
ATOM     24  C   UNL     1      -3.599   1.824   0.029  0.00  0.00    +0.267 C 
BRANCH  24  25
ATOM     25  C   UNL     1      -4.783   0.891   0.030  0.00  0.00    +0.025 A 
ATOM     26  C   UNL     1      -4.586  -0.477   0.022  0.00  0.00    +0.010 A 
ATOM     27  C   UNL     1      -5.672  -1.332   0.024  0.00  0.00    +0.001 A 
ATOM     28  C   UNL     1      -6.956  -0.821   0.034  0.00  0.00    +0.003 A 
ATOM     29  C   UNL     1      -7.156   0.546   0.042  0.00  0.00    +0.039 A 
ATOM     30  C   UNL     1      -6.069   1.404   0.045  0.00  0.00    +0.130 A 
ATOM     31  F   UNL     1      -6.263   2.741   0.059  0.00  0.00    -0.205 F 
ENDBRANCH  24  25
ENDBRANCH  23  24
ENDBRANCH  20  23
ENDBRANCH  10  17
BRANCH   8  32
ATOM     32  N   UNL     1       2.467   6.886   2.310  0.00  0.00    -0.328 N 
ATOM     33  H   UNL     1       2.372   7.851   2.291  0.00  0.00    +0.145 HD
ATOM     34  H   UNL     1       2.617   6.430   3.153  0.00  0.00    +0.145 HD
ENDBRANCH   8  32
BRANCH   9  35
ATOM     35  C   UNL     1       2.748   4.220   2.496  0.00  0.00    +0.101 C 
ATOM     36  N   UNL     1       2.926   3.742   3.511  0.00  0.00    -0.191 NA
ENDBRANCH   9  35
TORSDOF 7
