REMARK  Name = ZINC63478300
REMARK  9 active torsions:
REMARK  status: ('A' for Active; 'I' for Inactive)
REMARK    1  A    between atoms: C_1  and  O_2
REMARK    2  A    between atoms: O_2  and  C_3
REMARK    3  A    between atoms: C_7  and  C_12
REMARK    4  A    between atoms: C_12  and  C_13
REMARK    5  A    between atoms: C_13  and  N_14
REMARK    6  A    between atoms: C_15  and  C_17
REMARK    7  A    between atoms: C_17  and  S_18
REMARK    8  A    between atoms: S_18  and  C_19
REMARK    9  A    between atoms: N_24  and  C_25
REMARK                            x       y       z     vdW  Elec       q    Type
REMARK                         _______ _______ _______ _____ _____    ______ ____
ROOT
ATOM      1  N   UNL     1      -8.174  -1.964  -1.377  0.00  0.00    -0.314 N 
ATOM      2  C   UNL     1      -8.860  -1.889  -2.535  0.00  0.00    +0.223 C 
ATOM      3  O   UNL     1      -8.305  -2.130  -3.586  0.00  0.00    -0.275 OA
ATOM      4  H   UNL     1      -8.618  -1.771  -0.537  0.00  0.00    +0.149 HD
ENDROOT
BRANCH   1   5
ATOM      5  C   UNL     1      -6.757  -2.337  -1.388  0.00  0.00    +0.108 C 
BRANCH   5   6
ATOM      6  C   UNL     1      -6.221  -2.347   0.045  0.00  0.00    +0.052 C 
BRANCH   6  11
ATOM      7  C   UNL     1      -1.198  -0.636   0.010  0.00  0.00    +0.122 A 
ATOM      8  C   UNL     1      -2.372   0.141   0.020  0.00  0.00    +0.046 A 
ATOM      9  C   UNL     1      -3.597  -0.428   0.028  0.00  0.00    +0.013 A 
ATOM     10  C   UNL     1      -3.704  -1.893   0.026  0.00  0.00    -0.001 A 
ATOM     11  C   UNL     1      -4.764  -2.731   0.033  0.00  0.00    -0.040 C 
ATOM     12  C   UNL     1      -4.193  -4.131   0.027  0.00  0.00    +0.144 C 
ATOM     13  N   UNL     1      -2.735  -3.972   0.016  0.00  0.00    -0.380 N 
ATOM     14  C   UNL     1      -2.455  -2.689   0.016  0.00  0.00    +0.046 A 
ATOM     15  C   UNL     1      -1.220  -1.993   0.003  0.00  0.00    +0.071 A 
ATOM     16  H   UNL     1      -2.086  -4.693   0.010  0.00  0.00    +0.160 HD
BRANCH   7  18
ATOM     17  C   UNL     1      -0.017   1.425   0.010  0.00  0.00    +0.277 C 
ATOM     18  O   UNL     1       0.002  -0.004   0.002  0.00  0.00    -0.495 OA
ENDBRANCH   7  18
ENDBRANCH   6  11
ENDBRANCH   5   6
ENDBRANCH   1   5
BRANCH   2  19
ATOM     19  C   UNL     1     -10.318  -1.505  -2.523  0.00  0.00    +0.168 C 
BRANCH  19  20
ATOM     20  S   UNL     1     -10.953  -1.493  -4.222  0.00  0.00    -0.107 S 
BRANCH  20  21
ATOM     21  C   UNL     1     -12.694  -1.019  -4.036  0.00  0.00    +0.260 C 
ATOM     22  N   UNL     1     -12.812   0.266  -3.321  0.00  0.00    -0.218 N 
ATOM     23  N   UNL     1     -13.527  -0.011  -2.150  0.00  0.00    -0.063 NA
ATOM     24  N   UNL     1     -13.839  -1.195  -2.055  0.00  0.00    -0.056 NA
ATOM     25  N   UNL     1     -13.400  -1.961  -3.147  0.00  0.00    -0.173 N 
ATOM     26  H   UNL     1     -12.465   1.127  -3.604  0.00  0.00    +0.173 HD
BRANCH  25  27
ATOM     27  C   UNL     1     -13.588  -3.325  -3.350  0.00  0.00    +0.064 A 
ATOM     28  C   UNL     1     -12.507  -4.152  -3.571  0.00  0.00    +0.026 A 
ATOM     29  C   UNL     1     -12.685  -5.516  -3.775  0.00  0.00    +0.002 A 
ATOM     30  C   UNL     1     -13.928  -6.073  -3.763  0.00  0.00    +0.008 A 
ATOM     31  C   UNL     1     -15.057  -5.265  -3.541  0.00  0.00    -0.016 A 
ATOM     32  C   UNL     1     -14.889  -3.875  -3.327  0.00  0.00    +0.005 A 
ATOM     33  C   UNL     1     -16.016  -3.071  -3.101  0.00  0.00    +0.010 A 
ATOM     34  C   UNL     1     -17.255  -3.636  -3.086  0.00  0.00    +0.001 A 
ATOM     35  C   UNL     1     -17.421  -5.004  -3.291  0.00  0.00    +0.001 A 
ATOM     36  C   UNL     1     -16.352  -5.813  -3.524  0.00  0.00    +0.008 A 
ENDBRANCH  25  27
ENDBRANCH  20  21
ENDBRANCH  19  20
ENDBRANCH   2  19
TORSDOF 8
