REMARK  Name = ZINC57756502
REMARK  8 active torsions:
REMARK  status: ('A' for Active; 'I' for Inactive)
REMARK    1  A    between atoms: C_1  and  C_2
REMARK    2  A    between atoms: C_2  and  N_3
REMARK    3  A    between atoms: N_3  and  C_4
REMARK    4  A    between atoms: N_3  and  C_6
REMARK    5  A    between atoms: C_4  and  C_5
REMARK    6  A    between atoms: C_9  and  N_13
REMARK    7  A    between atoms: C_10  and  C_12
REMARK    8  A    between atoms: N_16  and  C_17
REMARK                            x       y       z     vdW  Elec       q    Type
REMARK                         _______ _______ _______ _____ _____    ______ ____
ROOT
ATOM      1  N   UNL     1      -1.093  -6.354   1.248  0.00  0.00    -0.269 N 
ATOM      2  C   UNL     1      -0.885  -7.247   0.260  0.00  0.00    +0.308 C 
ATOM      3  O   UNL     1      -0.448  -6.876  -0.813  0.00  0.00    -0.252 OA
ATOM      4  N   UNL     1      -1.162  -8.551   0.460  0.00  0.00    -0.269 N 
ATOM      5  H   UNL     1      -1.382  -6.657   2.122  0.00  0.00    +0.156 HD
ATOM      6  H   UNL     1      -1.574  -8.837   1.290  0.00  0.00    +0.156 HD
ENDROOT
BRANCH   4   7
ATOM      7  C   UNL     1      -0.854  -9.493  -0.531  0.00  0.00    +0.038 A 
ATOM      8  C   UNL     1      -0.421 -10.762  -0.172  0.00  0.00    +0.027 A 
ATOM      9  C   UNL     1      -0.117 -11.691  -1.148  0.00  0.00    +0.051 A 
ATOM     10  C   UNL     1      -0.243 -11.359  -2.489  0.00  0.00    +0.162 A 
ATOM     11  C   UNL     1      -0.678 -10.090  -2.851  0.00  0.00    +0.164 A 
ATOM     12  C   UNL     1      -0.987  -9.159  -1.871  0.00  0.00    +0.072 A 
ATOM     13  O   UNL     1      -0.815  -9.748  -4.162  0.00  0.00    -0.485 OA
ATOM     14  C   UNL     1      -0.147 -10.580  -5.117  0.00  0.00    +0.270 C 
ATOM     15  C   UNL     1      -0.429 -12.045  -4.759  0.00  0.00    +0.270 C 
ATOM     16  O   UNL     1       0.066 -12.287  -3.437  0.00  0.00    -0.485 OA
ENDBRANCH   4   7
BRANCH   1  20
ATOM     17  C   UNL     1      -0.491  -2.292   0.545  0.00  0.00    +0.014 A 
ATOM     18  C   UNL     1       0.223  -3.230  -0.178  0.00  0.00    +0.023 A 
ATOM     19  C   UNL     1       0.026  -4.578   0.053  0.00  0.00    +0.025 A 
ATOM     20  C   UNL     1      -0.890  -4.990   1.012  0.00  0.00    +0.038 A 
ATOM     21  C   UNL     1      -1.605  -4.045   1.736  0.00  0.00    -0.028 A 
ATOM     22  C   UNL     1      -1.400  -2.699   1.504  0.00  0.00    +0.026 A 
ATOM     23  C   UNL     1      -2.601  -4.488   2.777  0.00  0.00    +0.046 C 
BRANCH  17  24
ATOM     24  N   UNL     1      -0.289  -0.929   0.309  0.00  0.00    -0.394 NA
ATOM     25  H   UNL     1      -0.883  -0.390   0.921  0.00  0.00    +0.126 HD
BRANCH  24  27
ATOM     26  C   UNL     1       1.420  -0.772   2.056  0.00  0.00    +0.022 C 
ATOM     27  C   UNL     1       1.117  -0.590   0.567  0.00  0.00    +0.081 C 
ENDBRANCH  24  27
BRANCH  24  28
ATOM     28  C   UNL     1      -0.619  -0.620  -1.089  0.00  0.00    +0.081 C 
ATOM     29  C   UNL     1      -2.111  -0.857  -1.326  0.00  0.00    +0.022 C 
ENDBRANCH  24  28
ENDBRANCH  17  24
ENDBRANCH   1  20
TORSDOF 5
