REMARK  Name = ZINC09123942
REMARK  14 active torsions:
REMARK  status: ('A' for Active; 'I' for Inactive)
REMARK    1  A    between atoms: C_1  and  C_2
REMARK    2  A    between atoms: C_2  and  C_3
REMARK    3  A    between atoms: C_6  and  C_9
REMARK    4  A    between atoms: C_12  and  C_32
REMARK    5  A    between atoms: N_19  and  C_20
REMARK    6  A    between atoms: C_20  and  C_21
REMARK    7  A    between atoms: C_21  and  C_22
REMARK    8  A    between atoms: C_25  and  O_30
REMARK    9  A    between atoms: C_26  and  O_28
REMARK   10  A    between atoms: O_28  and  C_29
REMARK   11  A    between atoms: O_30  and  C_31
REMARK   12  A    between atoms: C_34  and  C_40
REMARK   13  A    between atoms: C_36  and  C_39
REMARK   14  A    between atoms: C_37  and  O_38
REMARK                            x       y       z     vdW  Elec       q    Type
REMARK                         _______ _______ _______ _____ _____    ______ ____
ROOT
ATOM      1  C   UNL     1       2.707  -1.868  -4.752  0.00  0.00    +0.141 C 
ATOM      2  C   UNL     1       2.964  -3.347  -4.653  0.00  0.00    +0.035 A 
ATOM      3  C   UNL     1       2.446  -4.596  -4.531  0.00  0.00    +0.075 A 
ATOM      4  N   UNL     1       3.504  -5.460  -4.519  0.00  0.00    -0.276 N 
ATOM      5  H   UNL     1       3.434  -6.424  -4.442  0.00  0.00    +0.189 HD
ATOM      6  N   UNL     1       4.605  -4.805  -4.626  0.00  0.00    -0.168 NA
ATOM      7  C   UNL     1       4.367  -3.512  -4.712  0.00  0.00    +0.153 A 
ATOM      8  C   UNL     1       4.974  -2.175  -4.846  0.00  0.00    +0.268 C 
ATOM      9  O   UNL     1       6.168  -1.961  -4.924  0.00  0.00    -0.268 OA
ATOM     10  N   UNL     1       4.021  -1.226  -4.869  0.00  0.00    -0.285 N 
ENDROOT
BRANCH   3  11
ATOM     11  C   UNL     1       1.013  -4.953  -4.430  0.00  0.00    +0.042 A 
ATOM     12  C   UNL     1       0.514  -5.526  -3.261  0.00  0.00    +0.017 A 
ATOM     13  C   UNL     1      -0.822  -5.856  -3.172  0.00  0.00    -0.049 A 
ATOM     14  C   UNL     1      -1.671  -5.620  -4.240  0.00  0.00    +0.010 A 
ATOM     15  C   UNL     1      -1.187  -5.053  -5.404  0.00  0.00    -0.008 A 
ATOM     16  C   UNL     1       0.151  -4.711  -5.505  0.00  0.00    +0.129 A 
ATOM     17  C   UNL     1      -2.119  -4.801  -6.561  0.00  0.00    +0.047 C 
ATOM     18  C   UNL     1      -1.360  -6.476  -1.908  0.00  0.00    +0.044 C 
BRANCH  16  19
ATOM     19  O   UNL     1       0.626  -4.148  -6.647  0.00  0.00    -0.506 OA
ATOM     20  H   UNL     1       0.941  -4.788  -7.300  0.00  0.00    +0.292 HD
ENDBRANCH  16  19
ENDBRANCH   3  11
BRANCH   1  24
ATOM     21  C   UNL     1       0.707  -0.490  -1.238  0.00  0.00    -0.048 A 
ATOM     22  C   UNL     1      -0.011  -0.719  -2.397  0.00  0.00    +0.004 A 
ATOM     23  C   UNL     1       0.636  -1.164  -3.534  0.00  0.00    +0.006 A 
ATOM     24  C   UNL     1       2.002  -1.381  -3.513  0.00  0.00    -0.022 A 
ATOM     25  C   UNL     1       2.720  -1.152  -2.354  0.00  0.00    +0.006 A 
ATOM     26  C   UNL     1       2.073  -0.702  -1.218  0.00  0.00    +0.004 A 
BRANCH  21  28
ATOM     27  C   UNL     1      -0.019   1.526   0.010  0.00  0.00    +0.009 C 
ATOM     28  C   UNL     1       0.002  -0.004   0.002  0.00  0.00    +0.032 C 
ENDBRANCH  21  28
ENDBRANCH   1  24
BRANCH  10  29
ATOM     29  C   UNL     1       4.256   0.215  -4.992  0.00  0.00    +0.114 C 
BRANCH  29  30
ATOM     30  C   UNL     1       4.412   0.827  -3.599  0.00  0.00    +0.054 C 
BRANCH  30  31
ATOM     31  C   UNL     1       4.654   2.309  -3.726  0.00  0.00    -0.042 A 
ATOM     32  C   UNL     1       5.946   2.790  -3.835  0.00  0.00    +0.007 A 
ATOM     33  C   UNL     1       6.173   4.149  -3.951  0.00  0.00    +0.049 A 
ATOM     34  C   UNL     1       5.105   5.032  -3.959  0.00  0.00    +0.161 A 
ATOM     35  C   UNL     1       3.805   4.547  -3.850  0.00  0.00    +0.162 A 
ATOM     36  C   UNL     1       3.584   3.184  -3.738  0.00  0.00    +0.053 A 
BRANCH  35  37
ATOM     37  O   UNL     1       2.753   5.410  -3.857  0.00  0.00    -0.491 OA
ATOM     38  C   UNL     1       1.447   4.842  -3.740  0.00  0.00    +0.277 C 
ENDBRANCH  35  37
BRANCH  34  39
ATOM     39  O   UNL     1       5.327   6.369  -4.073  0.00  0.00    -0.491 OA
ATOM     40  C   UNL     1       6.687   6.794  -4.181  0.00  0.00    +0.277 C 
ENDBRANCH  34  39
ENDBRANCH  30  31
ENDBRANCH  29  30
ENDBRANCH  10  29
TORSDOF 9
