REMARK  Name = ZINC20117232
REMARK  14 active torsions:
REMARK  status: ('A' for Active; 'I' for Inactive)
REMARK    1  A    between atoms: C_1  and  N_2
REMARK    2  A    between atoms: C_3  and  C_32
REMARK    3  A    between atoms: C_5  and  C_19
REMARK    4  A    between atoms: C_9  and  O_17
REMARK    5  A    between atoms: C_10  and  O_15
REMARK    6  A    between atoms: O_15  and  C_16
REMARK    7  A    between atoms: O_17  and  C_18
REMARK    8  A    between atoms: N_21  and  C_22
REMARK    9  A    between atoms: C_25  and  O_30
REMARK   10  A    between atoms: C_27  and  O_28
REMARK   11  A    between atoms: O_28  and  C_29
REMARK   12  A    between atoms: O_30  and  C_31
REMARK   13  A    between atoms: C_35  and  S_38
REMARK   14  A    between atoms: S_38  and  C_39
REMARK                            x       y       z     vdW  Elec       q    Type
REMARK                         _______ _______ _______ _____ _____    ______ ____
ROOT
ATOM      1  C   UNL     1      -8.375  -0.426  -0.215  0.00  0.00    +0.133 C 
ATOM      2  N   UNL     1      -6.936  -0.671  -0.339  0.00  0.00    -0.292 N 
ATOM      3  C   UNL     1      -6.089   0.326  -0.991  0.00  0.00    +0.122 C 
ATOM      4  C   UNL     1      -4.764   0.483  -0.249  0.00  0.00    +0.131 C 
ATOM      5  C   UNL     1      -4.132  -0.866  -0.027  0.00  0.00    -0.018 A 
ATOM      6  C   UNL     1      -2.762  -1.003  -0.010  0.00  0.00    +0.054 A 
ATOM      7  C   UNL     1      -2.191  -2.249   0.212  0.00  0.00    +0.162 A 
ATOM      8  C   UNL     1      -3.000  -3.365   0.427  0.00  0.00    +0.162 A 
ATOM      9  C   UNL     1      -4.376  -3.233   0.410  0.00  0.00    +0.062 A 
ATOM     10  C   UNL     1      -4.948  -1.983   0.176  0.00  0.00    +0.045 A 
ATOM     11  C   UNL     1      -6.413  -1.811   0.150  0.00  0.00    +0.247 C 
ATOM     12  O   UNL     1      -7.142  -2.691   0.566  0.00  0.00    -0.270 OA
ENDROOT
BRANCH   3  13
ATOM     13  C   UNL     1      -6.807   1.651  -1.008  0.00  0.00    -0.026 A 
ATOM     14  C   UNL     1      -8.050   1.755  -1.605  0.00  0.00    +0.006 A 
ATOM     15  C   UNL     1      -8.713   2.966  -1.618  0.00  0.00    +0.015 A 
ATOM     16  C   UNL     1      -8.125   4.084  -1.039  0.00  0.00    +0.008 A 
ATOM     17  C   UNL     1      -6.874   3.978  -0.444  0.00  0.00    +0.015 A 
ATOM     18  C   UNL     1      -6.219   2.762  -0.430  0.00  0.00    +0.006 A 
BRANCH  16  19
ATOM     19  S   UNL     1      -8.965   5.633  -1.058  0.00  0.00    -0.129 S 
ATOM     20  C   UNL     1     -10.520   5.279  -1.923  0.00  0.00    +0.090 C 
ENDBRANCH  16  19
ENDBRANCH   3  13
BRANCH   4  21
ATOM     21  C   UNL     1      -5.011   1.144   1.082  0.00  0.00    +0.227 C 
ATOM     22  O   UNL     1      -6.073   0.990   1.648  0.00  0.00    -0.275 OA
ATOM     23  N   UNL     1      -4.053   1.906   1.644  0.00  0.00    -0.282 N 
ATOM     24  H   UNL     1      -3.064   1.986   1.168  0.00  0.00    +0.155 HD
BRANCH  23  25
ATOM     25  C   UNL     1      -4.315   2.598   2.837  0.00  0.00    +0.076 A 
ATOM     26  C   UNL     1      -5.184   2.059   3.774  0.00  0.00    +0.030 A 
ATOM     27  C   UNL     1      -5.443   2.740   4.949  0.00  0.00    +0.047 A 
ATOM     28  C   UNL     1      -4.835   3.963   5.192  0.00  0.00    +0.124 A 
ATOM     29  C   UNL     1      -3.965   4.505   4.258  0.00  0.00    +0.093 A 
ATOM     30  C   UNL     1      -3.699   3.823   3.082  0.00  0.00    +0.145 A 
BRANCH  30  31
ATOM     31  O   UNL     1      -2.843   4.350   2.167  0.00  0.00    -0.493 OA
ATOM     32  C   UNL     1      -2.248   5.610   2.486  0.00  0.00    +0.277 C 
ENDBRANCH  30  31
BRANCH  28  33
ATOM     33  O   UNL     1      -5.091   4.630   6.349  0.00  0.00    -0.495 OA
ATOM     34  C   UNL     1      -5.996   4.013   7.267  0.00  0.00    +0.277 C 
ENDBRANCH  28  33
ENDBRANCH  23  25
ENDBRANCH   4  21
BRANCH   8  35
ATOM     35  O   UNL     1      -2.436  -4.581   0.654  0.00  0.00    -0.491 OA
ATOM     36  C   UNL     1      -3.325  -5.679   0.867  0.00  0.00    +0.277 C 
ENDBRANCH   8  35
BRANCH   7  37
ATOM     37  O   UNL     1      -0.839  -2.382   0.224  0.00  0.00    -0.491 OA
ATOM     38  C   UNL     1      -0.070  -1.200  -0.004  0.00  0.00    +0.277 C 
ENDBRANCH   7  37
TORSDOF 8
