REMARK  Name = ZINC01504245
REMARK  6 active torsions:
REMARK  status: ('A' for Active; 'I' for Inactive)
REMARK    1  A    between atoms: C_1  and  N_2
REMARK    2  A    between atoms: C_6  and  O_23
REMARK    3  A    between atoms: C_10  and  C_11
REMARK    4  A    between atoms: N_13  and  N_14
REMARK    5  A    between atoms: C_15  and  C_16
REMARK    6  A    between atoms: O_23  and  C_24
REMARK                            x       y       z     vdW  Elec       q    Type
REMARK                         _______ _______ _______ _____ _____    ______ ____
ROOT
ATOM      1  C   UNL     1       0.270  -0.340   2.500  0.00  0.00    +0.278 C 
ATOM      2  O   UNL     1       0.196   0.849   2.747  0.00  0.00    -0.267 OA
ATOM      3  N   UNL     1       0.469  -1.225   3.497  0.00  0.00    -0.225 N 
ATOM      4  H   UNL     1       0.601  -2.164   3.293  0.00  0.00    +0.175 HD
ENDROOT
BRANCH   1  14
ATOM      5  C   UNL     1       0.020   1.462   0.006  0.00  0.00    +0.149 C 
ATOM      6  N   UNL     1       0.030  -0.003  -0.001  0.00  0.00    -0.339 N 
ATOM      7  C   UNL     1      -0.064  -0.800  -1.119  0.00  0.00    +0.050 A 
ATOM      8  C   UNL     1      -0.188  -0.520  -2.478  0.00  0.00    +0.030 A 
ATOM      9  C   UNL     1      -0.263  -1.549  -3.389  0.00  0.00    +0.047 A 
ATOM     10  C   UNL     1      -0.216  -2.876  -2.966  0.00  0.00    +0.121 A 
ATOM     11  C   UNL     1      -0.094  -3.176  -1.626  0.00  0.00    +0.055 A 
ATOM     12  C   UNL     1      -0.016  -2.139  -0.686  0.00  0.00    +0.004 A 
ATOM     13  C   UNL     1       0.110  -2.113   0.724  0.00  0.00    +0.041 A 
ATOM     14  C   UNL     1       0.141  -0.812   1.113  0.00  0.00    +0.107 A 
BRANCH  10  15
ATOM     15  O   UNL     1      -0.291  -3.880  -3.879  0.00  0.00    -0.495 OA
ATOM     16  C   UNL     1      -0.417  -3.500  -5.251  0.00  0.00    +0.277 C 
ENDBRANCH  10  15
ENDBRANCH   1  14
BRANCH   3  17
ATOM     17  N   UNL     1       0.486  -0.788   4.828  0.00  0.00    -0.311 N 
ATOM     18  C   UNL     1       0.684  -1.668   5.820  0.00  0.00    +0.110 C 
ATOM     19  H   UNL     1       0.355   0.151   5.032  0.00  0.00    +0.184 HD
BRANCH  18  20
ATOM     20  C   UNL     1       0.807  -1.220   7.138  0.00  0.00    +0.039 A 
ATOM     21  C   UNL     1       1.129  -2.118   8.179  0.00  0.00    +0.013 A 
ATOM     22  C   UNL     1       1.245  -1.662   9.454  0.00  0.00    +0.001 A 
ATOM     23  C   UNL     1       1.052  -0.320   9.768  0.00  0.00    +0.004 A 
ATOM     24  C   UNL     1       0.739   0.597   8.811  0.00  0.00    +0.051 A 
ATOM     25  C   UNL     1       0.610   0.197   7.470  0.00  0.00    +0.187 A 
ATOM     26  O   UNL     1       0.334   1.010   6.599  0.00  0.00    -0.287 OA
ENDBRANCH  18  20
ENDBRANCH   3  17
TORSDOF 4
