REMARK  Name = ZINC15804762
REMARK  10 active torsions:
REMARK  status: ('A' for Active; 'I' for Inactive)
REMARK    1  A    between atoms: C_1  and  C_2
REMARK    2  A    between atoms: C_5  and  C_17
REMARK    3  A    between atoms: N_8  and  C_10
REMARK    4  A    between atoms: C_17  and  O_19
REMARK    5  A    between atoms: O_19  and  C_20
REMARK    6  A    between atoms: C_20  and  C_22
REMARK    7  A    between atoms: C_20  and  C_23
REMARK    8  A    between atoms: N_28  and  C_29
REMARK    9  A    between atoms: C_29  and  C_30
REMARK   10  A    between atoms: C_29  and  C_31
REMARK                            x       y       z     vdW  Elec       q    Type
REMARK                         _______ _______ _______ _____ _____    ______ ____
ROOT
ATOM      1  C   UNL     1       5.089  -5.981   2.649  0.00  0.00    +0.068 C 
ATOM      2  C   UNL     1       5.548  -4.735   1.936  0.00  0.00    +0.069 A 
ATOM      3  C   UNL     1       4.695  -3.683   1.466  0.00  0.00    +0.031 A 
ATOM      4  C   UNL     1       3.331  -3.357   1.436  0.00  0.00    +0.034 A 
ATOM      5  C   UNL     1       2.929  -2.189   0.857  0.00  0.00    +0.099 A 
ATOM      6  S   UNL     1       4.470  -1.476   0.306  0.00  0.00    -0.062 S 
ATOM      7  C   UNL     1       5.562  -2.751   0.878  0.00  0.00    +0.113 A 
ATOM      8  N   UNL     1       6.826  -3.208   0.988  0.00  0.00    -0.225 N 
ATOM      9  N   UNL     1       6.781  -4.442   1.650  0.00  0.00    -0.170 NA
ENDROOT
BRANCH   8  10
ATOM     10  C   UNL     1       7.980  -2.564   0.522  0.00  0.00    +0.067 A 
ATOM     11  C   UNL     1       7.939  -1.829  -0.655  0.00  0.00    +0.030 A 
ATOM     12  C   UNL     1       9.076  -1.192  -1.110  0.00  0.00    +0.040 A 
ATOM     13  C   UNL     1      10.260  -1.292  -0.398  0.00  0.00    +0.124 A 
ATOM     14  C   UNL     1      10.304  -2.029   0.774  0.00  0.00    +0.040 A 
ATOM     15  C   UNL     1       9.168  -2.664   1.235  0.00  0.00    +0.030 A 
ATOM     16  F   UNL     1      11.372  -0.671  -0.847  0.00  0.00    -0.205 F 
ENDBRANCH   8  10
BRANCH   5  17
ATOM     17  C   UNL     1       1.573  -1.656   0.716  0.00  0.00    +0.347 C 
ATOM     18  O   UNL     1       0.625  -2.284   1.150  0.00  0.00    -0.244 OA
BRANCH  17  19
ATOM     19  O   UNL     1       1.373  -0.470   0.106  0.00  0.00    -0.448 OA
BRANCH  19  20
ATOM     20  C   UNL     1       0.002  -0.004   0.002  0.00  0.00    +0.259 C 
ATOM     21  C   UNL     1      -0.613  -0.515  -1.302  0.00  0.00    +0.062 C 
BRANCH  20  22
ATOM     22  C   UNL     1      -0.018   1.503   0.010  0.00  0.00    +0.261 C 
ATOM     23  O   UNL     1       1.023   2.123   0.004  0.00  0.00    -0.271 OA
ATOM     24  N   UNL     1      -1.195   2.161   0.019  0.00  0.00    -0.237 N 
ATOM     25  C   UNL     1      -1.213   3.508   0.027  0.00  0.00    +0.306 C 
ATOM     26  O   UNL     1      -0.169   4.130   0.025  0.00  0.00    -0.252 OA
ATOM     27  N   UNL     1      -2.389   4.166   0.036  0.00  0.00    -0.297 N 
ATOM     28  H   UNL     1      -2.028   1.664   0.021  0.00  0.00    +0.159 HD
ATOM     29  H   UNL     1      -3.223   3.670   0.037  0.00  0.00    +0.151 HD
BRANCH  27  30
ATOM     30  C   UNL     1      -2.409   5.631   0.044  0.00  0.00    +0.068 C 
ATOM     31  C   UNL     1      -2.297   6.151  -1.391  0.00  0.00    +0.027 C 
ATOM     32  C   UNL     1      -3.720   6.120   0.663  0.00  0.00    +0.027 C 
ENDBRANCH  27  30
ENDBRANCH  20  22
ENDBRANCH  19  20
ENDBRANCH  17  19
ENDBRANCH   5  17
TORSDOF 6
