REMARK  Name = ZINC58849521
REMARK  10 active torsions:
REMARK  status: ('A' for Active; 'I' for Inactive)
REMARK    1  A    between atoms: C_1  and  O_2
REMARK    2  A    between atoms: O_2  and  C_3
REMARK    3  A    between atoms: C_8  and  C_9
REMARK    4  A    between atoms: C_20  and  S_25
REMARK    5  A    between atoms: S_25  and  N_28
REMARK    6  A    between atoms: N_28  and  C_29
REMARK    7  A    between atoms: C_32  and  O_37
REMARK    8  A    between atoms: C_33  and  O_35
REMARK    9  A    between atoms: O_35  and  C_36
REMARK   10  A    between atoms: O_37  and  C_38
REMARK                            x       y       z     vdW  Elec       q    Type
REMARK                         _______ _______ _______ _____ _____    ______ ____
ROOT
ATOM      1  C   UNL     1      -4.156  -4.083  -0.852  0.00  0.00    +0.108 C 
ATOM      2  C   UNL     1      -2.873  -3.452  -0.400  0.00  0.00    +0.029 C 
ATOM      3  C   UNL     1      -1.839  -3.347  -1.539  0.00  0.00    +0.033 C 
ATOM      4  C   UNL     1      -0.506  -3.382  -0.821  0.00  0.00    -0.030 C 
ATOM      5  C   UNL     1      -0.641  -3.851   0.392  0.00  0.00    -0.023 C 
ATOM      6  C   UNL     1      -2.079  -4.225   0.650  0.00  0.00    +0.049 C 
ATOM      7  C   UNL     1      -2.205  -5.716   0.507  0.00  0.00    -0.018 A 
ATOM      8  C   UNL     1      -1.306  -6.521   1.192  0.00  0.00    +0.034 A 
ATOM      9  C   UNL     1      -1.373  -7.895   1.083  0.00  0.00    +0.109 A 
ATOM     10  C   UNL     1      -2.340  -8.482   0.286  0.00  0.00    +0.030 A 
ATOM     11  C   UNL     1      -3.240  -7.689  -0.396  0.00  0.00    +0.025 A 
ATOM     12  C   UNL     1      -3.177  -6.303  -0.282  0.00  0.00    +0.031 A 
ATOM     13  N   UNL     1      -4.117  -5.529  -0.935  0.00  0.00    -0.336 N 
ATOM     14  H   UNL     1      -4.766  -5.979  -1.497  0.00  0.00    +0.147 HD
ENDROOT
BRANCH   1  20
ATOM     15  C   UNL     1      -5.054  -2.270  -2.332  0.00  0.00    +0.125 A 
ATOM     16  C   UNL     1      -5.367  -1.767  -3.587  0.00  0.00    +0.046 A 
ATOM     17  C   UNL     1      -5.134  -2.532  -4.714  0.00  0.00    +0.004 A 
ATOM     18  C   UNL     1      -4.589  -3.797  -4.592  0.00  0.00    +0.001 A 
ATOM     19  C   UNL     1      -4.276  -4.300  -3.342  0.00  0.00    +0.009 A 
ATOM     20  C   UNL     1      -4.502  -3.537  -2.213  0.00  0.00    +0.015 A 
BRANCH  15  22
ATOM     21  C   UNL     1      -5.852  -0.224  -1.421  0.00  0.00    +0.277 C 
ATOM     22  O   UNL     1      -5.282  -1.519  -1.222  0.00  0.00    -0.495 OA
ENDBRANCH  15  22
ENDBRANCH   1  20
BRANCH   9  23
ATOM     23  S   UNL     1      -0.226  -8.904   1.960  0.00  0.00    +0.072 S 
ATOM     24  O   UNL     1      -0.058 -10.088   1.194  0.00  0.00    -0.150 OA
ATOM     25  O   UNL     1       0.865  -8.065   2.315  0.00  0.00    -0.150 OA
BRANCH  23  26
ATOM     26  N   UNL     1      -0.954  -9.356   3.377  0.00  0.00    -0.216 N 
ATOM     27  H   UNL     1      -1.132 -10.293   3.553  0.00  0.00    +0.174 HD
BRANCH  26  28
ATOM     28  C   UNL     1      -1.313  -8.386   4.320  0.00  0.00    +0.052 A 
ATOM     29  C   UNL     1      -0.337  -7.785   5.104  0.00  0.00    +0.028 A 
ATOM     30  C   UNL     1      -0.690  -6.827   6.035  0.00  0.00    +0.051 A 
ATOM     31  C   UNL     1      -2.018  -6.465   6.189  0.00  0.00    +0.162 A 
ATOM     32  C   UNL     1      -2.998  -7.065   5.406  0.00  0.00    +0.163 A 
ATOM     33  C   UNL     1      -2.644  -8.021   4.468  0.00  0.00    +0.074 A 
BRANCH  32  34
ATOM     34  O   UNL     1      -4.303  -6.710   5.557  0.00  0.00    -0.491 OA
ATOM     35  C   UNL     1      -5.255  -7.368   4.719  0.00  0.00    +0.277 C 
ENDBRANCH  32  34
BRANCH  31  36
ATOM     36  O   UNL     1      -2.364  -5.521   7.107  0.00  0.00    -0.491 OA
ATOM     37  C   UNL     1      -1.306  -4.947   7.877  0.00  0.00    +0.277 C 
ENDBRANCH  31  36
ENDBRANCH  26  28
ENDBRANCH  23  26
ENDBRANCH   9  23
TORSDOF 7
