REMARK  Name = ZINC02705982
REMARK  7 active torsions:
REMARK  status: ('A' for Active; 'I' for Inactive)
REMARK    1  A    between atoms: N_9  and  C_26
REMARK    2  A    between atoms: C_10  and  S_12
REMARK    3  A    between atoms: S_12  and  C_13
REMARK    4  A    between atoms: C_13  and  C_14
REMARK    5  A    between atoms: N_16  and  N_17
REMARK    6  A    between atoms: C_18  and  C_19
REMARK    7  A    between atoms: C_20  and  C_21
REMARK                            x       y       z     vdW  Elec       q    Type
REMARK                         _______ _______ _______ _____ _____    ______ ____
ROOT
ATOM      1  C   UNL     1      -6.494   0.204  -0.839  0.00  0.00    +0.001 A 
ATOM      2  C   UNL     1      -6.067   1.416  -0.312  0.00  0.00    +0.002 A 
ATOM      3  C   UNL     1      -4.793   1.569   0.157  0.00  0.00    +0.028 A 
ATOM      4  C   UNL     1      -3.904   0.491   0.108  0.00  0.00    +0.079 A 
ATOM      5  C   UNL     1      -4.342  -0.741  -0.428  0.00  0.00    +0.065 A 
ATOM      6  C   UNL     1      -5.648  -0.869  -0.900  0.00  0.00    +0.015 A 
ATOM      7  C   UNL     1      -3.390  -1.858  -0.469  0.00  0.00    +0.267 A 
ATOM      8  O   UNL     1      -3.708  -2.943  -0.919  0.00  0.00    -0.267 OA
ATOM      9  N   UNL     1      -2.145  -1.637   0.014  0.00  0.00    -0.255 N 
ATOM     10  C   UNL     1      -1.805  -0.411   0.516  0.00  0.00    +0.177 A 
ATOM     11  N   UNL     1      -2.640   0.598   0.565  0.00  0.00    -0.223 NA
ENDROOT
BRANCH   9  12
ATOM     12  C   UNL     1      -1.198  -2.669  -0.002  0.00  0.00    +0.052 A 
ATOM     13  C   UNL     1      -0.369  -2.836  -1.103  0.00  0.00    +0.027 A 
ATOM     14  C   UNL     1       0.567  -3.851  -1.113  0.00  0.00    +0.017 A 
ATOM     15  C   UNL     1       0.672  -4.709  -0.033  0.00  0.00    +0.018 A 
ATOM     16  C   UNL     1      -0.157  -4.548   1.064  0.00  0.00    +0.017 A 
ATOM     17  C   UNL     1      -1.091  -3.531   1.081  0.00  0.00    +0.027 A 
ATOM     18 BR   UNL     1       1.950  -6.102  -0.053  0.00  0.00    -0.050 Br
ENDBRANCH   9  12
BRANCH  10  19
ATOM     19  S   UNL     1      -0.170  -0.179   1.131  0.00  0.00    -0.078 S 
BRANCH  19  20
ATOM     20  C   UNL     1      -0.271   1.553   1.648  0.00  0.00    +0.174 C 
BRANCH  20  21
ATOM     21  C   UNL     1       1.053   1.984   2.223  0.00  0.00    +0.242 C 
ATOM     22  O   UNL     1       1.975   1.197   2.279  0.00  0.00    -0.273 OA
ATOM     23  N   UNL     1       1.213   3.243   2.676  0.00  0.00    -0.206 N 
ATOM     24  H   UNL     1       0.476   3.872   2.632  0.00  0.00    +0.177 HD
BRANCH  23  25
ATOM     25  N   UNL     1       2.445   3.644   3.212  0.00  0.00    -0.188 NA
ATOM     26  C   UNL     1       2.600   4.862   3.650  0.00  0.00    +0.130 C 
BRANCH  26  27
ATOM     27  C   UNL     1       3.843   5.266   4.190  0.00  0.00    +0.025 C 
ATOM     28  C   UNL     1       4.004   6.531   4.646  0.00  0.00    +0.048 C 
BRANCH  28  29
ATOM     29  C   UNL     1       5.289   6.949   5.204  0.00  0.00    +0.128 A 
ATOM     30  C   UNL     1       5.588   8.191   5.691  0.00  0.00    +0.049 A 
ATOM     31  C   UNL     1       6.924   8.144   6.125  0.00  0.00    +0.042 A 
ATOM     32  C   UNL     1       7.378   6.898   5.879  0.00  0.00    +0.195 A 
ATOM     33  O   UNL     1       6.390   6.179   5.323  0.00  0.00    -0.464 OA
ENDBRANCH  28  29
ENDBRANCH  26  27
ENDBRANCH  23  25
ENDBRANCH  20  21
ENDBRANCH  19  20
ENDBRANCH  10  19
TORSDOF 7
