REMARK  Name = ZINC21249519
REMARK  6 active torsions:
REMARK  status: ('A' for Active; 'I' for Inactive)
REMARK    1  A    between atoms: C_1  and  O_2
REMARK    2  A    between atoms: O_2  and  C_3
REMARK    3  A    between atoms: C_6  and  C_11
REMARK    4  A    between atoms: C_8  and  O_9
REMARK    5  A    between atoms: O_9  and  C_10
REMARK    6  A    between atoms: C_16  and  C_21
REMARK                            x       y       z     vdW  Elec       q    Type
REMARK                         _______ _______ _______ _____ _____    ______ ____
ROOT
ATOM      1  C   UNL     1      -2.624   2.370   2.564  0.00  0.00    +0.136 C 
ATOM      2  C   UNL     1      -1.948   1.766   1.357  0.00  0.00    +0.036 C 
ATOM      3  C   UNL     1      -2.529   1.519   0.170  0.00  0.00    +0.017 C 
ATOM      4  C   UNL     1      -1.729   0.900  -0.964  0.00  0.00    +0.059 C 
ATOM      5  C   UNL     1      -0.273   1.356  -0.885  0.00  0.00    +0.032 C 
ATOM      6  C   UNL     1       0.285   0.902   0.470  0.00  0.00    +0.088 C 
ATOM      7  C   UNL     1      -0.576   1.468   1.559  0.00  0.00    +0.163 C 
ATOM      8  O   UNL     1      -0.079   1.679   2.648  0.00  0.00    -0.292 OA
ATOM      9  N   UNL     1      -3.830   1.772  -0.122  0.00  0.00    -0.316 N 
ATOM     10  C   UNL     1      -4.497   2.955   0.175  0.00  0.00    +0.052 A 
ATOM     11  C   UNL     1      -5.028   3.771  -0.808  0.00  0.00    +0.025 A 
ATOM     12  C   UNL     1      -5.780   4.875  -0.441  0.00  0.00    +0.002 A 
ATOM     13  C   UNL     1      -5.995   5.159   0.895  0.00  0.00    +0.002 A 
ATOM     14  C   UNL     1      -5.446   4.356   1.879  0.00  0.00    +0.025 A 
ATOM     15  C   UNL     1      -4.678   3.261   1.516  0.00  0.00    +0.049 A 
ATOM     16  N   UNL     1      -4.066   2.450   2.470  0.00  0.00    -0.331 N 
ATOM     17  H   UNL     1      -4.437   1.009  -0.631  0.00  0.00    +0.152 HD
ATOM     18  H   UNL     1      -4.695   1.866   3.157  0.00  0.00    +0.147 HD
ENDROOT
BRANCH   5  19
ATOM     19  C   UNL     1       0.522   0.729  -2.001  0.00  0.00    -0.043 A 
ATOM     20  C   UNL     1       0.589  -0.648  -2.112  0.00  0.00    +0.007 A 
ATOM     21  C   UNL     1       1.313  -1.224  -3.138  0.00  0.00    +0.038 A 
ATOM     22  C   UNL     1       1.981  -0.423  -4.048  0.00  0.00    +0.123 A 
ATOM     23  C   UNL     1       1.918   0.956  -3.933  0.00  0.00    +0.038 A 
ATOM     24  C   UNL     1       1.188   1.530  -2.909  0.00  0.00    +0.007 A 
ATOM     25  F   UNL     1       2.693  -0.985  -5.049  0.00  0.00    -0.205 F 
ENDBRANCH   5  19
BRANCH   1  29
ATOM     26  C   UNL     1      -1.085   6.319   3.139  0.00  0.00    +0.162 A 
ATOM     27  C   UNL     1      -1.796   6.010   1.991  0.00  0.00    +0.050 A 
ATOM     28  C   UNL     1      -2.287   4.731   1.805  0.00  0.00    +0.009 A 
ATOM     29  C   UNL     1      -2.081   3.761   2.769  0.00  0.00    -0.019 A 
ATOM     30  C   UNL     1      -1.373   4.064   3.917  0.00  0.00    +0.055 A 
ATOM     31  C   UNL     1      -0.873   5.342   4.107  0.00  0.00    +0.162 A 
BRANCH  26  33
ATOM     32  C   UNL     1      -0.853   8.527   2.286  0.00  0.00    +0.277 C 
ATOM     33  O   UNL     1      -0.597   7.575   3.320  0.00  0.00    -0.491 OA
ENDBRANCH  26  33
BRANCH  31  34
ATOM     34  O   UNL     1      -0.175   5.641   5.235  0.00  0.00    -0.491 OA
ATOM     35  C   UNL     1       0.004   4.588   6.184  0.00  0.00    +0.277 C 
ENDBRANCH  31  34
ENDBRANCH   1  29
TORSDOF 4
