REMARK  Name = ZINC19354154
REMARK  5 active torsions:
REMARK  status: ('A' for Active; 'I' for Inactive)
REMARK    1  A    between atoms: C_1  and  C_2
REMARK    2  A    between atoms: C_4  and  C_7
REMARK    3  A    between atoms: C_7  and  O_8
REMARK    4  A    between atoms: O_8  and  C_9
REMARK    5  A    between atoms: C_12  and  C_15
REMARK                            x       y       z     vdW  Elec       q    Type
REMARK                         _______ _______ _______ _____ _____    ______ ____
ROOT
ATOM      1  C   UNL     1      -5.363  -8.548  -0.019  0.00  0.00    +0.209 C 
ATOM      2  N   UNL     1      -4.919  -9.655  -0.886  0.00  0.00    -0.294 N 
ATOM      3  C   UNL     1      -4.039 -10.588  -0.403  0.00  0.00    +0.160 C 
ATOM      4  N   UNL     1      -4.007 -10.906   0.879  0.00  0.00    -0.302 N 
ATOM      5  C   UNL     1      -4.827 -10.242   1.728  0.00  0.00    +0.213 A 
ATOM      6  N   UNL     1      -5.506  -9.103   1.332  0.00  0.00    -0.286 N 
ATOM      7  C   UNL     1      -6.261  -8.670   2.396  0.00  0.00    +0.076 A 
ATOM      8  C   UNL     1      -7.142  -7.614   2.594  0.00  0.00    +0.077 A 
ATOM      9  C   UNL     1      -7.758  -7.453   3.820  0.00  0.00    +0.164 A 
ATOM     10  C   UNL     1      -7.503  -8.341   4.861  0.00  0.00    +0.164 A 
ATOM     11  C   UNL     1      -6.629  -9.393   4.683  0.00  0.00    +0.079 A 
ATOM     12  C   UNL     1      -5.998  -9.569   3.447  0.00  0.00    +0.095 A 
ATOM     13  N   UNL     1      -5.107 -10.495   2.980  0.00  0.00    -0.212 NA
ATOM     14  O   UNL     1      -8.124  -8.165   6.065  0.00  0.00    -0.488 OA
ATOM     15  C   UNL     1      -7.727  -7.014   6.812  0.00  0.00    +0.232 C 
ATOM     16  C   UNL     1      -8.501  -5.785   6.360  0.00  0.00    +0.082 C 
ATOM     17  C   UNL     1      -8.188  -5.400   4.923  0.00  0.00    +0.232 C 
ATOM     18  O   UNL     1      -8.625  -6.416   4.018  0.00  0.00    -0.488 OA
ATOM     19  N   UNL     1      -3.176 -11.204  -1.268  0.00  0.00    -0.332 N 
ATOM     20  H   UNL     1      -5.248  -9.722  -1.795  0.00  0.00    +0.151 HD
ATOM     21  H   UNL     1      -3.191 -10.979  -2.212  0.00  0.00    +0.145 HD
ATOM     22  H   UNL     1      -2.549 -11.867  -0.938  0.00  0.00    +0.145 HD
ATOM     23  H   UNL     1      -3.411 -11.599   1.204  0.00  0.00    +0.171 HD
ENDROOT
BRANCH   1  27
ATOM     24  C   UNL     1      -2.442  -5.429  -0.015  0.00  0.00    +0.121 A 
ATOM     25  C   UNL     1      -3.793  -5.115  -0.014  0.00  0.00    +0.046 A 
ATOM     26  C   UNL     1      -4.736  -6.125  -0.015  0.00  0.00    +0.011 A 
ATOM     27  C   UNL     1      -4.333  -7.448  -0.018  0.00  0.00    -0.007 A 
ATOM     28  C   UNL     1      -2.986  -7.763  -0.019  0.00  0.00    +0.011 A 
ATOM     29  C   UNL     1      -2.040  -6.757  -0.024  0.00  0.00    +0.046 A 
BRANCH  24  30
ATOM     30  O   UNL     1      -1.513  -4.437  -0.015  0.00  0.00    -0.486 OA
BRANCH  30  31
ATOM     31  C   UNL     1      -1.999  -3.093  -0.006  0.00  0.00    +0.285 C 
BRANCH  31  35
ATOM     32  C   UNL     1      -0.018   1.503   0.010  0.00  0.00    +0.073 C 
ATOM     33  C   UNL     1       0.002  -0.004   0.002  0.00  0.00    +0.076 A 
ATOM     34  N   UNL     1      -1.013  -0.832   0.002  0.00  0.00    -0.246 NA
ATOM     35  C   UNL     1      -0.834  -2.137  -0.006  0.00  0.00    +0.086 A 
ATOM     36  C   UNL     1       0.449  -2.582  -0.014  0.00  0.00    +0.073 A 
ATOM     37  S   UNL     1       1.335  -1.032  -0.017  0.00  0.00    -0.080 S 
ENDBRANCH  31  35
ENDBRANCH  30  31
ENDBRANCH  24  30
ENDBRANCH   1  27
TORSDOF 4
