REMARK  Name = ZINC08311877
REMARK  9 active torsions:
REMARK  status: ('A' for Active; 'I' for Inactive)
REMARK    1  A    between atoms: C_1  and  C_2
REMARK    2  A    between atoms: C_2  and  C_3
REMARK    3  A    between atoms: C_2  and  C_4
REMARK    4  A    between atoms: C_2  and  O_5
REMARK    5  A    between atoms: O_5  and  C_6
REMARK    6  A    between atoms: C_6  and  C_8
REMARK    7  A    between atoms: C_12  and  C_16
REMARK    8  A    between atoms: C_16  and  O_18
REMARK    9  A    between atoms: O_18  and  C_19
REMARK                            x       y       z     vdW  Elec       q    Type
REMARK                         _______ _______ _______ _____ _____    ______ ____
ROOT
ATOM      1  C   UNL     1       4.253   1.529  -4.984  0.00  0.00    +0.314 C 
ATOM      2  O   UNL     1       3.212   2.132  -5.100  0.00  0.00    -0.250 OA
ENDROOT
BRANCH   1   6
ATOM      3  C   UNL     1       2.648  -0.541  -2.646  0.00  0.00    +0.039 C 
ATOM      4  C   UNL     1       1.990  -0.036  -3.931  0.00  0.00    -0.004 C 
ATOM      5  C   UNL     1       2.818  -0.490  -5.136  0.00  0.00    +0.012 C 
ATOM      6  C   UNL     1       4.253   0.022  -4.979  0.00  0.00    +0.081 C 
ATOM      7  C   UNL     1       4.828  -0.486  -3.655  0.00  0.00    -0.067 C 
ATOM      8  N   UNL     1       4.007   0.004  -2.541  0.00  0.00    +0.388 N 
ATOM      9  H   UNL     1       3.967   1.012  -2.572  0.00  0.00    -0.085 HD
ATOM     10  H   UNL     1       4.419  -0.287  -1.668  0.00  0.00    -0.085 HD
BRANCH   3  11
ATOM     11  C   UNL     1       1.836  -0.097  -1.457  0.00  0.00    +0.293 C 
ATOM     12  O   UNL     1       2.338   0.605  -0.610  0.00  0.00    -0.253 OA
BRANCH  11  13
ATOM     13  O   UNL     1       0.555  -0.479  -1.338  0.00  0.00    -0.460 OA
BRANCH  13  15
ATOM     14  C   UNL     1      -0.180   1.510  -0.178  0.00  0.00    +0.055 C 
ATOM     15  C   UNL     1      -0.155  -0.020  -0.186  0.00  0.00    +0.105 C 
ATOM     16  C   UNL     1       0.544  -0.525   1.078  0.00  0.00    +0.055 C 
ATOM     17  C   UNL     1      -1.588  -0.554  -0.224  0.00  0.00    +0.055 C 
ENDBRANCH  13  15
ENDBRANCH  11  13
ENDBRANCH   3  11
ENDBRANCH   1   6
BRANCH   1  18
ATOM     18  O   UNL     1       5.408   2.201  -4.858  0.00  0.00    -0.426 OA
BRANCH  18  19
ATOM     19  C   UNL     1       5.375   3.554  -4.970  0.00  0.00    +0.135 A 
ATOM     20  C   UNL     1       4.913   4.324  -3.904  0.00  0.00    +0.047 A 
ATOM     21  C   UNL     1       4.873   5.685  -4.001  0.00  0.00    +0.015 A 
ATOM     22  C   UNL     1       5.298   6.310  -5.179  0.00  0.00    +0.021 A 
ATOM     23  C   UNL     1       5.765   5.538  -6.257  0.00  0.00    +0.143 A 
ATOM     24  C   UNL     1       5.805   4.157  -6.141  0.00  0.00    +0.093 A 
ATOM     25  O   UNL     1       6.172   6.151  -7.389  0.00  0.00    -0.422 OA
ATOM     26  C   UNL     1       6.151   7.485  -7.506  0.00  0.00    +0.341 A 
ATOM     27  O   UNL     1       6.538   7.992  -8.543  0.00  0.00    -0.245 OA
ATOM     28  C   UNL     1       5.691   8.326  -6.461  0.00  0.00    +0.041 A 
ATOM     29  C   UNL     1       5.261   7.773  -5.307  0.00  0.00    -0.027 A 
ATOM     30  C   UNL     1       4.738   8.582  -4.152  0.00  0.00    +0.036 C 
ATOM     31  C   UNL     1       5.165  10.043  -4.281  0.00  0.00    +0.005 C 
ATOM     32  C   UNL     1       4.805  10.527  -5.691  0.00  0.00    +0.005 C 
ATOM     33  C   UNL     1       5.713   9.814  -6.691  0.00  0.00    +0.042 C 
ENDBRANCH  18  19
ENDBRANCH   1  18
TORSDOF 6
