REMARK  Name = ZINC37131385
REMARK  7 active torsions:
REMARK  status: ('A' for Active; 'I' for Inactive)
REMARK    1  A    between atoms: C_1  and  C_2
REMARK    2  A    between atoms: C_5  and  O_22
REMARK    3  A    between atoms: C_6  and  C_8
REMARK    4  A    between atoms: C_8  and  C_10
REMARK    5  A    between atoms: C_8  and  N_11
REMARK    6  A    between atoms: N_11  and  C_12
REMARK    7  A    between atoms: C_15  and  N_19
REMARK                            x       y       z     vdW  Elec       q    Type
REMARK                         _______ _______ _______ _____ _____    ______ ____
ROOT
ATOM      1  N   UNL     1       0.630  -1.997   3.542  0.00  0.00    -0.336 N 
ATOM      2  H   UNL     1       0.532  -1.033   3.499  0.00  0.00    +0.147 HD
ENDROOT
BRANCH   1   3
ATOM      3  C   UNL     1       1.322  -2.582   4.606  0.00  0.00    +0.042 A 
ATOM      4  C   UNL     1       1.468  -3.962   4.668  0.00  0.00    +0.026 A 
ATOM      5  C   UNL     1       2.153  -4.536   5.721  0.00  0.00    +0.034 A 
ATOM      6  C   UNL     1       2.693  -3.739   6.713  0.00  0.00    +0.127 A 
ATOM      7  C   UNL     1       2.550  -2.365   6.656  0.00  0.00    +0.049 A 
ATOM      8  C   UNL     1       1.871  -1.783   5.603  0.00  0.00    +0.041 A 
ATOM      9 BR   UNL     1       1.682   0.097   5.521  0.00  0.00    -0.048 Br
BRANCH   6  10
ATOM     10  N   UNL     1       3.426  -4.359   7.840  0.00  0.00    +0.056 N 
ATOM     11  O   UNL     1       3.552  -5.560   7.892  0.00  0.00    -0.126 OA
ATOM     12  O   UNL     1       3.899  -3.663   8.709  0.00  0.00    -0.126 OA
ENDBRANCH   6  10
ENDBRANCH   1   3
BRANCH   1  13
ATOM     13  C   UNL     1       0.052  -2.841   2.493  0.00  0.00    +0.101 C 
ATOM     14  C   UNL     1      -1.335  -3.317   2.928  0.00  0.00    +0.033 C 
BRANCH  13  20
ATOM     15  C   UNL     1      -0.481   1.554   0.161  0.00  0.00    +0.044 C 
ATOM     16  C   UNL     1      -0.321   0.057   0.101  0.00  0.00    -0.050 A 
ATOM     17  C   UNL     1      -0.283  -0.585  -1.123  0.00  0.00    +0.007 A 
ATOM     18  C   UNL     1      -0.138  -1.958  -1.181  0.00  0.00    +0.046 A 
ATOM     19  C   UNL     1      -0.029  -2.692  -0.009  0.00  0.00    +0.122 A 
ATOM     20  C   UNL     1      -0.066  -2.046   1.218  0.00  0.00    +0.014 A 
ATOM     21  C   UNL     1      -0.207  -0.672   1.270  0.00  0.00    +0.012 A 
BRANCH  19  22
ATOM     22  O   UNL     1       0.115  -4.043  -0.062  0.00  0.00    -0.506 OA
ATOM     23  H   UNL     1       1.034  -4.340  -0.101  0.00  0.00    +0.292 HD
ENDBRANCH  19  22
ENDBRANCH  13  20
ENDBRANCH   1  13
TORSDOF 5
