REMARK  Name = ZINC15057131
REMARK  8 active torsions:
REMARK  status: ('A' for Active; 'I' for Inactive)
REMARK    1  A    between atoms: C_1  and  C_2
REMARK    2  A    between atoms: C_2  and  C_3
REMARK    3  A    between atoms: C_2  and  C_4
REMARK    4  A    between atoms: C_4  and  C_6
REMARK    5  A    between atoms: C_4  and  N_13
REMARK    6  A    between atoms: N_13  and  C_14
REMARK    7  A    between atoms: C_14  and  C_15
REMARK    8  A    between atoms: N_20  and  C_21
REMARK                            x       y       z     vdW  Elec       q    Type
REMARK                         _______ _______ _______ _____ _____    ______ ____
ROOT
ATOM      1  C   UNL     1      -1.475  -3.938   1.604  0.00  0.00    +0.234 C 
ATOM      2  O   UNL     1      -1.518  -4.584   0.579  0.00  0.00    -0.274 OA
ATOM      3  N   UNL     1      -1.519  -4.565   2.797  0.00  0.00    -0.239 N 
ATOM      4  C   UNL     1      -1.612  -5.908   2.849  0.00  0.00    +0.310 C 
ATOM      5  O   UNL     1      -1.655  -6.555   1.821  0.00  0.00    -0.252 OA
ATOM      6  N   UNL     1      -1.657  -6.535   4.042  0.00  0.00    -0.269 N 
ATOM      7  H   UNL     1      -1.484  -4.049   3.617  0.00  0.00    +0.159 HD
ATOM      8  H   UNL     1      -1.698  -6.016   4.861  0.00  0.00    +0.156 HD
ENDROOT
BRANCH   6   9
ATOM      9  C   UNL     1      -1.643  -7.935   4.099  0.00  0.00    +0.038 A 
ATOM     10  C   UNL     1      -2.364  -8.596   5.084  0.00  0.00    +0.027 A 
ATOM     11  C   UNL     1      -2.352  -9.976   5.142  0.00  0.00    +0.051 A 
ATOM     12  C   UNL     1      -1.621 -10.705   4.217  0.00  0.00    +0.166 A 
ATOM     13  C   UNL     1      -0.897 -10.044   3.227  0.00  0.00    +0.168 A 
ATOM     14  C   UNL     1      -0.915  -8.660   3.167  0.00  0.00    +0.073 A 
ATOM     15  O   UNL     1      -0.270 -10.975   2.450  0.00  0.00    -0.453 OA
ATOM     16  C   UNL     1      -0.286 -12.192   3.220  0.00  0.00    +0.466 C 
ATOM     17  O   UNL     1      -1.447 -12.050   4.060  0.00  0.00    -0.453 OA
ENDBRANCH   6   9
BRANCH   1  18
ATOM     18  C   UNL     1      -1.371  -2.436   1.545  0.00  0.00    +0.178 C 
BRANCH  18  19
ATOM     19  N   UNL     1      -1.339  -2.002   0.142  0.00  0.00    -0.301 NA
ATOM     20  H   UNL     1      -2.103  -2.407  -0.379  0.00  0.00    +0.123 HD
BRANCH  19  21
ATOM     21  C   UNL     1      -1.354  -0.536   0.044  0.00  0.00    +0.087 C 
BRANCH  21  22
ATOM     22  C   UNL     1      -2.023  -0.126  -1.242  0.00  0.00    -0.030 A 
ATOM     23  C   UNL     1      -1.787  -0.841  -2.402  0.00  0.00    +0.008 A 
ATOM     24  C   UNL     1      -2.399  -0.465  -3.583  0.00  0.00    +0.038 A 
ATOM     25  C   UNL     1      -3.250   0.627  -3.604  0.00  0.00    +0.123 A 
ATOM     26  C   UNL     1      -3.486   1.342  -2.442  0.00  0.00    +0.038 A 
ATOM     27  C   UNL     1      -2.876   0.962  -1.261  0.00  0.00    +0.008 A 
ATOM     28  F   UNL     1      -3.849   0.995  -4.757  0.00  0.00    -0.205 F 
ENDBRANCH  21  22
BRANCH  21  30
ATOM     29  C   UNL     1       0.857  -0.596  -1.118  0.00  0.00    +0.009 C 
ATOM     30  C   UNL     1       0.082  -0.009   0.064  0.00  0.00    +0.004 C 
ATOM     31  C   UNL     1       0.066   1.517  -0.044  0.00  0.00    +0.009 C 
ENDBRANCH  21  30
ENDBRANCH  19  21
ENDBRANCH  18  19
ENDBRANCH   1  18
TORSDOF 6
