REMARK  Name = ZINC19936554
REMARK  12 active torsions:
REMARK  status: ('A' for Active; 'I' for Inactive)
REMARK    1  A    between atoms: C_1  and  C_2
REMARK    2  A    between atoms: C_2  and  C_3
REMARK    3  A    between atoms: C_2  and  C_4
REMARK    4  A    between atoms: C_2  and  C_5
REMARK    5  A    between atoms: C_8  and  C_11
REMARK    6  A    between atoms: C_11  and  C_13
REMARK    7  A    between atoms: C_11  and  N_16
REMARK    8  A    between atoms: C_13  and  C_14
REMARK    9  A    between atoms: C_14  and  N_15
REMARK   10  A    between atoms: N_19  and  C_22
REMARK   11  A    between atoms: C_22  and  C_23
REMARK   12  A    between atoms: C_22  and  C_29
REMARK                            x       y       z     vdW  Elec       q    Type
REMARK                         _______ _______ _______ _____ _____    ______ ____
ROOT
ATOM      1  N   UNL     1       1.187  -0.584   1.495  0.00  0.00    -0.299 NA
ATOM      2  C   UNL     1       0.792   0.315   0.402  0.00  0.00    +0.066 C 
ATOM      3  C   UNL     1       1.221   1.745   0.740  0.00  0.00    -0.062 C 
ATOM      4  N   UNL     1       2.675   1.780   0.948  0.00  0.00    +0.389 N 
ATOM      5  C   UNL     1       3.070   0.881   2.041  0.00  0.00    -0.062 C 
ATOM      6  C   UNL     1       2.641  -0.548   1.703  0.00  0.00    +0.066 C 
ATOM      7  H   UNL     1       3.159   1.427   0.025  0.00  0.00    -0.080 HD
ENDROOT
BRANCH   1   8
ATOM      8  C   UNL     1       0.724  -1.955   1.242  0.00  0.00    +0.085 C 
BRANCH   8  12
ATOM      9  C   UNL     1       2.822  -3.569  -2.111  0.00  0.00    -0.042 A 
ATOM     10  C   UNL     1       3.477  -3.391  -0.907  0.00  0.00    +0.004 A 
ATOM     11  C   UNL     1       2.798  -2.868   0.178  0.00  0.00    +0.005 A 
ATOM     12  C   UNL     1       1.464  -2.524   0.059  0.00  0.00    -0.030 A 
ATOM     13  C   UNL     1       0.808  -2.708  -1.144  0.00  0.00    +0.005 A 
ATOM     14  C   UNL     1       1.488  -3.226  -2.230  0.00  0.00    +0.004 A 
BRANCH   9  16
ATOM     15  C   UNL     1       4.083  -5.534  -2.946  0.00  0.00    +0.015 C 
ATOM     16  C   UNL     1       3.562  -4.138  -3.294  0.00  0.00    -0.013 C 
ATOM     17  C   UNL     1       2.615  -4.232  -4.492  0.00  0.00    +0.015 C 
ATOM     18  C   UNL     1       4.740  -3.227  -3.645  0.00  0.00    +0.015 C 
ENDBRANCH   9  16
ENDBRANCH   8  12
BRANCH   8  19
ATOM     19  C   UNL     1       0.993  -2.819   2.475  0.00  0.00    +0.004 C 
BRANCH  19  20
ATOM     20  C   UNL     1       0.144  -2.316   3.645  0.00  0.00    -0.085 C 
BRANCH  20  21
ATOM     21  N   UNL     1       0.402  -3.146   4.830  0.00  0.00    +0.378 N 
ATOM     22  H   UNL     1      -0.208  -2.784   5.671  0.00  0.00    -0.090 HD
ATOM     23  H   UNL     1       1.468  -3.084   5.096  0.00  0.00    -0.090 HD
ATOM     24  H   UNL     1       0.139  -4.191   4.609  0.00  0.00    -0.090 HD
ENDBRANCH  20  21
ENDBRANCH  19  20
ENDBRANCH   8  19
ENDBRANCH   1   8
BRANCH   4  25
ATOM     25  C   UNL     1       3.138   3.152   1.201  0.00  0.00    -0.007 C 
BRANCH  25  26
ATOM     26  C   UNL     1       4.608   3.133   1.530  0.00  0.00    -0.057 A 
ATOM     27  C   UNL     1       5.460   2.290   0.841  0.00  0.00    +0.002 A 
ATOM     28  C   UNL     1       6.810   2.277   1.140  0.00  0.00    +0.000 A 
ATOM     29  C   UNL     1       7.306   3.100   2.134  0.00  0.00    +0.000 A 
ATOM     30  C   UNL     1       6.453   3.939   2.826  0.00  0.00    +0.000 A 
ATOM     31  C   UNL     1       5.104   3.956   2.524  0.00  0.00    +0.002 A 
ENDBRANCH  25  26
BRANCH  25  32
ATOM     32  C   UNL     1       2.908   3.994  -0.028  0.00  0.00    -0.057 A 
ATOM     33  C   UNL     1       3.152   3.467  -1.282  0.00  0.00    +0.002 A 
ATOM     34  C   UNL     1       2.937   4.238  -2.409  0.00  0.00    +0.000 A 
ATOM     35  C   UNL     1       2.487   5.539  -2.281  0.00  0.00    +0.000 A 
ATOM     36  C   UNL     1       2.248   6.067  -1.026  0.00  0.00    +0.000 A 
ATOM     37  C   UNL     1       2.459   5.295   0.100  0.00  0.00    +0.002 A 
ENDBRANCH  25  32
ENDBRANCH   4  25
TORSDOF 9
