REMARK  Name = ZINC11789981
REMARK  8 active torsions:
REMARK  status: ('A' for Active; 'I' for Inactive)
REMARK    1  A    between atoms: C_1  and  N_2
REMARK    2  A    between atoms: C_6  and  S_7
REMARK    3  A    between atoms: S_7  and  C_8
REMARK    4  A    between atoms: C_8  and  C_9
REMARK    5  A    between atoms: C_9  and  N_10
REMARK    6  A    between atoms: C_11  and  C_13
REMARK    7  A    between atoms: C_13  and  N_53
REMARK    8  A    between atoms: C_22  and  C_25
REMARK                            x       y       z     vdW  Elec       q    Type
REMARK                         _______ _______ _______ _____ _____    ______ ____
ROOT
ATOM      1  C   UNL     1       0.424  12.259  -1.189  0.00  0.00    -0.038 C 
ATOM      2  C   UNL     1       0.392  13.748  -1.475  0.00  0.00    -0.022 A 
ATOM      3  C   UNL     1      -0.337  14.235  -2.540  0.00  0.00    +0.005 A 
ATOM      4  C   UNL     1      -0.344  15.594  -2.801  0.00  0.00    +0.000 A 
ATOM      5  C   UNL     1       0.379  16.458  -1.999  0.00  0.00    +0.004 A 
ATOM      6  C   UNL     1       1.104  15.971  -0.929  0.00  0.00    +0.046 A 
ATOM      7  C   UNL     1       1.103  14.609  -0.661  0.00  0.00    +0.123 A 
ATOM      8  O   UNL     1       1.773  14.124   0.421  0.00  0.00    -0.486 OA
ATOM      9  C   UNL     1       0.947  13.634   1.484  0.00  0.00    +0.188 C 
ATOM     10  C   UNL     1       0.559  12.192   1.241  0.00  0.00    -0.028 C 
ATOM     11  N   UNL     1      -0.325  12.022   0.068  0.00  0.00    +0.391 N 
ATOM     12  H   UNL     1      -1.089  12.705   0.129  0.00  0.00    -0.080 HD
ENDROOT
BRANCH   9  13
ATOM     13  C   UNL     1       1.703  13.732   2.784  0.00  0.00    -0.002 A 
ATOM     14  C   UNL     1       1.041  14.036   3.959  0.00  0.00    +0.015 A 
ATOM     15  C   UNL     1       1.750  14.110   5.112  0.00  0.00    +0.045 A 
ATOM     16  S   UNL     1       3.407  13.758   4.550  0.00  0.00    -0.105 S 
ATOM     17  C   UNL     1       3.042  13.528   2.818  0.00  0.00    +0.052 A 
ENDBRANCH   9  13
BRANCH  11  18
ATOM     18  C   UNL     1      -0.897  10.666   0.066  0.00  0.00    +0.019 C 
BRANCH  18  20
ATOM     19  N   UNL     1      -0.134   8.313   0.046  0.00  0.00    -0.316 N 
ATOM     20  C   UNL     1       0.189   9.621   0.051  0.00  0.00    +0.196 C 
ATOM     21  O   UNL     1       1.355   9.958   0.042  0.00  0.00    -0.278 OA
ATOM     22  H   UNL     1      -1.066   8.044   0.053  0.00  0.00    +0.149 HD
BRANCH  19  23
ATOM     23  C   UNL     1       0.921   7.297   0.032  0.00  0.00    +0.115 C 
BRANCH  23  24
ATOM     24  C   UNL     1       0.289   5.904   0.030  0.00  0.00    +0.096 C 
BRANCH  24  25
ATOM     25  S   UNL     1       1.593   4.649   0.012  0.00  0.00    -0.086 S 
BRANCH  25  31
ATOM     26  C   UNL     1       2.489   1.502  -0.013  0.00  0.00    +0.151 C 
ATOM     27  N   UNL     1       1.083   1.910   0.002  0.00  0.00    -0.329 N 
ATOM     28  C   UNL     1      -0.013   1.076   0.008  0.00  0.00    +0.107 A 
ATOM     29  C   UNL     1      -1.103   1.861   0.017  0.00  0.00    +0.131 A 
ATOM     30  N   UNL     1      -0.702   3.143   0.025  0.00  0.00    -0.230 NA
ATOM     31  C   UNL     1       0.610   3.187   0.013  0.00  0.00    +0.169 A 
ENDBRANCH  25  31
ENDBRANCH  24  25
ENDBRANCH  23  24
ENDBRANCH  19  23
ENDBRANCH  18  20
ENDBRANCH  11  18
TORSDOF 7
