REMARK  Name = ZINC01875179
REMARK  10 active torsions:
REMARK  status: ('A' for Active; 'I' for Inactive)
REMARK    1  A    between atoms: C_2  and  C_3
REMARK    2  A    between atoms: C_3  and  C_4
REMARK    3  A    between atoms: C_9  and  O_10
REMARK    4  A    between atoms: O_10  and  C_11
REMARK    5  A    between atoms: C_11  and  C_12
REMARK    6  A    between atoms: C_12  and  O_13
REMARK    7  A    between atoms: O_13  and  C_14
REMARK    8  A    between atoms: C_17  and  N_36
REMARK    9  A    between atoms: C_19  and  C_20
REMARK   10  A    between atoms: C_30  and  C_32
REMARK                            x       y       z     vdW  Elec       q    Type
REMARK                         _______ _______ _______ _____ _____    ______ ____
ROOT
ATOM      1  C   UNL     1      -0.385  -4.995  -4.145  0.00  0.00    +0.128 A 
ATOM      2  C   UNL     1      -1.692  -4.980  -4.606  0.00  0.00    +0.048 A 
ATOM      3  C   UNL     1      -1.951  -4.810  -5.951  0.00  0.00    +0.036 A 
ATOM      4  C   UNL     1      -0.910  -4.654  -6.854  0.00  0.00    +0.127 A 
ATOM      5  C   UNL     1       0.395  -4.666  -6.419  0.00  0.00    +0.044 A 
ATOM      6  C   UNL     1       0.675  -4.831  -5.055  0.00  0.00    +0.020 A 
ENDROOT
BRANCH   6   7
ATOM      7  C   UNL     1       2.061  -4.839  -4.583  0.00  0.00    +0.028 C 
ATOM      8  C   UNL     1       3.032  -5.493  -5.307  0.00  0.00    +0.081 C 
ATOM      9  C   UNL     1       4.476  -5.391  -4.956  0.00  0.00    +0.153 C 
ATOM     10  N   UNL     1       4.909  -5.263  -3.730  0.00  0.00    -0.283 NA
ATOM     11  N   UNL     1       5.331  -5.446  -6.078  0.00  0.00    -0.152 N 
ATOM     12  C   UNL     1       4.848  -6.056  -7.216  0.00  0.00    +0.181 C 
ATOM     13  N   UNL     1       3.641  -6.517  -7.424  0.00  0.00    -0.152 NA
ATOM     14  C   UNL     1       2.695  -6.343  -6.476  0.00  0.00    +0.273 C 
ATOM     15  O   UNL     1       1.597  -6.865  -6.578  0.00  0.00    -0.268 OA
ATOM     16  S   UNL     1       6.263  -6.019  -8.285  0.00  0.00    -0.029 S 
ATOM     17  C   UNL     1       7.356  -5.115  -7.196  0.00  0.00    +0.202 C 
ATOM     18  N   UNL     1       6.617  -4.953  -6.136  0.00  0.00    -0.160 NA
ATOM     19  H   UNL     1       5.862  -5.201  -3.556  0.00  0.00    +0.188 HD
BRANCH  17  20
ATOM     20  C   UNL     1       8.770  -4.658  -7.443  0.00  0.00    +0.442 C 
ATOM     21  F   UNL     1       9.246  -3.983  -6.313  0.00  0.00    -0.164 F 
ATOM     22  F   UNL     1       9.582  -5.769  -7.698  0.00  0.00    -0.164 F 
ATOM     23  F   UNL     1       8.797  -3.797  -8.545  0.00  0.00    -0.164 F 
ENDBRANCH  17  20
ENDBRANCH   6   7
BRANCH   4  24
ATOM     24  N   UNL     1      -1.205  -4.473  -8.293  0.00  0.00    +0.056 N 
ATOM     25  O   UNL     1      -2.351  -4.462  -8.679  0.00  0.00    -0.126 OA
ATOM     26  O   UNL     1      -0.300  -4.337  -9.083  0.00  0.00    -0.126 OA
ENDBRANCH   4  24
BRANCH   1  27
ATOM     27  O   UNL     1      -0.129  -5.162  -2.824  0.00  0.00    -0.488 OA
BRANCH  27  28
ATOM     28  C   UNL     1      -1.256  -5.323  -1.960  0.00  0.00    +0.270 C 
BRANCH  28  29
ATOM     29  C   UNL     1      -0.773  -5.497  -0.519  0.00  0.00    +0.270 C 
BRANCH  29  30
ATOM     30  O   UNL     1      -0.131  -4.297  -0.083  0.00  0.00    -0.488 OA
BRANCH  30  36
ATOM     31  C   UNL     1       0.994  -3.152   1.672  0.00  0.00    -0.002 A 
ATOM     32  C   UNL     1       1.486  -3.140   2.963  0.00  0.00    +0.007 A 
ATOM     33  C   UNL     1       1.351  -4.257   3.767  0.00  0.00    +0.001 A 
ATOM     34  C   UNL     1       0.723  -5.389   3.280  0.00  0.00    +0.004 A 
ATOM     35  C   UNL     1       0.229  -5.407   1.991  0.00  0.00    +0.046 A 
ATOM     36  C   UNL     1       0.359  -4.285   1.184  0.00  0.00    +0.124 A 
BRANCH  31  37
ATOM     37  C   UNL     1       1.142  -1.934   0.797  0.00  0.00    +0.065 C 
BRANCH  37  39
ATOM     38  C   UNL     1      -0.025   0.167   1.227  0.00  0.00    +0.004 C 
ATOM     39  C   UNL     1      -0.107  -1.096   0.888  0.00  0.00    -0.030 C 
ENDBRANCH  37  39
ENDBRANCH  31  37
ENDBRANCH  30  36
ENDBRANCH  29  30
ENDBRANCH  28  29
ENDBRANCH  27  28
ENDBRANCH   1  27
TORSDOF 10
