REMARK  Name = ZINC40426493
REMARK  11 active torsions:
REMARK  status: ('A' for Active; 'I' for Inactive)
REMARK    1  A    between atoms: C_1  and  C_2
REMARK    2  A    between atoms: C_2  and  C_3
REMARK    3  A    between atoms: C_2  and  C_4
REMARK    4  A    between atoms: C_4  and  C_5
REMARK    5  A    between atoms: C_5  and  C_7
REMARK    6  A    between atoms: C_5  and  N_17
REMARK    7  A    between atoms: N_9  and  C_10
REMARK    8  A    between atoms: N_13  and  C_16
REMARK    9  A    between atoms: C_23  and  C_30
REMARK   10  A    between atoms: N_28  and  C_29
REMARK   11  A    between atoms: C_35  and  C_36
REMARK                            x       y       z     vdW  Elec       q    Type
REMARK                         _______ _______ _______ _____ _____    ______ ____
ROOT
ATOM      1  N   UNL     1      -0.845  -2.125  -1.538  0.00  0.00    -0.281 N 
ATOM      2  C   UNL     1       0.324  -2.999  -1.717  0.00  0.00    +0.160 C 
ATOM      3  C   UNL     1       0.431  -3.203  -3.212  0.00  0.00    +0.042 C 
ATOM      4  C   UNL     1      -0.582  -2.504  -3.764  0.00  0.00    +0.058 C 
ATOM      5  C   UNL     1      -1.342  -1.868  -2.761  0.00  0.00    +0.247 C 
ATOM      6  O   UNL     1      -2.319  -1.174  -2.975  0.00  0.00    -0.270 OA
ATOM      7  C   UNL     1      -0.716  -2.531  -5.273  0.00  0.00    +0.142 C 
ATOM      8  N   UNL     1       0.278  -3.323  -6.017  0.00  0.00    -0.288 N 
ATOM      9  C   UNL     1       1.235  -3.969  -5.322  0.00  0.00    +0.307 C 
ATOM     10  O   UNL     1       2.060  -4.625  -5.927  0.00  0.00    -0.252 OA
ATOM     11  N   UNL     1       1.307  -3.910  -3.985  0.00  0.00    -0.260 N 
ATOM     12  C   UNL     1       2.383  -4.646  -3.317  0.00  0.00    +0.139 C 
ATOM     13  H   UNL     1       0.244  -3.379  -6.985  0.00  0.00    +0.151 HD
ENDROOT
BRANCH   7  14
ATOM     14  C   UNL     1      -2.083  -3.068  -5.608  0.00  0.00    -0.011 A 
ATOM     15  C   UNL     1      -2.371  -4.404  -5.398  0.00  0.00    +0.006 A 
ATOM     16  C   UNL     1      -3.625  -4.897  -5.706  0.00  0.00    +0.000 A 
ATOM     17  C   UNL     1      -4.592  -4.055  -6.223  0.00  0.00    +0.001 A 
ATOM     18  C   UNL     1      -4.304  -2.719  -6.433  0.00  0.00    +0.013 A 
ATOM     19  C   UNL     1      -3.051  -2.225  -6.121  0.00  0.00    +0.060 A 
BRANCH  19  20
ATOM     20  C   UNL     1      -2.739  -0.768  -6.344  0.00  0.00    +0.418 C 
ATOM     21  F   UNL     1      -3.885  -0.110  -6.803  0.00  0.00    -0.166 F 
ATOM     22  F   UNL     1      -2.320  -0.191  -5.141  0.00  0.00    -0.166 F 
ATOM     23  F   UNL     1      -1.721  -0.650  -7.297  0.00  0.00    -0.166 F 
ENDBRANCH  19  20
ENDBRANCH   7  14
BRANCH   1  24
ATOM     24  C   UNL     1      -1.373  -1.631  -0.264  0.00  0.00    +0.163 C 
BRANCH  24  25
ATOM     25  C   UNL     1      -2.792  -2.108  -0.089  0.00  0.00    +0.234 C 
ATOM     26  O   UNL     1      -3.310  -2.794  -0.945  0.00  0.00    -0.274 OA
ATOM     27  N   UNL     1      -3.484  -1.774   1.018  0.00  0.00    -0.311 N 
ATOM     28  H   UNL     1      -3.069  -1.226   1.702  0.00  0.00    +0.149 HD
BRANCH  27  29
ATOM     29  C   UNL     1      -4.863  -2.238   1.187  0.00  0.00    +0.069 C 
ATOM     30  C   UNL     1      -5.819  -1.269   0.486  0.00  0.00    +0.003 C 
ATOM     31  C   UNL     1      -7.262  -1.716   0.734  0.00  0.00    -0.077 C 
ATOM     32  N   UNL     1      -7.536  -1.718   2.176  0.00  0.00    +0.378 N 
ATOM     33  C   UNL     1      -6.672  -2.697   2.845  0.00  0.00    -0.077 C 
ATOM     34  C   UNL     1      -5.207  -2.289   2.679  0.00  0.00    +0.003 C 
ATOM     35  C   UNL     1      -8.943  -2.072   2.405  0.00  0.00    -0.096 C 
ATOM     36  H   UNL     1      -7.356  -0.799   2.553  0.00  0.00    -0.082 HD
ENDBRANCH  27  29
ENDBRANCH  24  25
BRANCH  24  37
ATOM     37  C   UNL     1      -1.345  -0.101  -0.259  0.00  0.00    +0.035 C 
BRANCH  37  39
ATOM     38  C   UNL     1       0.130   1.908  -0.431  0.00  0.00    +0.007 C 
ATOM     39  C   UNL     1       0.105   0.383  -0.311  0.00  0.00    -0.015 C 
ATOM     40  C   UNL     1       0.830  -0.039   0.969  0.00  0.00    +0.007 C 
ENDBRANCH  37  39
ENDBRANCH  24  37
ENDBRANCH   1  24
TORSDOF 7
