REMARK  Name = ZINC04277862
REMARK  8 active torsions:
REMARK  status: ('A' for Active; 'I' for Inactive)
REMARK    1  A    between atoms: C_4  and  S_7
REMARK    2  A    between atoms: S_7  and  N_10
REMARK    3  A    between atoms: C_14  and  C_17
REMARK    4  A    between atoms: N_19  and  C_20
REMARK    5  A    between atoms: C_20  and  C_22
REMARK    6  A    between atoms: C_20  and  C_29
REMARK    7  A    between atoms: C_22  and  C_23
REMARK    8  A    between atoms: C_32  and  C_34
REMARK                            x       y       z     vdW  Elec       q    Type
REMARK                         _______ _______ _______ _____ _____    ______ ____
ROOT
ATOM      1  N   UNL     1       0.028   5.858  -3.159  0.00  0.00    -0.173 NA
ATOM      2  C   UNL     1      -0.774   7.010  -2.724  0.00  0.00    +0.128 C 
ATOM      3  C   UNL     1      -1.056   6.871  -1.222  0.00  0.00    +0.126 C 
ATOM      4  N   UNL     1       0.209   6.588  -0.531  0.00  0.00    -0.283 N 
ATOM      5  C   UNL     1       1.012   5.437  -0.966  0.00  0.00    +0.178 C 
ATOM      6  C   UNL     1       1.294   5.575  -2.467  0.00  0.00    +0.141 C 
ATOM      7  C   UNL     1       0.626   7.371   0.484  0.00  0.00    +0.254 C 
ATOM      8  O   UNL     1       1.612   7.060   1.127  0.00  0.00    -0.269 OA
ENDROOT
BRANCH   7   9
ATOM      9  C   UNL     1      -0.108   8.596   0.814  0.00  0.00    +0.074 A 
ATOM     10  C   UNL     1      -0.248   9.227   2.041  0.00  0.00    +0.021 A 
ATOM     11  C   UNL     1      -0.999  10.376   2.070  0.00  0.00    +0.008 A 
ATOM     12  C   UNL     1      -1.558  10.833   0.919  0.00  0.00    +0.046 A 
ATOM     13  S   UNL     1      -1.047   9.668  -0.259  0.00  0.00    -0.092 S 
ENDBRANCH   7   9
BRANCH   5  14
ATOM     14  C   UNL     1       2.314   5.412  -0.207  0.00  0.00    +0.235 C 
ATOM     15  O   UNL     1       3.016   6.401  -0.175  0.00  0.00    -0.274 OA
ATOM     16  N   UNL     1       2.698   4.292   0.436  0.00  0.00    -0.302 N 
ATOM     17  H   UNL     1       2.136   3.501   0.410  0.00  0.00    +0.150 HD
BRANCH  16  18
ATOM     18  C   UNL     1       3.963   4.268   1.173  0.00  0.00    +0.159 C 
BRANCH  18  19
ATOM     19  C   UNL     1       5.090   3.938   0.228  0.00  0.00    +0.231 C 
ATOM     20  O   UNL     1       4.858   3.743  -0.947  0.00  0.00    -0.274 OA
ATOM     21  N   UNL     1       6.354   3.861   0.687  0.00  0.00    -0.328 N 
ATOM     22  H   UNL     1       6.540   4.017   1.627  0.00  0.00    +0.145 HD
ATOM     23  H   UNL     1       7.080   3.649   0.079  0.00  0.00    +0.145 HD
ENDBRANCH  18  19
BRANCH  18  24
ATOM     24  C   UNL     1       3.893   3.205   2.272  0.00  0.00    +0.035 C 
BRANCH  24  25
ATOM     25  C   UNL     1       2.841   3.611   3.307  0.00  0.00    -0.009 C 
ATOM     26  C   UNL     1       2.668   2.484   4.327  0.00  0.00    +0.003 C 
ATOM     27  C   UNL     1       1.616   2.889   5.361  0.00  0.00    +0.000 C 
ATOM     28  C   UNL     1       2.070   4.162   6.079  0.00  0.00    +0.000 C 
ATOM     29  C   UNL     1       2.243   5.289   5.058  0.00  0.00    +0.000 C 
ATOM     30  C   UNL     1       3.295   4.883   4.024  0.00  0.00    +0.003 C 
ENDBRANCH  24  25
ENDBRANCH  18  24
ENDBRANCH  16  18
ENDBRANCH   5  14
BRANCH   1  31
ATOM     31  S   UNL     1      -0.484   4.896  -4.406  0.00  0.00    +0.061 S 
ATOM     32  O   UNL     1      -1.360   5.689  -5.196  0.00  0.00    -0.153 OA
ATOM     33  O   UNL     1       0.676   4.277  -4.944  0.00  0.00    -0.153 OA
BRANCH  31  37
ATOM     34  C   UNL     1      -2.998   1.592  -2.603  0.00  0.00    +0.000 A 
ATOM     35  C   UNL     1      -3.593   2.775  -3.000  0.00  0.00    +0.002 A 
ATOM     36  C   UNL     1      -2.825   3.784  -3.550  0.00  0.00    +0.028 A 
ATOM     37  C   UNL     1      -1.463   3.610  -3.704  0.00  0.00    +0.105 A 
ATOM     38  C   UNL     1      -0.869   2.425  -3.313  0.00  0.00    +0.028 A 
ATOM     39  C   UNL     1      -1.636   1.417  -2.758  0.00  0.00    +0.002 A 
ENDBRANCH  31  37
ENDBRANCH   1  31
TORSDOF 8
