REMARK  Name = ZINC12821486
REMARK  7 active torsions:
REMARK  status: ('A' for Active; 'I' for Inactive)
REMARK    1  A    between atoms: C_1  and  N_2
REMARK    2  A    between atoms: C_3  and  C_23
REMARK    3  A    between atoms: C_4  and  C_16
REMARK    4  A    between atoms: C_5  and  C_10
REMARK    5  A    between atoms: C_16  and  C_18
REMARK    6  A    between atoms: C_23  and  O_25
REMARK    7  A    between atoms: O_25  and  C_26
REMARK                            x       y       z     vdW  Elec       q    Type
REMARK                         _______ _______ _______ _____ _____    ______ ____
ROOT
ATOM      1  C   UNL     1       2.336   1.092  -0.480  0.00  0.00    +0.140 C 
ATOM      2  N   UNL     1       1.119   1.862  -0.211  0.00  0.00    -0.252 N 
ATOM      3  C   UNL     1       1.204   3.238  -0.202  0.00  0.00    +0.131 C 
ATOM      4  C   UNL     1       0.108   4.002   0.041  0.00  0.00    +0.056 C 
ATOM      5  C   UNL     1      -1.204   3.289   0.299  0.00  0.00    +0.141 C 
ATOM      6  N   UNL     1      -1.185   1.817   0.261  0.00  0.00    -0.288 N 
ATOM      7  C   UNL     1      -0.019   1.191   0.011  0.00  0.00    +0.307 C 
ATOM      8  O   UNL     1       0.001  -0.024  -0.017  0.00  0.00    -0.252 OA
ATOM      9  H   UNL     1      -1.997   1.308   0.415  0.00  0.00    +0.151 HD
ENDROOT
BRANCH   5  10
ATOM     10  C   UNL     1      -1.704   3.715   1.655  0.00  0.00    -0.023 A 
ATOM     11  C   UNL     1      -1.105   3.223   2.799  0.00  0.00    +0.006 A 
ATOM     12  C   UNL     1      -1.561   3.617   4.043  0.00  0.00    +0.000 A 
ATOM     13  C   UNL     1      -2.623   4.497   4.142  0.00  0.00    +0.000 A 
ATOM     14  C   UNL     1      -3.226   4.985   2.998  0.00  0.00    +0.000 A 
ATOM     15  C   UNL     1      -2.767   4.594   1.754  0.00  0.00    +0.006 A 
ENDBRANCH   5  10
BRANCH   4  16
ATOM     16  C   UNL     1       0.191   5.466   0.053  0.00  0.00    +0.228 C 
ATOM     17  O   UNL     1       0.828   6.033   0.923  0.00  0.00    -0.284 OA
BRANCH  16  18
ATOM     18  C   UNL     1      -0.493   6.247  -0.982  0.00  0.00    +0.174 A 
ATOM     19  C   UNL     1      -0.581   7.622  -1.036  0.00  0.00    +0.053 A 
ATOM     20  C   UNL     1      -1.319   7.930  -2.188  0.00  0.00    +0.042 A 
ATOM     21  C   UNL     1      -1.645   6.758  -2.779  0.00  0.00    +0.196 A 
ATOM     22  O   UNL     1      -1.142   5.750  -2.055  0.00  0.00    -0.460 OA
ENDBRANCH  16  18
ENDBRANCH   4  16
BRANCH   3  23
ATOM     23  C   UNL     1       2.507   3.891  -0.460  0.00  0.00    +0.354 C 
ATOM     24  O   UNL     1       2.574   5.100  -0.548  0.00  0.00    -0.244 OA
BRANCH  23  25
ATOM     25  O   UNL     1       3.620   3.144  -0.597  0.00  0.00    -0.464 OA
ATOM     26  C   UNL     1       4.863   3.851  -0.848  0.00  0.00    +0.280 C 
ENDBRANCH  23  25
ENDBRANCH   3  23
TORSDOF 5
