REMARK  Name = ZINC32650865
REMARK  8 active torsions:
REMARK  status: ('A' for Active; 'I' for Inactive)
REMARK    1  A    between atoms: C_1  and  C_2
REMARK    2  A    between atoms: C_2  and  C_3
REMARK    3  A    between atoms: C_6  and  C_22
REMARK    4  A    between atoms: N_8  and  C_21
REMARK    5  A    between atoms: C_10  and  N_12
REMARK    6  A    between atoms: N_12  and  C_13
REMARK    7  A    between atoms: C_15  and  C_20
REMARK    8  A    between atoms: C_18  and  C_19
REMARK                            x       y       z     vdW  Elec       q    Type
REMARK                         _______ _______ _______ _____ _____    ______ ____
ROOT
ATOM      1  C   UNL     1       3.891   0.042   1.115  0.00  0.00    +0.132 A 
ATOM      2  N   UNL     1       3.174   1.110   0.853  0.00  0.00    -0.229 NA
ATOM      3  C   UNL     1       1.933   0.993   0.361  0.00  0.00    +0.117 A 
ATOM      4  C   UNL     1       0.931   1.911  -0.018  0.00  0.00    +0.086 A 
ATOM      5  N   UNL     1      -0.107   1.246  -0.441  0.00  0.00    -0.174 NA
ATOM      6  N   UNL     1       0.151  -0.129  -0.366  0.00  0.00    -0.262 N 
ATOM      7  C   UNL     1       1.415  -0.294   0.131  0.00  0.00    +0.127 A 
ATOM      8  C   UNL     1       2.224  -1.401   0.428  0.00  0.00    +0.152 A 
ATOM      9  N   UNL     1       3.441  -1.184   0.913  0.00  0.00    -0.215 NA
ATOM     10  C   UNL     1      -0.770  -1.201  -0.751  0.00  0.00    +0.173 C 
ATOM     11  C   UNL     1       1.042   3.412   0.056  0.00  0.00    +0.070 C 
ENDROOT
BRANCH   1  13
ATOM     12  C   UNL     1       6.282   0.309   0.514  0.00  0.00    +0.012 C 
ATOM     13  C   UNL     1       5.281   0.222   1.668  0.00  0.00    +0.073 C 
ENDBRANCH   1  13
BRANCH   8  14
ATOM     14  N   UNL     1       1.763  -2.690   0.221  0.00  0.00    -0.297 N 
ATOM     15  H   UNL     1       0.718  -2.859  -0.080  0.00  0.00    +0.154 HD
BRANCH  14  16
ATOM     16  C   UNL     1       2.625  -3.777   0.394  0.00  0.00    +0.036 A 
ATOM     17  C   UNL     1       3.985  -3.563   0.584  0.00  0.00    +0.027 A 
ATOM     18  C   UNL     1       4.834  -4.639   0.754  0.00  0.00    -0.049 A 
ATOM     19  C   UNL     1       4.332  -5.927   0.736  0.00  0.00    +0.004 A 
ATOM     20  C   UNL     1       2.980  -6.143   0.547  0.00  0.00    +0.005 A 
ATOM     21  C   UNL     1       2.124  -5.072   0.382  0.00  0.00    -0.029 A 
ATOM     22  C   UNL     1       0.649  -5.308   0.183  0.00  0.00    +0.045 C 
ATOM     23  C   UNL     1       6.309  -4.408   0.960  0.00  0.00    +0.044 C 
ENDBRANCH  14  16
ENDBRANCH   8  14
TORSDOF 3
