REMARK  Name = ZINC57608404
REMARK  9 active torsions:
REMARK  status: ('A' for Active; 'I' for Inactive)
REMARK    1  A    between atoms: C_1  and  C_2
REMARK    2  A    between atoms: C_7  and  C_14
REMARK    3  A    between atoms: C_14  and  C_16
REMARK    4  A    between atoms: C_14  and  N_27
REMARK    5  A    between atoms: N_20  and  C_21
REMARK    6  A    between atoms: N_27  and  C_28
REMARK    7  A    between atoms: N_27  and  C_35
REMARK    8  A    between atoms: C_28  and  C_29
REMARK    9  A    between atoms: C_35  and  C_36
REMARK                            x       y       z     vdW  Elec       q    Type
REMARK                         _______ _______ _______ _____ _____    ______ ____
ROOT
ATOM      1  C   UNL     1       0.149  -6.681   0.903  0.00  0.00    +0.163 C 
ENDROOT
BRANCH   1   8
ATOM      2  C   UNL     1       1.012   1.219   1.581  0.00  0.00    +0.044 C 
ATOM      3  C   UNL     1       1.074  -0.285   1.513  0.00  0.00    -0.048 A 
ATOM      4  C   UNL     1       2.267  -0.937   1.797  0.00  0.00    +0.004 A 
ATOM      5  C   UNL     1       2.345  -2.300   1.741  0.00  0.00    +0.010 A 
ATOM      6  C   UNL     1       1.213  -3.045   1.394  0.00  0.00    -0.001 A 
ATOM      7  C   UNL     1       1.262  -4.507   1.325  0.00  0.00    +0.021 A 
ATOM      8  C   UNL     1       0.133  -5.177   0.984  0.00  0.00    +0.042 A 
ATOM      9  C   UNL     1      -1.056  -4.470   0.703  0.00  0.00    +0.254 A 
ATOM     10  O   UNL     1      -2.059  -5.091   0.399  0.00  0.00    -0.268 OA
ATOM     11  N   UNL     1      -1.110  -3.128   0.764  0.00  0.00    -0.322 N 
ATOM     12  H   UNL     1      -1.943  -2.673   0.566  0.00  0.00    +0.169 HD
ATOM     13  C   UNL     1       0.003  -2.388   1.105  0.00  0.00    +0.049 A 
ATOM     14  C   UNL     1      -0.054  -1.000   1.175  0.00  0.00    +0.029 A 
ENDBRANCH   1   8
BRANCH   1  15
ATOM     15  C   UNL     1      -1.078  -7.234   1.582  0.00  0.00    +0.173 A 
ATOM     16  N   UNL     1      -1.511  -6.931   2.781  0.00  0.00    -0.111 NA
ATOM     17  N   UNL     1      -2.585  -7.609   2.999  0.00  0.00    -0.023 NA
ATOM     18  N   UNL     1      -2.848  -8.337   1.970  0.00  0.00    -0.044 NA
ATOM     19  N   UNL     1      -1.944  -8.129   1.072  0.00  0.00    -0.224 N 
BRANCH  19  20
ATOM     20  C   UNL     1      -1.873  -8.753  -0.251  0.00  0.00    +0.111 C 
ATOM     21  C   UNL     1      -3.134  -8.408  -1.046  0.00  0.00    +0.027 C 
ATOM     22  C   UNL     1      -3.059  -9.060  -2.429  0.00  0.00    +0.002 C 
ATOM     23  C   UNL     1      -2.954 -10.579  -2.271  0.00  0.00    +0.000 C 
ATOM     24  C   UNL     1      -1.694 -10.923  -1.476  0.00  0.00    +0.002 C 
ATOM     25  C   UNL     1      -1.768 -10.271  -0.094  0.00  0.00    +0.027 C 
ENDBRANCH  19  20
ENDBRANCH   1  15
BRANCH   1  26
ATOM     26  N   UNL     1       1.352  -7.195   1.571  0.00  0.00    -0.282 NA
BRANCH  26  27
ATOM     27  C   UNL     1       1.736  -8.506   1.029  0.00  0.00    +0.122 C 
BRANCH  27  28
ATOM     28  C   UNL     1       3.154  -8.819   1.429  0.00  0.00    -0.015 A 
ATOM     29  C   UNL     1       4.218  -8.328   0.687  0.00  0.00    +0.008 A 
ATOM     30  C   UNL     1       5.506  -8.642   1.093  0.00  0.00    +0.020 A 
ATOM     31  C   UNL     1       5.686  -9.427   2.216  0.00  0.00    +0.111 A 
ATOM     32  N   UNL     1       4.651  -9.877   2.897  0.00  0.00    -0.263 NA
ATOM     33  C   UNL     1       3.412  -9.594   2.544  0.00  0.00    +0.115 A 
ENDBRANCH  27  28
ENDBRANCH  26  27
BRANCH  26  34
ATOM     34  C   UNL     1       1.158  -7.263   3.025  0.00  0.00    +0.117 C 
BRANCH  34  35
ATOM     35  C   UNL     1       1.361  -5.874   3.632  0.00  0.00    +0.132 C 
ATOM     36  C   UNL     1       1.527  -5.990   5.163  0.00  0.00    +0.035 C 
ATOM     37  C   UNL     1       0.736  -4.755   5.675  0.00  0.00    +0.031 C 
ATOM     38  C   UNL     1      -0.402  -4.679   4.625  0.00  0.00    +0.160 C 
ATOM     39  O   UNL     1       0.210  -5.060   3.380  0.00  0.00    -0.375 OA
ENDBRANCH  34  35
ENDBRANCH  26  34
ENDBRANCH   1  26
TORSDOF 8
