REMARK  Name = ZINC37205629
REMARK  8 active torsions:
REMARK  status: ('A' for Active; 'I' for Inactive)
REMARK    1  A    between atoms: C_1  and  C_2
REMARK    2  A    between atoms: C_4  and  C_20
REMARK    3  A    between atoms: C_6  and  O_8
REMARK    4  A    between atoms: O_8  and  C_9
REMARK    5  A    between atoms: C_9  and  C_10
REMARK    6  A    between atoms: C_10  and  S_11
REMARK    7  A    between atoms: S_11  and  C_12
REMARK    8  A    between atoms: C_17  and  N_18
REMARK                            x       y       z     vdW  Elec       q    Type
REMARK                         _______ _______ _______ _____ _____    ______ ____
ROOT
ATOM      1  C   UNL     1       0.065  -2.946   4.769  0.00  0.00    +0.115 C 
ENDROOT
BRANCH   1   2
ATOM      2  C   UNL     1       0.046  -2.005   3.563  0.00  0.00    +0.240 C 
BRANCH   2   3
ATOM      3  O   UNL     1       0.051  -2.775   2.359  0.00  0.00    -0.491 OA
BRANCH   3   9
ATOM      4  C   UNL     1      -0.018   1.503   0.010  0.00  0.00    +0.044 C 
ATOM      5  C   UNL     1       0.002  -0.004   0.002  0.00  0.00    -0.047 A 
ATOM      6  C   UNL     1       0.006  -0.688  -1.200  0.00  0.00    +0.007 A 
ATOM      7  C   UNL     1       0.025  -2.071  -1.210  0.00  0.00    -0.047 A 
ATOM      8  C   UNL     1       0.040  -2.772  -0.020  0.00  0.00    +0.049 A 
ATOM      9  C   UNL     1       0.036  -2.088   1.187  0.00  0.00    +0.121 A 
ATOM     10  C   UNL     1       0.023  -0.701   1.195  0.00  0.00    +0.049 A 
ATOM     11  C   UNL     1       0.029  -2.813  -2.522  0.00  0.00    +0.044 C 
ENDBRANCH   3   9
ENDBRANCH   2   3
ENDBRANCH   1   2
BRANCH   1  12
ATOM     12  S   UNL     1       0.059  -1.968   6.298  0.00  0.00    -0.120 S 
BRANCH  12  13
ATOM     13  C   UNL     1       0.081  -3.179   7.578  0.00  0.00    +0.029 A 
ATOM     14  C   UNL     1       0.104  -4.529   7.258  0.00  0.00    +0.017 A 
ATOM     15  C   UNL     1       0.121  -5.477   8.264  0.00  0.00    +0.016 A 
ATOM     16  C   UNL     1       0.117  -5.084   9.591  0.00  0.00    +0.020 A 
ATOM     17  C   UNL     1       0.095  -3.740   9.918  0.00  0.00    +0.039 A 
ATOM     18  C   UNL     1       0.082  -2.782   8.915  0.00  0.00    +0.039 A 
ATOM     19 BR   UNL     1       0.140  -6.387  10.960  0.00  0.00    -0.050 Br
BRANCH  18  20
ATOM     20  N   UNL     1       0.064  -1.421   9.244  0.00  0.00    -0.357 N 
ATOM     21  H   UNL     1       0.052  -0.753   8.542  0.00  0.00    +0.142 HD
ATOM     22  H   UNL     1       0.065  -1.147  10.175  0.00  0.00    +0.142 HD
ENDBRANCH  18  20
ENDBRANCH  12  13
ENDBRANCH   1  12
TORSDOF 6
