REMARK  Name = ZINC36502114
REMARK  11 active torsions:
REMARK  status: ('A' for Active; 'I' for Inactive)
REMARK    1  A    between atoms: C_1  and  C_2
REMARK    2  A    between atoms: C_2  and  C_3
REMARK    3  A    between atoms: C_3  and  C_4
REMARK    4  A    between atoms: C_4  and  N_5
REMARK    5  A    between atoms: C_6  and  C_8
REMARK    6  A    between atoms: C_8  and  C_10
REMARK    7  A    between atoms: C_8  and  N_18
REMARK    8  A    between atoms: N_18  and  C_19
REMARK    9  A    between atoms: C_19  and  C_20
REMARK   10  A    between atoms: C_25  and  C_27
REMARK   11  A    between atoms: C_27  and  C_28
REMARK                            x       y       z     vdW  Elec       q    Type
REMARK                         _______ _______ _______ _____ _____    ______ ____
ROOT
ATOM      1  N   UNL     1       2.117  -5.698  -4.088  0.00  0.00    -0.278 N 
ATOM      2  C   UNL     1       1.201  -6.157  -4.964  0.00  0.00    +0.221 C 
ATOM      3  O   UNL     1       0.688  -5.397  -5.758  0.00  0.00    -0.275 OA
ENDROOT
BRANCH   1   4
ATOM      4  C   UNL     1       2.493  -4.282  -4.095  0.00  0.00    +0.195 C 
BRANCH   4   5
ATOM      5  C   UNL     1       3.223  -3.963  -5.375  0.00  0.00    +0.018 A 
ATOM      6  C   UNL     1       4.292  -4.744  -5.774  0.00  0.00    +0.048 A 
ATOM      7  C   UNL     1       4.962  -4.451  -6.949  0.00  0.00    +0.020 A 
ATOM      8  C   UNL     1       4.563  -3.377  -7.723  0.00  0.00    +0.003 A 
ATOM      9  C   UNL     1       3.494  -2.596  -7.324  0.00  0.00    +0.020 A 
ATOM     10  C   UNL     1       2.820  -2.892  -6.153  0.00  0.00    +0.048 A 
ATOM     11 CL   UNL     1       1.473  -1.916  -5.656  0.00  0.00    -0.083 Cl
ATOM     12 CL   UNL     1       4.794  -6.092  -4.802  0.00  0.00    -0.083 Cl
ENDBRANCH   4   5
BRANCH   4  14
ATOM     13  N   UNL     1       4.344  -3.046  -3.016  0.00  0.00    -0.313 N 
ATOM     14  C   UNL     1       3.390  -3.994  -2.920  0.00  0.00    +0.238 C 
ATOM     15  O   UNL     1       3.255  -4.615  -1.887  0.00  0.00    -0.273 OA
ATOM     16  H   UNL     1       4.452  -2.550  -3.842  0.00  0.00    +0.149 HD
BRANCH  13  17
ATOM     17  C   UNL     1       5.216  -2.766  -1.873  0.00  0.00    +0.104 C 
BRANCH  17  18
ATOM     18  C   UNL     1       6.203  -1.657  -2.244  0.00  0.00    +0.018 C 
BRANCH  18  20
ATOM     19  C   UNL     1       8.100  -0.255  -1.421  0.00  0.00    +0.004 C 
ATOM     20  C   UNL     1       7.114  -1.365  -1.050  0.00  0.00    -0.002 C 
ENDBRANCH  18  20
ENDBRANCH  17  18
ENDBRANCH  13  17
ENDBRANCH   4  14
ENDBRANCH   1   4
BRANCH   1  21
ATOM     21  C   UNL     1       2.736  -6.615  -3.128  0.00  0.00    +0.183 C 
BRANCH  21  22
ATOM     22  C   UNL     1       1.814  -6.809  -1.952  0.00  0.00    +0.122 A 
ATOM     23  C   UNL     1       0.945  -7.823  -1.792  0.00  0.00    +0.046 A 
ATOM     24  C   UNL     1       0.290  -7.611  -0.557  0.00  0.00    +0.041 A 
ATOM     25  C   UNL     1       0.798  -6.480  -0.036  0.00  0.00    +0.195 A 
ATOM     26  O   UNL     1       1.725  -6.002  -0.882  0.00  0.00    -0.466 OA
ENDBRANCH  21  22
ENDBRANCH   1  21
BRANCH   2  27
ATOM     27  C   UNL     1       0.814  -7.613  -4.956  0.00  0.00    +0.131 C 
BRANCH  27  28
ATOM     28  C   UNL     1      -0.219  -7.864  -6.024  0.00  0.00    -0.035 A 
ATOM     29  C   UNL     1      -1.563  -7.738  -5.726  0.00  0.00    +0.008 A 
ATOM     30  C   UNL     1      -2.514  -7.967  -6.703  0.00  0.00    +0.050 A 
ATOM     31  C   UNL     1      -2.122  -8.325  -7.983  0.00  0.00    +0.166 A 
ATOM     32  C   UNL     1      -0.768  -8.452  -8.282  0.00  0.00    +0.166 A 
ATOM     33  C   UNL     1       0.180  -8.215  -7.300  0.00  0.00    +0.053 A 
ATOM     34  O   UNL     1      -0.643  -8.809  -9.594  0.00  0.00    -0.453 OA
ATOM     35  C   UNL     1      -1.940  -9.296  -9.985  0.00  0.00    +0.466 C 
ATOM     36  O   UNL     1      -2.845  -8.601  -9.107  0.00  0.00    -0.453 OA
ENDBRANCH  27  28
ENDBRANCH   2  27
TORSDOF 10
