REMARK  Name = ZINC09931546
REMARK  8 active torsions:
REMARK  status: ('A' for Active; 'I' for Inactive)
REMARK    1  A    between atoms: C_1  and  O_2
REMARK    2  A    between atoms: O_2  and  C_3
REMARK    3  A    between atoms: C_6  and  N_32
REMARK    4  A    between atoms: C_8  and  N_9
REMARK    5  A    between atoms: N_9  and  S_10
REMARK    6  A    between atoms: S_10  and  C_13
REMARK    7  A    between atoms: C_16  and  C_19
REMARK    8  A    between atoms: C_25  and  C_28
REMARK                            x       y       z     vdW  Elec       q    Type
REMARK                         _______ _______ _______ _____ _____    ______ ____
ROOT
ATOM      1  C   UNL     1       2.320   5.079   2.457  0.00  0.00    +0.109 A 
ATOM      2  C   UNL     1       1.333   4.261   2.978  0.00  0.00    +0.029 A 
ATOM      3  C   UNL     1       1.244   4.063   4.340  0.00  0.00    +0.015 A 
ATOM      4  C   UNL     1       2.146   4.699   5.194  0.00  0.00    +0.037 A 
ATOM      5  C   UNL     1       3.136   5.527   4.663  0.00  0.00    +0.015 A 
ATOM      6  C   UNL     1       3.217   5.712   3.298  0.00  0.00    +0.029 A 
ENDROOT
BRANCH   4   7
ATOM      7  C   UNL     1       2.053   4.497   6.656  0.00  0.00    +0.247 C 
ATOM      8  O   UNL     1       3.065   4.432   7.326  0.00  0.00    -0.270 OA
ATOM      9  N   UNL     1       0.846   4.386   7.245  0.00  0.00    -0.297 N 
ATOM     10  C   UNL     1      -0.387   4.588   6.471  0.00  0.00    +0.108 C 
ATOM     11  C   UNL     1      -1.246   5.640   7.178  0.00  0.00    +0.020 C 
ATOM     12  C   UNL     1      -1.478   5.212   8.629  0.00  0.00    +0.015 C 
ATOM     13  C   UNL     1      -0.135   5.118   9.356  0.00  0.00    +0.110 C 
ATOM     14  C   UNL     1       0.737   4.054   8.672  0.00  0.00    +0.120 C 
BRANCH  13  15
ATOM     15  C   UNL     1      -0.370   4.722  10.815  0.00  0.00    +0.394 C 
ATOM     16  F   UNL     1      -1.014   3.481  10.864  0.00  0.00    -0.170 F 
ATOM     17  F   UNL     1       0.858   4.637  11.479  0.00  0.00    -0.170 F 
ATOM     18  F   UNL     1      -1.170   5.687  11.437  0.00  0.00    -0.170 F 
ENDBRANCH  13  15
ENDBRANCH   4   7
BRANCH   1  19
ATOM     19  S   UNL     1       2.431   5.320   0.715  0.00  0.00    +0.072 S 
ATOM     20  O   UNL     1       3.092   6.562   0.518  0.00  0.00    -0.150 OA
ATOM     21  O   UNL     1       1.140   5.052   0.185  0.00  0.00    -0.150 OA
BRANCH  19  22
ATOM     22  N   UNL     1       3.439   4.148   0.121  0.00  0.00    -0.213 N 
ATOM     23  H   UNL     1       4.255   4.398  -0.340  0.00  0.00    +0.174 HD
BRANCH  22  29
ATOM     24  C   UNL     1       4.120   1.858   0.505  0.00  0.00    +0.142 A 
ATOM     25  C   UNL     1       3.793   0.522   0.668  0.00  0.00    +0.050 A 
ATOM     26  C   UNL     1       2.470   0.121   0.607  0.00  0.00    +0.036 A 
ATOM     27  C   UNL     1       1.471   1.052   0.394  0.00  0.00    +0.128 A 
ATOM     28  C   UNL     1       1.790   2.388   0.231  0.00  0.00    +0.061 A 
ATOM     29  C   UNL     1       3.114   2.796   0.286  0.00  0.00    +0.092 A 
BRANCH  27  30
ATOM     30  N   UNL     1       0.058   0.618   0.335  0.00  0.00    +0.056 N 
ATOM     31  O   UNL     1      -0.824   1.437   0.143  0.00  0.00    -0.126 OA
ATOM     32  O   UNL     1      -0.225  -0.558   0.479  0.00  0.00    -0.126 OA
ENDBRANCH  27  30
BRANCH  24  34
ATOM     33  C   UNL     1       6.398   1.235   0.787  0.00  0.00    +0.277 C 
ATOM     34  O   UNL     1       5.420   2.252   0.559  0.00  0.00    -0.493 OA
ENDBRANCH  24  34
ENDBRANCH  22  29
ENDBRANCH  19  22
ENDBRANCH   1  19
TORSDOF 7
