REMARK  Name = ZINC15150507
REMARK  7 active torsions:
REMARK  status: ('A' for Active; 'I' for Inactive)
REMARK    1  A    between atoms: C_1  and  C_2
REMARK    2  A    between atoms: C_4  and  C_26
REMARK    3  A    between atoms: C_5  and  N_9
REMARK    4  A    between atoms: N_9  and  C_10
REMARK    5  A    between atoms: C_10  and  N_12
REMARK    6  A    between atoms: N_12  and  N_13
REMARK    7  A    between atoms: C_14  and  C_16
REMARK                            x       y       z     vdW  Elec       q    Type
REMARK                         _______ _______ _______ _____ _____    ______ ____
ROOT
ATOM      1  N   UNL     1      -1.041   2.632  -0.665  0.00  0.00    -0.245 N 
ATOM      2  H   UNL     1      -1.753   2.339  -1.255  0.00  0.00    +0.172 HD
ENDROOT
BRANCH   1   3
ATOM      3  N   UNL     1      -1.257   3.701   0.214  0.00  0.00    -0.231 N 
ATOM      4  C   UNL     1      -2.453   4.323   0.239  0.00  0.00    +0.262 C 
ATOM      5  O   UNL     1      -3.345   3.955  -0.501  0.00  0.00    -0.269 OA
ATOM      6  H   UNL     1      -0.545   3.995   0.804  0.00  0.00    +0.173 HD
BRANCH   4   7
ATOM      7  C   UNL     1      -2.679   5.444   1.161  0.00  0.00    +0.063 A 
ATOM      8  C   UNL     1      -1.784   5.963   2.050  0.00  0.00    +0.096 A 
ATOM      9  N   UNL     1      -2.352   6.992   2.724  0.00  0.00    -0.360 N 
ATOM     10  H   UNL     1      -1.908   7.518   3.408  0.00  0.00    +0.165 HD
ATOM     11  C   UNL     1      -3.653   7.181   2.307  0.00  0.00    +0.047 A 
ATOM     12  C   UNL     1      -3.920   6.226   1.312  0.00  0.00    +0.012 A 
ATOM     13  C   UNL     1      -5.171   6.182   0.704  0.00  0.00    +0.011 A 
ATOM     14  C   UNL     1      -6.146   7.080   1.082  0.00  0.00    +0.001 A 
ATOM     15  C   UNL     1      -5.884   8.024   2.064  0.00  0.00    +0.002 A 
ATOM     16  C   UNL     1      -4.650   8.079   2.674  0.00  0.00    +0.026 A 
ENDBRANCH   4   7
ENDBRANCH   1   3
BRANCH   1  17
ATOM     17  C   UNL     1       0.154   2.011  -0.690  0.00  0.00    +0.151 C 
ATOM     18  S   UNL     1       0.418   0.704  -1.764  0.00  0.00    -0.017 S 
BRANCH  17  19
ATOM     19  N   UNL     1       1.145   2.422   0.126  0.00  0.00    -0.294 N 
ATOM     20  H   UNL     1       1.015   3.198   0.694  0.00  0.00    +0.154 HD
BRANCH  19  25
ATOM     21  C   UNL     1       6.074  -0.386   0.241  0.00  0.00    +0.044 C 
ATOM     22  C   UNL     1       4.765   0.360   0.211  0.00  0.00    -0.049 A 
ATOM     23  C   UNL     1       3.579  -0.318   0.426  0.00  0.00    +0.008 A 
ATOM     24  C   UNL     1       2.378   0.363   0.399  0.00  0.00    -0.028 A 
ATOM     25  C   UNL     1       2.361   1.730   0.155  0.00  0.00    +0.054 A 
ATOM     26  C   UNL     1       3.554   2.408  -0.066  0.00  0.00    +0.063 A 
ATOM     27  C   UNL     1       4.753   1.722  -0.031  0.00  0.00    +0.025 A 
ATOM     28 CL   UNL     1       3.538   4.116  -0.377  0.00  0.00    -0.082 Cl
ATOM     29  C   UNL     1       1.086  -0.377   0.634  0.00  0.00    +0.046 C 
ENDBRANCH  19  25
ENDBRANCH  17  19
ENDBRANCH   1  17
TORSDOF 5
