REMARK  Name = ZINC13146607
REMARK  7 active torsions:
REMARK  status: ('A' for Active; 'I' for Inactive)
REMARK    1  A    between atoms: C_3  and  C_9
REMARK    2  A    between atoms: C_9  and  O_10
REMARK    3  A    between atoms: O_10  and  N_11
REMARK    4  A    between atoms: N_16  and  O_17
REMARK    5  A    between atoms: O_17  and  C_18
REMARK    6  A    between atoms: C_18  and  C_19
REMARK    7  A    between atoms: C_22  and  C_25
REMARK                            x       y       z     vdW  Elec       q    Type
REMARK                         _______ _______ _______ _____ _____    ______ ____
ROOT
ATOM      1  N   UNL     1       5.492   6.443   0.219  0.00  0.00    -0.077 NA
ATOM      2  C   UNL     1       4.445   5.689   0.242  0.00  0.00    +0.232 C 
ATOM      3  N   UNL     1       3.185   6.257   0.261  0.00  0.00    -0.256 N 
ATOM      4  C   UNL     1       2.095   5.475   0.386  0.00  0.00    +0.328 C 
ATOM      5  O   UNL     1       2.222   4.280   0.575  0.00  0.00    -0.250 OA
ATOM      6  N   UNL     1       0.863   6.016   0.303  0.00  0.00    -0.178 N 
ATOM      7  H   UNL     1       3.085   7.219   0.184  0.00  0.00    +0.157 HD
ATOM      8  H   UNL     1       0.762   6.969   0.152  0.00  0.00    +0.184 HD
ENDROOT
BRANCH   1   9
ATOM      9  O   UNL     1       5.352   7.848   0.107  0.00  0.00    -0.388 OA
BRANCH   9  10
ATOM     10  C   UNL     1       6.591   8.548  -0.019  0.00  0.00    +0.299 C 
BRANCH  10  13
ATOM     11  C   UNL     1       4.797  11.870   0.018  0.00  0.00    +0.020 A 
ATOM     12  C   UNL     1       5.035  10.508   0.007  0.00  0.00    +0.010 A 
ATOM     13  C   UNL     1       6.332  10.033  -0.008  0.00  0.00    +0.011 A 
ATOM     14  C   UNL     1       7.394  10.920  -0.013  0.00  0.00    +0.049 A 
ATOM     15  C   UNL     1       7.157  12.282  -0.002  0.00  0.00    +0.040 A 
ATOM     16  C   UNL     1       5.858  12.757   0.014  0.00  0.00    +0.042 A 
ATOM     17 CL   UNL     1       5.559  14.467   0.027  0.00  0.00    -0.083 Cl
ATOM     18 CL   UNL     1       9.024  10.323  -0.031  0.00  0.00    -0.083 Cl
ENDBRANCH  10  13
ENDBRANCH   9  10
ENDBRANCH   1   9
BRANCH   6  19
ATOM     19  O   UNL     1      -0.282   5.194   0.435  0.00  0.00    -0.272 OA
BRANCH  19  20
ATOM     20  C   UNL     1      -1.520   5.899   0.325  0.00  0.00    +0.247 C 
BRANCH  20  21
ATOM     21  C   UNL     1      -2.665   4.932   0.480  0.00  0.00    +0.087 A 
ATOM     22  C   UNL     1      -3.183   4.301  -0.637  0.00  0.00    +0.065 A 
ATOM     23  C   UNL     1      -4.237   3.412  -0.482  0.00  0.00    +0.035 A 
ATOM     24  C   UNL     1      -4.731   3.190   0.794  0.00  0.00    +0.074 A 
ATOM     25  C   UNL     1      -4.163   3.858   1.862  0.00  0.00    +0.123 A 
ATOM     26  N   UNL     1      -3.158   4.692   1.679  0.00  0.00    -0.255 NA
ATOM     27 CL   UNL     1      -2.523   4.617  -2.211  0.00  0.00    -0.082 Cl
BRANCH  24  28
ATOM     28  C   UNL     1      -5.875   2.234   1.014  0.00  0.00    +0.419 C 
ATOM     29  F   UNL     1      -5.372   0.949   1.242  0.00  0.00    -0.166 F 
ATOM     30  F   UNL     1      -6.622   2.647   2.123  0.00  0.00    -0.166 F 
ATOM     31  F   UNL     1      -6.694   2.219  -0.120  0.00  0.00    -0.166 F 
ENDBRANCH  24  28
ENDBRANCH  20  21
ENDBRANCH  19  20
ENDBRANCH   6  19
TORSDOF 7
