REMARK  Name = ZINC39556851
REMARK  2 active torsions:
REMARK  status: ('A' for Active; 'I' for Inactive)
REMARK    1  A    between atoms: C_7  and  C_10
REMARK    2  A    between atoms: N_14  and  C_18
REMARK                            x       y       z     vdW  Elec       q    Type
REMARK                         _______ _______ _______ _____ _____    ______ ____
ROOT
ATOM      1  C   UNL     1       0.681  -3.126  -0.021  0.00  0.00    +0.034 C 
ATOM      2  C   UNL     1       1.167  -4.411  -0.136  0.00  0.00    +0.098 C 
ATOM      3  C   UNL     1       2.583  -4.836  -0.162  0.00  0.00    +0.273 C 
ATOM      4  O   UNL     1       3.564  -4.121  -0.086  0.00  0.00    -0.268 OA
ATOM      5  N   UNL     1       2.565  -6.179  -0.288  0.00  0.00    -0.189 N 
ATOM      6  C   UNL     1       1.294  -6.608  -0.340  0.00  0.00    +0.318 C 
ATOM      7  O   UNL     1       0.966  -7.773  -0.452  0.00  0.00    -0.251 OA
ATOM      8  N   UNL     1       0.431  -5.582  -0.246  0.00  0.00    -0.264 N 
ATOM      9  H   UNL     1      -0.536  -5.648  -0.256  0.00  0.00    +0.157 HD
ENDROOT
BRANCH   1  16
ATOM     10  C   UNL     1      -0.051   1.345  -0.144  0.00  0.00    +0.001 A 
ATOM     11  C   UNL     1       1.121   2.102  -0.245  0.00  0.00    +0.002 A 
ATOM     12  C   UNL     1       2.343   1.524  -0.300  0.00  0.00    +0.026 A 
ATOM     13  C   UNL     1       2.457   0.106  -0.254  0.00  0.00    +0.043 A 
ATOM     14  N   UNL     1       3.505  -0.684  -0.289  0.00  0.00    -0.380 N 
ATOM     15  C   UNL     1       3.064  -2.080  -0.209  0.00  0.00    +0.149 C 
ATOM     16  C   UNL     1       1.555  -2.037  -0.117  0.00  0.00    -0.017 C 
ATOM     17  C   UNL     1       1.217  -0.686  -0.146  0.00  0.00    +0.003 A 
ATOM     18  C   UNL     1      -0.022  -0.010  -0.095  0.00  0.00    +0.010 A 
ATOM     19  H   UNL     1       4.427  -0.390  -0.358  0.00  0.00    +0.160 HD
ENDBRANCH   1  16
BRANCH   5  20
ATOM     20  C   UNL     1       3.699  -7.001  -0.353  0.00  0.00    +0.046 A 
ATOM     21  C   UNL     1       4.968  -6.441  -0.283  0.00  0.00    +0.025 A 
ATOM     22  C   UNL     1       6.083  -7.253  -0.348  0.00  0.00    +0.022 A 
ATOM     23  C   UNL     1       5.937  -8.622  -0.483  0.00  0.00    +0.041 A 
ATOM     24  C   UNL     1       4.674  -9.182  -0.553  0.00  0.00    +0.022 A 
ATOM     25  C   UNL     1       3.555  -8.376  -0.483  0.00  0.00    +0.025 A 
ATOM     26 CL   UNL     1       7.342  -9.640  -0.565  0.00  0.00    -0.084 Cl
ENDBRANCH   5  20
TORSDOF 2
