REMARK  Name = ZINC36311934
REMARK  6 active torsions:
REMARK  status: ('A' for Active; 'I' for Inactive)
REMARK    1  A    between atoms: C_4  and  C_7
REMARK    2  A    between atoms: C_8  and  C_9
REMARK    3  A    between atoms: N_14  and  C_17
REMARK    4  A    between atoms: C_17  and  C_19
REMARK    5  A    between atoms: C_17  and  C_24
REMARK    6  A    between atoms: N_26  and  C_27
REMARK                            x       y       z     vdW  Elec       q    Type
REMARK                         _______ _______ _______ _____ _____    ______ ____
ROOT
ATOM      1  C   UNL     1       5.184  -8.460   1.427  0.00  0.00    +0.023 C 
ENDROOT
BRANCH   1   7
ATOM      2  C   UNL     1       6.487  -4.710  -2.251  0.00  0.00    +0.239 C 
ATOM      3  O   UNL     1       6.262  -4.918  -3.429  0.00  0.00    -0.271 OA
ATOM      4  N   UNL     1       5.767  -5.346  -1.305  0.00  0.00    -0.302 N 
ATOM      5  C   UNL     1       5.941  -5.025   0.120  0.00  0.00    +0.089 C 
ATOM      6  C   UNL     1       6.151  -6.333   0.890  0.00  0.00    -0.058 C 
ATOM      7  N   UNL     1       5.040  -7.251   0.606  0.00  0.00    +0.390 N 
ATOM      8  C   UNL     1       5.049  -7.623  -0.815  0.00  0.00    -0.058 C 
ATOM      9  C   UNL     1       4.780  -6.374  -1.669  0.00  0.00    +0.089 C 
ATOM     10  H   UNL     1       4.166  -6.798   0.828  0.00  0.00    -0.081 HD
BRANCH   2  12
ATOM     11  C   UNL     1       8.286  -3.165  -2.807  0.00  0.00    +0.013 C 
ATOM     12  C   UNL     1       7.539  -3.770  -1.861  0.00  0.00    +0.068 C 
BRANCH  11  16
ATOM     13  C   UNL     1      11.334  -0.439  -1.678  0.00  0.00    +0.000 A 
ATOM     14  C   UNL     1      11.110  -0.705  -3.017  0.00  0.00    +0.001 A 
ATOM     15  C   UNL     1      10.121  -1.590  -3.392  0.00  0.00    +0.008 A 
ATOM     16  C   UNL     1       9.344  -2.219  -2.415  0.00  0.00    -0.025 A 
ATOM     17  C   UNL     1       9.577  -1.945  -1.063  0.00  0.00    +0.008 A 
ATOM     18  C   UNL     1      10.569  -1.057  -0.705  0.00  0.00    +0.001 A 
ENDBRANCH  11  16
ENDBRANCH   2  12
ENDBRANCH   1   7
BRANCH   1  19
ATOM     19  C   UNL     1       4.103  -9.472   1.041  0.00  0.00    -0.016 C 
ATOM     20  C   UNL     1       2.705  -8.877   1.305  0.00  0.00    +0.002 C 
ATOM     21  C   UNL     1       1.871 -10.079   1.814  0.00  0.00    +0.000 C 
ATOM     22  C   UNL     1       2.887 -10.855   2.687  0.00  0.00    +0.000 C 
ATOM     23  C   UNL     1       4.219 -10.729   1.919  0.00  0.00    +0.002 C 
ENDBRANCH   1  19
BRANCH   1  24
ATOM     24  C   UNL     1       6.545  -9.066   1.195  0.00  0.00    +0.204 C 
ATOM     25  O   UNL     1       7.063  -8.992   0.101  0.00  0.00    -0.277 OA
ATOM     26  N   UNL     1       7.185  -9.690   2.203  0.00  0.00    -0.287 N 
ATOM     27  H   UNL     1       6.751  -9.791   3.065  0.00  0.00    +0.155 HD
BRANCH  26  28
ATOM     28  C   UNL     1       8.478 -10.193   2.007  0.00  0.00    +0.037 A 
ATOM     29  C   UNL     1       9.397  -9.473   1.256  0.00  0.00    +0.027 A 
ATOM     30  C   UNL     1      10.672  -9.967   1.062  0.00  0.00    +0.051 A 
ATOM     31  C   UNL     1      11.038 -11.183   1.615  0.00  0.00    +0.166 A 
ATOM     32  C   UNL     1      10.119 -11.908   2.370  0.00  0.00    +0.168 A 
ATOM     33  C   UNL     1       8.842 -11.409   2.568  0.00  0.00    +0.072 A 
ATOM     34  O   UNL     1      10.717 -13.058   2.799  0.00  0.00    -0.453 OA
ATOM     35  C   UNL     1      11.877 -13.224   1.962  0.00  0.00    +0.466 C 
ATOM     36  O   UNL     1      12.213 -11.879   1.572  0.00  0.00    -0.453 OA
ENDBRANCH  26  28
ENDBRANCH   1  24
TORSDOF 6
