REMARK  Name = ZINC16041162
REMARK  2 active torsions:
REMARK  status: ('A' for Active; 'I' for Inactive)
REMARK    1  A    between atoms: C_12  and  C_32
REMARK    2  A    between atoms: N_20  and  C_23
REMARK                            x       y       z     vdW  Elec       q    Type
REMARK                         _______ _______ _______ _____ _____    ______ ____
ROOT
ATOM      1  C   UNL     1      -0.090   1.260   0.042  0.00  0.00    +0.001 A 
ATOM      2  C   UNL     1       1.076   2.008   0.045  0.00  0.00    +0.002 A 
ATOM      3  C   UNL     1       2.310   1.380   0.033  0.00  0.00    +0.024 A 
ATOM      4  C   UNL     1       2.372   0.005   0.013  0.00  0.00    +0.038 A 
ATOM      5  C   UNL     1       1.190  -0.764  -0.005  0.00  0.00    -0.004 A 
ATOM      6  C   UNL     1      -0.041  -0.120   0.018  0.00  0.00    +0.010 A 
ATOM      7  C   UNL     1       1.302  -2.234  -0.072  0.00  0.00    +0.007 C 
ATOM      8  C   UNL     1       2.443  -2.847   0.233  0.00  0.00    -0.003 C 
ATOM      9  C   UNL     1       3.644  -2.047   0.657  0.00  0.00    +0.110 C 
ATOM     10  N   UNL     1       3.563  -0.718   0.023  0.00  0.00    -0.310 N 
ATOM     11  C   UNL     1       4.840  -0.389  -0.597  0.00  0.00    +0.172 C 
ATOM     12  C   UNL     1       5.844  -1.486  -0.214  0.00  0.00    +0.119 C 
ATOM     13  C   UNL     1       4.952  -2.700   0.195  0.00  0.00    +0.114 C 
ATOM     14  C   UNL     1       5.691  -3.214   1.422  0.00  0.00    +0.232 C 
ATOM     15  O   UNL     1       5.597  -4.328   1.891  0.00  0.00    -0.274 OA
ATOM     16  N   UNL     1       6.464  -2.225   1.895  0.00  0.00    -0.210 N 
ATOM     17  C   UNL     1       6.541  -1.138   1.083  0.00  0.00    +0.232 C 
ATOM     18  O   UNL     1       7.062  -0.076   1.347  0.00  0.00    -0.274 OA
ENDROOT
BRANCH  16  19
ATOM     19  C   UNL     1       7.147  -2.308   3.118  0.00  0.00    +0.048 A 
ATOM     20  C   UNL     1       8.030  -1.304   3.489  0.00  0.00    +0.028 A 
ATOM     21  C   UNL     1       8.703  -1.385   4.693  0.00  0.00    +0.051 A 
ATOM     22  C   UNL     1       8.498  -2.468   5.533  0.00  0.00    +0.166 A 
ATOM     23  C   UNL     1       7.613  -3.477   5.162  0.00  0.00    +0.168 A 
ATOM     24  C   UNL     1       6.935  -3.392   3.958  0.00  0.00    +0.073 A 
ATOM     25  O   UNL     1       7.589  -4.420   6.149  0.00  0.00    -0.453 OA
ATOM     26  C   UNL     1       8.771  -4.184   6.936  0.00  0.00    +0.466 C 
ATOM     27  O   UNL     1       9.028  -2.779   6.753  0.00  0.00    -0.453 OA
ENDBRANCH  16  19
BRANCH  11  28
ATOM     28  C   UNL     1       4.683  -0.340  -2.095  0.00  0.00    +0.232 C 
ATOM     29  O   UNL     1       3.729  -0.873  -2.622  0.00  0.00    -0.274 OA
ATOM     30  N   UNL     1       5.602   0.295  -2.849  0.00  0.00    -0.328 N 
ATOM     31  H   UNL     1       6.365   0.721  -2.427  0.00  0.00    +0.145 HD
ATOM     32  H   UNL     1       5.501   0.327  -3.813  0.00  0.00    +0.145 HD
ENDBRANCH  11  28
TORSDOF 2
