REMARK  Name = ZINC45677474
REMARK  6 active torsions:
REMARK  status: ('A' for Active; 'I' for Inactive)
REMARK    1  A    between atoms: C_1  and  C_2
REMARK    2  A    between atoms: C_5  and  C_7
REMARK    3  A    between atoms: C_7  and  N_8
REMARK    4  A    between atoms: N_11  and  C_12
REMARK    5  A    between atoms: C_12  and  C_14
REMARK    6  A    between atoms: C_12  and  C_15
REMARK                            x       y       z     vdW  Elec       q    Type
REMARK                         _______ _______ _______ _____ _____    ______ ____
ROOT
ATOM      1  C   UNL     1       2.345  -7.504  -3.219  0.00  0.00    +0.102 C 
ATOM      2  C   UNL     1       1.188  -8.505  -3.189  0.00  0.00    +0.033 C 
ENDROOT
BRANCH   1   3
ATOM      3  C   UNL     1       2.991  -7.524  -4.580  0.00  0.00    -0.027 A 
ATOM      4  C   UNL     1       2.415  -6.830  -5.628  0.00  0.00    +0.007 A 
ATOM      5  C   UNL     1       3.005  -6.846  -6.877  0.00  0.00    +0.024 A 
ATOM      6  C   UNL     1       4.179  -7.560  -7.079  0.00  0.00    +0.037 A 
ATOM      7  C   UNL     1       4.755  -8.256  -6.024  0.00  0.00    -0.025 A 
ATOM      8  C   UNL     1       4.163  -8.232  -4.777  0.00  0.00    +0.011 A 
ATOM      9  C   UNL     1       6.028  -9.030  -6.244  0.00  0.00    +0.046 C 
ATOM     10  C   UNL     1       6.039  -9.606  -7.660  0.00  0.00    +0.101 C 
ATOM     11  C   UNL     1       5.679  -8.534  -8.652  0.00  0.00    +0.218 C 
ATOM     12  O   UNL     1       6.203  -8.528  -9.746  0.00  0.00    -0.275 OA
ATOM     13  N   UNL     1       4.781  -7.580  -8.340  0.00  0.00    -0.285 N 
ATOM     14  H   UNL     1       4.551  -6.903  -8.995  0.00  0.00    +0.155 HD
ENDBRANCH   1   3
BRANCH   1  18
ATOM     15  N   UNL     1       1.210  -4.510  -1.412  0.00  0.00    -0.295 N 
ATOM     16  C   UNL     1       1.680  -5.747  -1.667  0.00  0.00    +0.300 C 
ATOM     17  O   UNL     1       1.965  -6.491  -0.749  0.00  0.00    -0.253 OA
ATOM     18  N   UNL     1       1.834  -6.159  -2.941  0.00  0.00    -0.293 N 
ATOM     19  H   UNL     1       0.983  -3.917  -2.144  0.00  0.00    +0.151 HD
ATOM     20  H   UNL     1       1.606  -5.566  -3.674  0.00  0.00    +0.151 HD
BRANCH  15  21
ATOM     21  C   UNL     1       1.043  -4.062  -0.027  0.00  0.00    +0.148 C 
BRANCH  21  26
ATOM     22  C   UNL     1      -0.018   1.503   0.010  0.00  0.00    +0.051 C 
ATOM     23  C   UNL     1       0.002  -0.004   0.002  0.00  0.00    -0.013 A 
ATOM     24  C   UNL     1      -1.039  -0.872   0.002  0.00  0.00    +0.011 A 
ATOM     25  C   UNL     1      -0.780  -2.230  -0.007  0.00  0.00    +0.013 A 
ATOM     26  C   UNL     1       0.507  -2.653  -0.016  0.00  0.00    +0.007 A 
ATOM     27  S   UNL     1       1.404  -1.109  -0.018  0.00  0.00    -0.097 S 
ENDBRANCH  21  26
ENDBRANCH  15  21
ENDBRANCH   1  18
TORSDOF 4
