REMARK  Name = ZINC67167501
REMARK  4 active torsions:
REMARK  status: ('A' for Active; 'I' for Inactive)
REMARK    1  A    between atoms: C_3  and  N_21
REMARK    2  A    between atoms: C_4  and  N_8
REMARK    3  A    between atoms: C_9  and  C_11
REMARK    4  A    between atoms: C_16  and  N_17
REMARK                            x       y       z     vdW  Elec       q    Type
REMARK                         _______ _______ _______ _____ _____    ______ ____
ROOT
ATOM      1  N   UNL     1       3.559  -0.739  -0.083  0.00  0.00    -0.278 N 
ATOM      2  C   UNL     1       3.648  -2.018   0.332  0.00  0.00    +0.251 C 
ATOM      3  O   UNL     1       2.642  -2.634   0.623  0.00  0.00    -0.270 OA
ATOM      4  H   UNL     1       4.352  -0.273  -0.394  0.00  0.00    +0.155 HD
ENDROOT
BRANCH   1   8
ATOM      5  C   UNL     1      -0.127   1.220  -0.034  0.00  0.00    +0.005 A 
ATOM      6  C   UNL     1       0.993   1.853   0.470  0.00  0.00    +0.025 A 
ATOM      7  C   UNL     1       2.221   1.208   0.457  0.00  0.00    +0.054 A 
ATOM      8  C   UNL     1       2.321  -0.081  -0.066  0.00  0.00    +0.091 A 
ATOM      9  C   UNL     1       1.191  -0.711  -0.571  0.00  0.00    +0.146 A 
ATOM     10  C   UNL     1      -0.030  -0.058  -0.553  0.00  0.00    +0.040 A 
ATOM     11  F   UNL     1       1.283  -1.959  -1.078  0.00  0.00    -0.203 F 
BRANCH   7  12
ATOM     12  N   UNL     1       3.356   1.848   0.966  0.00  0.00    -0.328 N 
ATOM     13  C   UNL     1       4.275   2.701   0.199  0.00  0.00    +0.105 C 
ATOM     14  C   UNL     1       5.386   3.163   1.165  0.00  0.00    +0.020 C 
ATOM     15  C   UNL     1       5.344   2.087   2.282  0.00  0.00    +0.020 C 
ATOM     16  C   UNL     1       3.824   1.784   2.362  0.00  0.00    +0.105 C 
ENDBRANCH   7  12
ENDBRANCH   1   8
BRANCH   2  17
ATOM     17  C   UNL     1       4.970  -2.672   0.432  0.00  0.00    +0.070 A 
ATOM     18  C   UNL     1       5.819  -2.711  -0.676  0.00  0.00    +0.053 A 
ATOM     19  C   UNL     1       7.053  -3.324  -0.575  0.00  0.00    +0.124 A 
ATOM     20  C   UNL     1       7.447  -3.899   0.623  0.00  0.00    +0.040 A 
ATOM     21  C   UNL     1       6.610  -3.863   1.723  0.00  0.00    +0.036 A 
ATOM     22  C   UNL     1       5.377  -3.248   1.636  0.00  0.00    +0.138 A 
ATOM     23  F   UNL     1       7.876  -3.363  -1.645  0.00  0.00    -0.205 F 
BRANCH  22  24
ATOM     24  N   UNL     1       4.486  -3.205   2.817  0.00  0.00    +0.057 N 
ATOM     25  O   UNL     1       4.783  -3.810   3.821  0.00  0.00    -0.126 OA
ATOM     26  O   UNL     1       3.460  -2.566   2.777  0.00  0.00    -0.126 OA
ENDBRANCH  22  24
ENDBRANCH   2  17
TORSDOF 4
