REMARK  Name = ZINC09168315
REMARK  10 active torsions:
REMARK  status: ('A' for Active; 'I' for Inactive)
REMARK    1  A    between atoms: C_1  and  C_2
REMARK    2  A    between atoms: C_7  and  S_8
REMARK    3  A    between atoms: S_8  and  N_11
REMARK    4  A    between atoms: N_11  and  C_12
REMARK    5  A    between atoms: C_20  and  C_28
REMARK    6  A    between atoms: C_20  and  C_29
REMARK    7  A    between atoms: N_23  and  C_24
REMARK    8  A    between atoms: C_24  and  C_25
REMARK    9  A    between atoms: C_25  and  C_26
REMARK   10  A    between atoms: C_25  and  C_27
REMARK                            x       y       z     vdW  Elec       q    Type
REMARK                         _______ _______ _______ _____ _____    ______ ____
ROOT
ATOM      1  C   UNL     1      -3.026   2.068   2.271  0.00  0.00    +0.052 A 
ATOM      2  C   UNL     1      -3.957   2.655   1.424  0.00  0.00    +0.026 A 
ATOM      3  C   UNL     1      -4.560   3.848   1.777  0.00  0.00    +0.029 A 
ATOM      4  C   UNL     1      -4.236   4.457   2.978  0.00  0.00    +0.078 A 
ATOM      5  C   UNL     1      -3.300   3.872   3.830  0.00  0.00    +0.144 A 
ATOM      6  C   UNL     1      -2.701   2.675   3.477  0.00  0.00    +0.072 A 
ATOM      7  O   UNL     1      -2.981   4.482   5.002  0.00  0.00    -0.489 OA
ATOM      8  C   UNL     1      -2.139   5.630   4.931  0.00  0.00    +0.244 C 
ATOM      9  C   UNL     1      -2.579   6.546   3.792  0.00  0.00    +0.076 C 
ATOM     10  C   UNL     1      -4.079   6.687   3.791  0.00  0.00    +0.229 C 
ATOM     11  O   UNL     1      -4.595   7.713   4.182  0.00  0.00    -0.275 OA
ATOM     12  N   UNL     1      -4.847   5.664   3.354  0.00  0.00    -0.267 N 
ATOM     13  C   UNL     1      -1.940   7.924   3.974  0.00  0.00    +0.024 C 
ATOM     14  C   UNL     1      -2.127   5.950   2.457  0.00  0.00    +0.024 C 
ENDROOT
BRANCH   1  15
ATOM     15  N   UNL     1      -2.418   0.861   1.911  0.00  0.00    -0.216 N 
ATOM     16  H   UNL     1      -2.348   0.141   2.558  0.00  0.00    +0.174 HD
BRANCH  15  17
ATOM     17  S   UNL     1      -1.819   0.659   0.380  0.00  0.00    +0.073 S 
ATOM     18  O   UNL     1      -2.838   1.083  -0.514  0.00  0.00    -0.150 OA
ATOM     19  O   UNL     1      -1.258  -0.645   0.332  0.00  0.00    -0.150 OA
BRANCH  17  26
ATOM     20  C   UNL     1       0.728   0.564   2.008  0.00  0.00    +0.046 C 
ATOM     21  C   UNL     1       0.645   1.666   0.984  0.00  0.00    -0.021 A 
ATOM     22  C   UNL     1       1.692   2.557   0.841  0.00  0.00    +0.043 A 
ATOM     23  C   UNL     1       1.616   3.569  -0.099  0.00  0.00    +0.124 A 
ATOM     24  C   UNL     1       0.490   3.689  -0.896  0.00  0.00    +0.040 A 
ATOM     25  C   UNL     1      -0.556   2.798  -0.752  0.00  0.00    +0.032 A 
ATOM     26  C   UNL     1      -0.481   1.790   0.192  0.00  0.00    +0.112 A 
ATOM     27  F   UNL     1       2.640   4.440  -0.240  0.00  0.00    -0.205 F 
ENDBRANCH  17  26
ENDBRANCH  15  17
ENDBRANCH   1  15
BRANCH  12  28
ATOM     28  C   UNL     1      -6.302   5.814   3.272  0.00  0.00    +0.116 C 
BRANCH  28  29
ATOM     29  C   UNL     1      -6.934   5.381   4.597  0.00  0.00    +0.001 C 
ATOM     30  C   UNL     1      -8.439   5.653   4.557  0.00  0.00    +0.009 C 
ATOM     31  C   UNL     1      -6.692   3.886   4.813  0.00  0.00    +0.009 C 
ENDBRANCH  28  29
ENDBRANCH  12  28
TORSDOF 5
