REMARK  Name = ZINC12843471
REMARK  9 active torsions:
REMARK  status: ('A' for Active; 'I' for Inactive)
REMARK    1  A    between atoms: C_1  and  C_2
REMARK    2  A    between atoms: C_5  and  C_7
REMARK    3  A    between atoms: C_8  and  C_9
REMARK    4  A    between atoms: C_11  and  S_14
REMARK    5  A    between atoms: S_14  and  C_15
REMARK    6  A    between atoms: C_15  and  C_17
REMARK    7  A    between atoms: C_15  and  C_18
REMARK    8  A    between atoms: N_20  and  C_21
REMARK    9  A    between atoms: C_22  and  C_31
REMARK                            x       y       z     vdW  Elec       q    Type
REMARK                         _______ _______ _______ _____ _____    ______ ____
ROOT
ATOM      1  C   UNL     1       6.424  -8.389  -0.074  0.00  0.00    +0.137 C 
ATOM      2  C   UNL     1       7.064  -7.927   1.236  0.00  0.00    +0.029 C 
ENDROOT
BRANCH   1   3
ATOM      3  C   UNL     1       6.579  -9.881  -0.211  0.00  0.00    +0.231 C 
ATOM      4  O   UNL     1       5.653 -10.615   0.062  0.00  0.00    -0.274 OA
ATOM      5  N   UNL     1       7.747 -10.401  -0.637  0.00  0.00    -0.278 N 
ATOM      6  H   UNL     1       8.488  -9.815  -0.856  0.00  0.00    +0.155 HD
BRANCH   5   7
ATOM      7  C   UNL     1       7.890 -11.776  -0.763  0.00  0.00    +0.090 A 
ATOM      8  C   UNL     1       9.006 -12.482  -1.176  0.00  0.00    +0.084 A 
ATOM      9  C   UNL     1       8.902 -13.933  -1.224  0.00  0.00    -0.018 A 
ATOM     10  C   UNL     1       7.694 -14.407  -0.853  0.00  0.00    -0.004 A 
ATOM     11  S   UNL     1       6.750 -12.966  -0.442  0.00  0.00    -0.077 S 
ATOM     12  C   UNL     1       7.246 -15.835  -0.807  0.00  0.00    +0.043 C 
ATOM     13  C   UNL     1       8.301 -16.669  -0.069  0.00  0.00    +0.005 C 
ATOM     14  C   UNL     1       9.324 -17.171  -1.084  0.00  0.00    +0.001 C 
ATOM     15  C   UNL     1       9.506 -16.145  -2.201  0.00  0.00    +0.005 C 
ATOM     16  C   UNL     1      10.053 -14.837  -1.639  0.00  0.00    +0.037 C 
BRANCH   8  17
ATOM     17  C   UNL     1      10.216 -11.810  -1.542  0.00  0.00    +0.102 C 
ATOM     18  N   UNL     1      11.177 -11.277  -1.833  0.00  0.00    -0.191 NA
ENDBRANCH   8  17
ENDBRANCH   5   7
ENDBRANCH   1   3
BRANCH   1  19
ATOM     19  S   UNL     1       4.661  -7.961  -0.070  0.00  0.00    -0.072 S 
BRANCH  19  22
ATOM     20  C   UNL     1       3.906  -4.159  -0.038  0.00  0.00    +0.150 A 
ATOM     21  N   UNL     1       3.557  -5.435  -0.049  0.00  0.00    -0.202 NA
ATOM     22  C   UNL     1       4.649  -6.199  -0.055  0.00  0.00    +0.210 A 
ATOM     23  N   UNL     1       5.716  -5.432  -0.049  0.00  0.00    -0.145 NA
ATOM     24  N   UNL     1       5.266  -4.102  -0.044  0.00  0.00    -0.258 N 
ATOM     25  H   UNL     1       5.815  -3.302  -0.043  0.00  0.00    +0.191 HD
BRANCH  20  27
ATOM     26  C   UNL     1       1.657  -3.215  -0.023  0.00  0.00    +0.050 C 
ATOM     27  C   UNL     1       2.993  -3.013  -0.028  0.00  0.00    +0.051 C 
BRANCH  26  32
ATOM     28  C   UNL     1      -0.018   1.503   0.010  0.00  0.00    +0.086 C 
ATOM     29  C   UNL     1       0.002  -0.004   0.002  0.00  0.00    +0.103 A 
ATOM     30  C   UNL     1      -1.085  -0.805   0.003  0.00  0.00    +0.045 A 
ATOM     31  C   UNL     1      -0.621  -2.132  -0.007  0.00  0.00    +0.049 A 
ATOM     32  C   UNL     1       0.745  -2.071  -0.013  0.00  0.00    +0.128 A 
ATOM     33  O   UNL     1       1.104  -0.771  -0.013  0.00  0.00    -0.461 OA
ENDBRANCH  26  32
ENDBRANCH  20  27
ENDBRANCH  19  22
ENDBRANCH   1  19
TORSDOF 7
