REMARK  Name = ZINC13469536
REMARK  9 active torsions:
REMARK  status: ('A' for Active; 'I' for Inactive)
REMARK    1  A    between atoms: C_1  and  C_2
REMARK    2  A    between atoms: C_2  and  C_3
REMARK    3  A    between atoms: C_5  and  S_23
REMARK    4  A    between atoms: C_7  and  C_22
REMARK    5  A    between atoms: C_8  and  N_9
REMARK    6  A    between atoms: C_10  and  C_12
REMARK    7  A    between atoms: C_12  and  C_13
REMARK    8  A    between atoms: C_13  and  C_20
REMARK    9  A    between atoms: S_23  and  C_24
REMARK                            x       y       z     vdW  Elec       q    Type
REMARK                         _______ _______ _______ _____ _____    ______ ____
ROOT
ATOM      1  N   UNL     1      -3.358   1.335  -2.318  0.00  0.00    -0.285 N 
ATOM      2  C   UNL     1      -2.096   0.929  -2.072  0.00  0.00    +0.218 C 
ATOM      3  O   UNL     1      -1.201   1.744  -1.993  0.00  0.00    -0.275 OA
ATOM      4  H   UNL     1      -4.066   0.681  -2.421  0.00  0.00    +0.155 HD
ENDROOT
BRANCH   1  10
ATOM      5  C   UNL     1      -4.300   3.188  -3.549  0.00  0.00    -0.025 A 
ATOM      6  C   UNL     1      -4.588   4.534  -3.651  0.00  0.00    +0.021 A 
ATOM      7  C   UNL     1      -4.214   5.404  -2.635  0.00  0.00    +0.023 A 
ATOM      8  C   UNL     1      -3.554   4.918  -1.513  0.00  0.00    +0.021 A 
ATOM      9  C   UNL     1      -3.271   3.572  -1.408  0.00  0.00    -0.028 A 
ATOM     10  C   UNL     1      -3.645   2.702  -2.425  0.00  0.00    +0.040 A 
ATOM     11  C   UNL     1      -2.555   3.045  -0.191  0.00  0.00    +0.046 C 
BRANCH   5  13
ATOM     12  C   UNL     1      -6.053   1.613  -4.319  0.00  0.00    +0.009 C 
ATOM     13  C   UNL     1      -4.701   2.245  -4.654  0.00  0.00    +0.033 C 
ENDBRANCH   5  13
BRANCH   7  14
ATOM     14  S   UNL     1      -4.576   7.123  -2.769  0.00  0.00    -0.010 S 
BRANCH  14  15
ATOM     15  C   UNL     1      -3.876   7.714  -1.208  0.00  0.00    +0.138 C 
ATOM     16  N   UNL     1      -3.436   8.085  -0.229  0.00  0.00    -0.183 NA
ENDBRANCH  14  15
ENDBRANCH   7  14
ENDBRANCH   1  10
BRANCH   2  17
ATOM     17  C   UNL     1      -1.797  -0.537  -1.896  0.00  0.00    +0.114 C 
BRANCH  17  18
ATOM     18  C   UNL     1      -0.340  -0.713  -1.464  0.00  0.00    +0.080 C 
ATOM     19  C   UNL     1      -0.158  -2.133  -0.896  0.00  0.00    +0.019 C 
ATOM     20  C   UNL     1      -0.028  -3.205  -1.995  0.00  0.00    +0.001 C 
ATOM     21  C   UNL     1      -0.994  -2.987  -3.128  0.00  0.00    +0.000 C 
ATOM     22  C   UNL     1      -0.280  -2.179  -4.232  0.00  0.00    +0.000 C 
ATOM     23  C   UNL     1      -0.235  -0.755  -3.935  0.00  0.00    +0.001 C 
ATOM     24  C   UNL     1       0.553  -0.447  -2.646  0.00  0.00    +0.019 C 
BRANCH  18  25
ATOM     25  C   UNL     1      -0.029   0.289  -0.383  0.00  0.00    +0.362 C 
ATOM     26  O   UNL     1       0.898   1.053  -0.515  0.00  0.00    -0.246 OA
ATOM     27  O   UNL     1      -0.781   0.334   0.728  0.00  0.00    -0.246 OA
ENDBRANCH  18  25
ENDBRANCH  17  18
ENDBRANCH   2  17
TORSDOF 7
