REMARK  Name = ZINC08586211
REMARK  14 active torsions:
REMARK  status: ('A' for Active; 'I' for Inactive)
REMARK    1  A    between atoms: C_1  and  C_2
REMARK    2  A    between atoms: C_2  and  C_3
REMARK    3  A    between atoms: C_2  and  C_4
REMARK    4  A    between atoms: C_4  and  C_6
REMARK    5  A    between atoms: C_4  and  N_66
REMARK    6  A    between atoms: N_10  and  C_11
REMARK    7  A    between atoms: C_11  and  C_12
REMARK    8  A    between atoms: C_18  and  C_19
REMARK    9  A    between atoms: C_18  and  N_66
REMARK   10  A    between atoms: C_19  and  C_20
REMARK   11  A    between atoms: C_20  and  O_21
REMARK   12  A    between atoms: C_22  and  C_23
REMARK   13  A    between atoms: C_22  and  N_66
REMARK   14  A    between atoms: C_32  and  O_33
REMARK                            x       y       z     vdW  Elec       q    Type
REMARK                         _______ _______ _______ _____ _____    ______ ____
ROOT
ATOM      1  N   UNL     1       3.240   3.067   0.337  0.00  0.00    +0.389 N 
ATOM      2  H   UNL     1       2.795   3.537   1.134  0.00  0.00    -0.080 HD
ENDROOT
BRANCH   1   3
ATOM      3  C   UNL     1       3.255   1.610   0.587  0.00  0.00    +0.006 C 
BRANCH   3   4
ATOM      4  C   UNL     1       1.860   1.162   0.939  0.00  0.00    +0.139 A 
ATOM      5  N   UNL     1       1.068   1.701   1.833  0.00  0.00    -0.115 NA
ATOM      6  N   UNL     1      -0.036   1.036   1.839  0.00  0.00    -0.023 NA
ATOM      7  N   UNL     1       0.030   0.091   0.968  0.00  0.00    -0.044 NA
ATOM      8  N   UNL     1       1.186   0.132   0.396  0.00  0.00    -0.226 N 
BRANCH   8   9
ATOM      9  C   UNL     1       1.670  -0.769  -0.652  0.00  0.00    +0.182 C 
BRANCH   9  10
ATOM     10  C   UNL     1       2.365  -1.947  -0.020  0.00  0.00    -0.026 A 
ATOM     11  C   UNL     1       3.723  -1.895   0.233  0.00  0.00    +0.005 A 
ATOM     12  C   UNL     1       4.360  -2.974   0.818  0.00  0.00    +0.000 A 
ATOM     13  C   UNL     1       3.640  -4.109   1.140  0.00  0.00    +0.000 A 
ATOM     14  C   UNL     1       2.283  -4.164   0.882  0.00  0.00    +0.000 A 
ATOM     15  C   UNL     1       1.646  -3.083   0.302  0.00  0.00    +0.005 A 
ENDBRANCH   9  10
ENDBRANCH   8   9
ENDBRANCH   3   4
BRANCH   3  17
ATOM     16  C   UNL     1       5.642   1.294   1.255  0.00  0.00    +0.006 C 
ATOM     17  C   UNL     1       4.197   1.314   1.756  0.00  0.00    -0.024 C 
ATOM     18  C   UNL     1       4.042   2.400   2.823  0.00  0.00    +0.006 C 
ENDBRANCH   3  17
ENDBRANCH   1   3
BRANCH   1  19
ATOM     19  C   UNL     1       2.465   3.361  -0.887  0.00  0.00    -0.075 C 
BRANCH  19  20
ATOM     20  C   UNL     1       0.975   3.324  -0.544  0.00  0.00    +0.009 C 
BRANCH  20  21
ATOM     21  C   UNL     1       0.162   3.796  -1.752  0.00  0.00    +0.154 C 
BRANCH  21  22
ATOM     22  O   UNL     1      -1.230   3.762  -1.431  0.00  0.00    -0.395 OA
ATOM     23  H   UNL     1      -1.807   4.049  -2.152  0.00  0.00    +0.209 HD
ENDBRANCH  21  22
ENDBRANCH  20  21
ENDBRANCH  19  20
ENDBRANCH   1  19
BRANCH   1  24
ATOM     24  C   UNL     1       4.622   3.570   0.193  0.00  0.00    -0.037 C 
BRANCH  24  25
ATOM     25  C   UNL     1       4.579   5.054  -0.062  0.00  0.00    -0.002 A 
ATOM     26  C   UNL     1       4.883   5.544  -1.299  0.00  0.00    +0.017 A 
ATOM     27  C   UNL     1       4.831   6.937  -1.496  0.00  0.00    +0.005 A 
ATOM     28  C   UNL     1       5.134   7.507  -2.744  0.00  0.00    +0.059 A 
ATOM     29  C   UNL     1       5.074   8.861  -2.903  0.00  0.00    +0.167 A 
ATOM     30  C   UNL     1       4.711   9.693  -1.830  0.00  0.00    +0.168 A 
ATOM     31  C   UNL     1       4.412   9.163  -0.607  0.00  0.00    +0.078 A 
ATOM     32  C   UNL     1       4.466   7.773  -0.412  0.00  0.00    +0.079 A 
ATOM     33  N   UNL     1       4.179   7.234   0.778  0.00  0.00    -0.213 NA
ATOM     34  C   UNL     1       4.221   5.932   0.966  0.00  0.00    +0.214 A 
ATOM     35  O   UNL     1       4.732  10.988  -2.263  0.00  0.00    -0.453 OA
ATOM     36  C   UNL     1       5.505  10.977  -3.477  0.00  0.00    +0.466 C 
ATOM     37  O   UNL     1       5.319   9.646  -3.994  0.00  0.00    -0.453 OA
BRANCH  34  38
ATOM     38  O   UNL     1       3.917   5.430   2.189  0.00  0.00    -0.492 OA
ATOM     39  H   UNL     1       4.660   5.425   2.808  0.00  0.00    +0.294 HD
ENDBRANCH  34  38
ENDBRANCH  24  25
ENDBRANCH   1  24
TORSDOF 12
