REMARK  Name = ZINC12054780
REMARK  9 active torsions:
REMARK  status: ('A' for Active; 'I' for Inactive)
REMARK    1  A    between atoms: C_1  and  O_2
REMARK    2  A    between atoms: O_2  and  C_3
REMARK    3  A    between atoms: C_8  and  C_9
REMARK    4  A    between atoms: C_9  and  C_10
REMARK    5  A    between atoms: C_10  and  N_11
REMARK    6  A    between atoms: C_12  and  C_14
REMARK    7  A    between atoms: C_22  and  C_23
REMARK    8  A    between atoms: C_22  and  N_65
REMARK    9  A    between atoms: C_26  and  C_29
REMARK                            x       y       z     vdW  Elec       q    Type
REMARK                         _______ _______ _______ _____ _____    ______ ____
ROOT
ATOM      1  C   UNL     1      -5.857   6.843   5.277  0.00  0.00    +0.082 C 
ATOM      2  C   UNL     1      -5.225   7.773   4.238  0.00  0.00    +0.020 C 
ATOM      3  C   UNL     1      -5.534   6.321   3.878  0.00  0.00    -0.021 C 
ATOM      4  C   UNL     1      -6.705   6.054   2.926  0.00  0.00    -0.011 C 
ATOM      5  C   UNL     1      -6.160   5.958   1.497  0.00  0.00    -0.078 C 
ATOM      6  C   UNL     1      -3.949   5.301   2.253  0.00  0.00    -0.078 C 
ATOM      7  C   UNL     1      -4.354   5.355   3.730  0.00  0.00    -0.011 C 
ATOM      8  N   UNL     1      -5.126   4.902   1.450  0.00  0.00    +0.382 N 
ATOM      9  H   UNL     1      -5.517   4.037   1.841  0.00  0.00    -0.081 HD
ENDROOT
BRANCH   1  11
ATOM     10  N   UNL     1      -5.225   6.804   7.668  0.00  0.00    -0.315 N 
ATOM     11  C   UNL     1      -4.985   6.375   6.413  0.00  0.00    +0.217 C 
ATOM     12  O   UNL     1      -4.068   5.611   6.199  0.00  0.00    -0.275 OA
ATOM     13  H   UNL     1      -5.959   7.415   7.839  0.00  0.00    +0.149 HD
BRANCH  10  14
ATOM     14  C   UNL     1      -4.378   6.349   8.773  0.00  0.00    +0.109 C 
BRANCH  14  15
ATOM     15  C   UNL     1      -4.861   6.980  10.080  0.00  0.00    +0.057 C 
BRANCH  15  21
ATOM     16  C   UNL     1      -2.797   7.165  11.491  0.00  0.00    +0.123 A 
ATOM     17  C   UNL     1      -1.998   6.734  12.541  0.00  0.00    +0.046 A 
ATOM     18  C   UNL     1      -2.388   5.651  13.304  0.00  0.00    +0.004 A 
ATOM     19  C   UNL     1      -3.575   4.998  13.025  0.00  0.00    +0.000 A 
ATOM     20  C   UNL     1      -4.375   5.428  11.982  0.00  0.00    +0.007 A 
ATOM     21  C   UNL     1      -3.989   6.512  11.216  0.00  0.00    -0.004 A 
BRANCH  16  23
ATOM     22  C   UNL     1      -1.173   8.851  11.076  0.00  0.00    +0.277 C 
ATOM     23  O   UNL     1      -2.413   8.227  10.736  0.00  0.00    -0.495 OA
ENDBRANCH  16  23
ENDBRANCH  15  21
ENDBRANCH  14  15
ENDBRANCH  10  14
ENDBRANCH   1  11
BRANCH   8  24
ATOM     24  C   UNL     1      -4.721   4.656   0.051  0.00  0.00    -0.043 C 
BRANCH  24  25
ATOM     25  C   UNL     1      -3.489   3.788   0.040  0.00  0.00    -0.064 A 
ATOM     26  C   UNL     1      -3.616   2.410   0.034  0.00  0.00    +0.002 A 
ATOM     27  C   UNL     1      -2.493   1.610   0.024  0.00  0.00    +0.012 A 
ATOM     28  C   UNL     1      -1.224   2.193   0.020  0.00  0.00    +0.017 A 
ATOM     29  C   UNL     1      -1.103   3.584   0.032  0.00  0.00    +0.012 A 
ATOM     30  C   UNL     1      -2.235   4.373   0.037  0.00  0.00    +0.002 A 
BRANCH  28  31
ATOM     31  C   UNL     1      -0.016   1.343   0.009  0.00  0.00    +0.135 A 
ATOM     32  C   UNL     1       1.270   1.783  -0.001  0.00  0.00    +0.050 A 
ATOM     33  C   UNL     1       2.091   0.638  -0.015  0.00  0.00    +0.042 A 
ATOM     34  C   UNL     1       1.275  -0.433  -0.012  0.00  0.00    +0.196 A 
ATOM     35  O   UNL     1       0.002  -0.004   0.002  0.00  0.00    -0.463 OA
ENDBRANCH  28  31
ENDBRANCH  24  25
ENDBRANCH   8  24
TORSDOF 8
