REMARK  Name = ZINC38597971
REMARK  9 active torsions:
REMARK  status: ('A' for Active; 'I' for Inactive)
REMARK    1  A    between atoms: C_1  and  C_2
REMARK    2  A    between atoms: C_5  and  N_35
REMARK    3  A    between atoms: C_7  and  N_8
REMARK    4  A    between atoms: C_9  and  C_11
REMARK    5  A    between atoms: N_13  and  C_14
REMARK    6  A    between atoms: C_14  and  C_15
REMARK    7  A    between atoms: C_15  and  C_17
REMARK    8  A    between atoms: C_15  and  N_22
REMARK    9  A    between atoms: N_25  and  C_28
REMARK                            x       y       z     vdW  Elec       q    Type
REMARK                         _______ _______ _______ _____ _____    ______ ____
ROOT
ATOM      1  C   UNL     1      -0.284  -0.916   8.472  0.00  0.00    +0.017 C 
ENDROOT
BRANCH   1   2
ATOM      2  N   UNL     1      -1.368  -1.904   8.373  0.00  0.00    +0.389 N 
ATOM      3  C   UNL     1      -2.659  -1.207   8.319  0.00  0.00    -0.059 C 
ATOM      4  C   UNL     1      -3.780  -2.229   8.102  0.00  0.00    +0.086 C 
ATOM      5  N   UNL     1      -3.687  -3.254   9.152  0.00  0.00    -0.333 N 
ATOM      6  C   UNL     1      -2.382  -3.891   9.386  0.00  0.00    +0.086 C 
ATOM      7  C   UNL     1      -1.327  -2.791   9.543  0.00  0.00    -0.059 C 
ATOM      8  H   UNL     1      -1.248  -2.451   7.534  0.00  0.00    -0.081 HD
BRANCH   5   9
ATOM      9  C   UNL     1      -4.808  -3.614   9.907  0.00  0.00    +0.030 A 
ATOM     10  C   UNL     1      -6.056  -3.096   9.589  0.00  0.00    +0.026 A 
ATOM     11  C   UNL     1      -7.162  -3.453  10.335  0.00  0.00    +0.040 A 
ATOM     12  C   UNL     1      -7.027  -4.328  11.400  0.00  0.00    +0.124 A 
ATOM     13  C   UNL     1      -5.783  -4.846  11.719  0.00  0.00    +0.040 A 
ATOM     14  C   UNL     1      -4.675  -4.495  10.972  0.00  0.00    +0.026 A 
ATOM     15  F   UNL     1      -8.110  -4.676  12.129  0.00  0.00    -0.205 F 
ENDBRANCH   5   9
ENDBRANCH   1   2
BRANCH   1  16
ATOM     16  C   UNL     1      -0.397  -0.175   9.779  0.00  0.00    +0.093 A 
ATOM     17  C   UNL     1       0.631   0.222  10.549  0.00  0.00    +0.043 A 
ATOM     18  C   UNL     1       0.074   0.875  11.672  0.00  0.00    +0.041 A 
ATOM     19  C   UNL     1      -1.262   0.837  11.522  0.00  0.00    +0.195 A 
ATOM     20  O   UNL     1      -1.542   0.205  10.370  0.00  0.00    -0.469 OA
ENDBRANCH   1  16
BRANCH   1  21
ATOM     21  C   UNL     1      -0.392   0.076   7.312  0.00  0.00    +0.097 C 
BRANCH  21  24
ATOM     22  C   UNL     1      -0.403   0.018   4.876  0.00  0.00    +0.299 C 
ATOM     23  O   UNL     1      -0.383   1.232   4.877  0.00  0.00    -0.265 OA
ATOM     24  N   UNL     1      -0.410  -0.656   6.043  0.00  0.00    -0.309 N 
ATOM     25  H   UNL     1      -0.426  -1.626   6.043  0.00  0.00    +0.149 HD
BRANCH  22  27
ATOM     26  N   UNL     1      -0.414  -0.053   2.416  0.00  0.00    -0.277 N 
ATOM     27  C   UNL     1      -0.421  -0.728   3.583  0.00  0.00    +0.303 C 
ATOM     28  O   UNL     1      -0.442  -1.941   3.582  0.00  0.00    -0.265 OA
ATOM     29  H   UNL     1      -0.324   0.912   2.414  0.00  0.00    +0.155 HD
BRANCH  26  36
ATOM     30  C   UNL     1      -1.805   1.211   0.280  0.00  0.00    +0.045 C 
ATOM     31  C   UNL     1      -1.209  -0.166   0.139  0.00  0.00    -0.029 A 
ATOM     32  C   UNL     1      -1.324  -0.850  -1.055  0.00  0.00    +0.007 A 
ATOM     33  C   UNL     1      -0.777  -2.114  -1.185  0.00  0.00    +0.033 A 
ATOM     34  C   UNL     1      -0.114  -2.696  -0.120  0.00  0.00    +0.128 A 
ATOM     35  C   UNL     1       0.005  -2.018   1.076  0.00  0.00    +0.056 A 
ATOM     36  C   UNL     1      -0.538  -0.746   1.208  0.00  0.00    +0.039 A 
BRANCH  34  37
ATOM     37  N   UNL     1       0.470  -4.049  -0.264  0.00  0.00    +0.056 N 
ATOM     38  O   UNL     1       0.366  -4.644  -1.311  0.00  0.00    -0.126 OA
ATOM     39  O   UNL     1       1.050  -4.559   0.666  0.00  0.00    -0.126 OA
ENDBRANCH  34  37
ENDBRANCH  26  36
ENDBRANCH  22  27
ENDBRANCH  21  24
ENDBRANCH   1  21
TORSDOF 8
