REMARK  Name = ZINC12597712
REMARK  8 active torsions:
REMARK  status: ('A' for Active; 'I' for Inactive)
REMARK    1  A    between atoms: C_1  and  C_2
REMARK    2  A    between atoms: C_2  and  C_3
REMARK    3  A    between atoms: C_8  and  N_9
REMARK    4  A    between atoms: C_12  and  C_17
REMARK    5  A    between atoms: C_17  and  N_18
REMARK    6  A    between atoms: N_18  and  C_19
REMARK    7  A    between atoms: C_19  and  C_21
REMARK    8  A    between atoms: C_19  and  C_22
REMARK                            x       y       z     vdW  Elec       q    Type
REMARK                         _______ _______ _______ _____ _____    ______ ____
ROOT
ATOM      1  N   UNL     1      -3.366   0.538  -3.380  0.00  0.00    -0.283 N 
ATOM      2  C   UNL     1      -2.357   1.298  -2.822  0.00  0.00    +0.224 A 
ATOM      3  N   UNL     1      -1.719   0.866  -1.736  0.00  0.00    -0.198 NA
ATOM      4  C   UNL     1      -0.758   1.596  -1.198  0.00  0.00    +0.150 A 
ATOM      5  N   UNL     1      -0.418   2.752  -1.742  0.00  0.00    -0.198 NA
ATOM      6  C   UNL     1      -1.048   3.188  -2.830  0.00  0.00    +0.217 A 
ATOM      7  N   UNL     1      -2.018   2.460  -3.371  0.00  0.00    -0.181 NA
ATOM      8  N   UNL     1      -0.693   4.395  -3.396  0.00  0.00    -0.327 N 
ATOM      9  H   UNL     1      -3.581  -0.466  -2.985  0.00  0.00    +0.155 HD
ATOM     10  H   UNL     1      -1.213   4.755  -4.296  0.00  0.00    +0.145 HD
ATOM     11  H   UNL     1       0.111   4.998  -2.948  0.00  0.00    +0.145 HD
ENDROOT
BRANCH   1  17
ATOM     12  C   UNL     1      -4.744   0.175  -5.329  0.00  0.00    -0.026 A 
ATOM     13  C   UNL     1      -5.483   0.678  -6.382  0.00  0.00    +0.005 A 
ATOM     14  C   UNL     1      -5.596   2.045  -6.559  0.00  0.00    +0.000 A 
ATOM     15  C   UNL     1      -4.970   2.913  -5.682  0.00  0.00    +0.002 A 
ATOM     16  C   UNL     1      -4.234   2.416  -4.625  0.00  0.00    +0.023 A 
ATOM     17  C   UNL     1      -4.114   1.044  -4.447  0.00  0.00    +0.037 A 
BRANCH  12  19
ATOM     18  C   UNL     1      -5.682  -1.790  -4.143  0.00  0.00    +0.009 C 
ATOM     19  C   UNL     1      -4.621  -1.315  -5.138  0.00  0.00    +0.033 C 
ENDBRANCH  12  19
ENDBRANCH   1  17
BRANCH   4  20
ATOM     20  C   UNL     1      -0.043   1.105   0.034  0.00  0.00    +0.158 C 
BRANCH  20  21
ATOM     21  N   UNL     1      -0.740   1.594   1.232  0.00  0.00    -0.302 NA
ATOM     22  H   UNL     1      -0.750   2.693   1.227  0.00  0.00    +0.123 HD
BRANCH  21  23
ATOM     23  C   UNL     1      -0.069   1.134   2.455  0.00  0.00    +0.088 C 
ATOM     24  C   UNL     1      -0.569  -0.266   2.816  0.00  0.00    +0.029 C 
BRANCH  23  25
ATOM     25  C   UNL     1      -0.378   2.084   3.584  0.00  0.00    +0.006 A 
ATOM     26  C   UNL     1       0.441   2.542   4.562  0.00  0.00    +0.013 A 
ATOM     27  C   UNL     1      -0.065   3.418   5.504  0.00  0.00    +0.008 A 
ATOM     28  C   UNL     1      -1.365   3.793   5.421  0.00  0.00    +0.045 A 
ATOM     29  S   UNL     1      -1.915   2.902   3.976  0.00  0.00    -0.100 S 
ENDBRANCH  23  25
ENDBRANCH  21  23
ENDBRANCH  20  21
ENDBRANCH   4  20
TORSDOF 6
