REMARK  Name = ZINC37443528
REMARK  8 active torsions:
REMARK  status: ('A' for Active; 'I' for Inactive)
REMARK    1  A    between atoms: C_1  and  C_2
REMARK    2  A    between atoms: C_5  and  C_8
REMARK    3  A    between atoms: C_8  and  N_9
REMARK    4  A    between atoms: C_18  and  C_19
REMARK    5  A    between atoms: C_18  and  C_20
REMARK    6  A    between atoms: N_22  and  C_23
REMARK    7  A    between atoms: C_28  and  C_33
REMARK    8  A    between atoms: C_30  and  C_32
REMARK                            x       y       z     vdW  Elec       q    Type
REMARK                         _______ _______ _______ _____ _____    ______ ____
ROOT
ATOM      1  N   UNL     1       1.360  -4.242   0.158  0.00  0.00    -0.276 N 
ATOM      2  C   UNL     1       1.986  -4.557  -1.001  0.00  0.00    +0.264 C 
ATOM      3  O   UNL     1       1.473  -4.344  -2.084  0.00  0.00    -0.268 OA
ATOM      4  C   UNL     1       3.315  -5.167  -0.880  0.00  0.00    +0.109 A 
ATOM      5  C   UNL     1       4.260  -5.431  -1.828  0.00  0.00    +0.079 A 
ATOM      6  C   UNL     1       5.361  -6.005  -1.176  0.00  0.00    +0.153 A 
ATOM      7  C   UNL     1       5.053  -6.085   0.182  0.00  0.00    +0.088 A 
ATOM      8  N   UNL     1       3.800  -5.582   0.358  0.00  0.00    -0.331 N 
ATOM      9  C   UNL     1       2.996  -5.460   1.578  0.00  0.00    +0.157 C 
ATOM     10  C   UNL     1       2.055  -4.259   1.440  0.00  0.00    +0.129 C 
ATOM     11  C   UNL     1       1.018  -4.311   2.564  0.00  0.00    +0.043 C 
ATOM     12  C   UNL     1       6.185  -6.661   0.808  0.00  0.00    +0.067 A 
ATOM     13  C   UNL     1       7.093  -6.902  -0.153  0.00  0.00    +0.198 A 
ATOM     14  O   UNL     1       6.601  -6.513  -1.342  0.00  0.00    -0.461 OA
ENDROOT
BRANCH  10  15
ATOM     15  C   UNL     1       2.854  -2.989   1.577  0.00  0.00    +0.238 C 
ATOM     16  O   UNL     1       2.952  -2.448   2.658  0.00  0.00    -0.273 OA
ATOM     17  N   UNL     1       3.460  -2.454   0.498  0.00  0.00    -0.310 N 
ATOM     18  H   UNL     1       3.323  -2.845  -0.379  0.00  0.00    +0.149 HD
BRANCH  17  19
ATOM     19  C   UNL     1       4.327  -1.283   0.651  0.00  0.00    +0.076 C 
ATOM     20  C   UNL     1       5.698  -1.727   1.166  0.00  0.00    +0.022 C 
ATOM     21  C   UNL     1       6.603  -0.504   1.325  0.00  0.00    +0.002 C 
ATOM     22  C   UNL     1       6.767   0.189  -0.029  0.00  0.00    +0.003 C 
ATOM     23  C   UNL     1       5.396   0.633  -0.544  0.00  0.00    -0.009 C 
ATOM     24  C   UNL     1       4.491  -0.590  -0.703  0.00  0.00    +0.009 C 
ATOM     25  C   UNL     1       3.120  -0.146  -1.218  0.00  0.00    +0.009 C 
ATOM     26  C   UNL     1       4.767   1.607   0.455  0.00  0.00    +0.008 C 
ENDBRANCH  17  19
ENDBRANCH  10  15
BRANCH   1  27
ATOM     27  C   UNL     1      -0.056  -3.868   0.122  0.00  0.00    +0.144 C 
BRANCH  27  32
ATOM     28  C   UNL     1      -0.536   1.754  -1.124  0.00  0.00    +0.044 C 
ATOM     29  C   UNL     1      -0.411   0.288  -0.799  0.00  0.00    -0.050 A 
ATOM     30  C   UNL     1      -0.379  -0.646  -1.818  0.00  0.00    +0.003 A 
ATOM     31  C   UNL     1      -0.265  -1.991  -1.520  0.00  0.00    +0.005 A 
ATOM     32  C   UNL     1      -0.180  -2.402  -0.203  0.00  0.00    -0.030 A 
ATOM     33  C   UNL     1      -0.211  -1.468   0.816  0.00  0.00    +0.005 A 
ATOM     34  C   UNL     1      -0.321  -0.123   0.518  0.00  0.00    +0.003 A 
ENDBRANCH  27  32
ENDBRANCH   1  27
TORSDOF 4
