REMARK  Name = ZINC59489342
REMARK  11 active torsions:
REMARK  status: ('A' for Active; 'I' for Inactive)
REMARK    1  A    between atoms: C_1  and  C_2
REMARK    2  A    between atoms: C_2  and  O_3
REMARK    3  A    between atoms: O_3  and  C_4
REMARK    4  A    between atoms: C_8  and  N_10
REMARK    5  A    between atoms: C_14  and  S_18
REMARK    6  A    between atoms: S_18  and  C_19
REMARK    7  A    between atoms: N_21  and  N_22
REMARK    8  A    between atoms: C_23  and  C_24
REMARK    9  A    between atoms: C_23  and  C_25
REMARK   10  A    between atoms: C_25  and  C_26
REMARK   11  A    between atoms: C_26  and  C_27
REMARK                            x       y       z     vdW  Elec       q    Type
REMARK                         _______ _______ _______ _____ _____    ______ ____
ROOT
ATOM      1  C   UNL     1       4.337  -8.172  -4.444  0.00  0.00    +0.146 C 
ATOM      2  N   UNL     1       3.026  -8.570  -4.353  0.00  0.00    -0.338 N 
ATOM      3  N   UNL     1       5.304  -9.019  -4.159  0.00  0.00    -0.259 N 
ATOM      4  H   UNL     1       2.314  -7.946  -4.563  0.00  0.00    +0.144 HD
ATOM      5  H   UNL     1       2.812  -9.475  -4.078  0.00  0.00    +0.144 HD
ATOM      6  H   UNL     1       6.230  -8.738  -4.224  0.00  0.00    +0.191 HD
ENDROOT
BRANCH   3   7
ATOM      7  N   UNL     1       4.995 -10.326  -3.762  0.00  0.00    -0.182 NA
ATOM      8  C   UNL     1       5.945 -11.159  -3.482  0.00  0.00    +0.036 C 
ATOM      9  C   UNL     1       7.384 -10.722  -3.582  0.00  0.00    +0.062 C 
BRANCH   8  10
ATOM     10  C   UNL     1       5.613 -12.565  -3.054  0.00  0.00    +0.057 C 
BRANCH  10  11
ATOM     11  C   UNL     1       6.125 -13.552  -4.105  0.00  0.00    +0.041 C 
BRANCH  11  12
ATOM     12  C   UNL     1       5.793 -14.958  -3.678  0.00  0.00    -0.043 A 
ATOM     13  C   UNL     1       6.686 -15.672  -2.900  0.00  0.00    +0.007 A 
ATOM     14  C   UNL     1       6.385 -16.962  -2.505  0.00  0.00    +0.050 A 
ATOM     15  C   UNL     1       5.188 -17.544  -2.889  0.00  0.00    +0.166 A 
ATOM     16  C   UNL     1       4.288 -16.825  -3.673  0.00  0.00    +0.166 A 
ATOM     17  C   UNL     1       4.593 -15.530  -4.060  0.00  0.00    +0.053 A 
ATOM     18  O   UNL     1       3.197 -17.608  -3.914  0.00  0.00    -0.453 OA
ATOM     19  C   UNL     1       3.615 -18.953  -3.615  0.00  0.00    +0.466 C 
ATOM     20  O   UNL     1       4.660 -18.777  -2.639  0.00  0.00    -0.453 OA
ENDBRANCH  11  12
ENDBRANCH  10  11
ENDBRANCH   8  10
ENDBRANCH   3   7
BRANCH   1  21
ATOM     21  S   UNL     1       4.726  -6.527  -4.944  0.00  0.00    -0.078 S 
BRANCH  21  26
ATOM     22  N   UNL     1       2.173  -4.224  -3.741  0.00  0.00    -0.209 N 
ATOM     23  C   UNL     1       2.629  -3.456  -4.738  0.00  0.00    +0.228 C 
ATOM     24  O   UNL     1       2.541  -2.248  -4.790  0.00  0.00    -0.275 OA
ATOM     25  C   UNL     1       3.271  -4.334  -5.790  0.00  0.00    +0.120 C 
ATOM     26  C   UNL     1       3.106  -5.758  -5.221  0.00  0.00    +0.149 C 
ATOM     27  C   UNL     1       2.393  -5.535  -3.905  0.00  0.00    +0.240 C 
ATOM     28  O   UNL     1       2.069  -6.404  -3.125  0.00  0.00    -0.274 OA
BRANCH  22  33
ATOM     29  C   UNL     1       1.487  -3.249  -0.257  0.00  0.00    +0.122 A 
ATOM     30  C   UNL     1       0.237  -2.660  -0.392  0.00  0.00    +0.046 A 
ATOM     31  C   UNL     1      -0.365  -2.592  -1.634  0.00  0.00    +0.005 A 
ATOM     32  C   UNL     1       0.275  -3.109  -2.744  0.00  0.00    +0.024 A 
ATOM     33  C   UNL     1       1.524  -3.699  -2.614  0.00  0.00    +0.047 A 
ATOM     34  C   UNL     1       2.133  -3.764  -1.369  0.00  0.00    +0.069 A 
BRANCH  29  35
ATOM     35  O   UNL     1       2.078  -3.316   0.965  0.00  0.00    -0.492 OA
BRANCH  35  37
ATOM     36  C   UNL     1       2.173  -2.932   3.349  0.00  0.00    +0.048 C 
ATOM     37  C   UNL     1       1.354  -2.765   2.067  0.00  0.00    +0.225 C 
ENDBRANCH  35  37
ENDBRANCH  29  35
ENDBRANCH  22  33
ENDBRANCH  21  26
ENDBRANCH   1  21
TORSDOF 9
