REMARK  Name = ZINC08345956
REMARK  4 active torsions:
REMARK  status: ('A' for Active; 'I' for Inactive)
REMARK    1  A    between atoms: C_4  and  C_7
REMARK    2  A    between atoms: C_10  and  C_17
REMARK    3  A    between atoms: C_17  and  C_19
REMARK    4  A    between atoms: C_24  and  O_25
REMARK                            x       y       z     vdW  Elec       q    Type
REMARK                         _______ _______ _______ _____ _____    ______ ____
ROOT
ATOM      1  C   UNL     1       3.668  -0.662   0.199  0.00  0.00    +0.074 A 
ATOM      2  C   UNL     1       3.858  -2.034   0.245  0.00  0.00    +0.093 A 
ATOM      3  C   UNL     1       2.971  -3.118   0.270  0.00  0.00    +0.043 A 
ATOM      4  C   UNL     1       3.490  -4.407   0.318  0.00  0.00    +0.044 A 
ATOM      5  C   UNL     1       4.945  -4.589   0.339  0.00  0.00    +0.145 A 
ATOM      6  N   UNL     1       5.737  -3.561   0.315  0.00  0.00    -0.172 NA
ATOM      7  N   UNL     1       5.233  -2.256   0.267  0.00  0.00    -0.208 N 
ATOM      8  C   UNL     1       5.846  -1.057   0.235  0.00  0.00    +0.179 A 
ATOM      9  S   UNL     1       7.540  -0.811   0.246  0.00  0.00    -0.011 S 
ATOM     10  N   UNL     1       4.920  -0.082   0.188  0.00  0.00    -0.332 N 
ATOM     11  H   UNL     1       5.103   0.871   0.155  0.00  0.00    +0.168 HD
ENDROOT
BRANCH   1  15
ATOM     12  C   UNL     1      -0.057   1.369   0.095  0.00  0.00    +0.000 A 
ATOM     13  C   UNL     1       0.143   0.343   1.002  0.00  0.00    +0.001 A 
ATOM     14  C   UNL     1       1.350  -0.322   1.042  0.00  0.00    +0.010 A 
ATOM     15  C   UNL     1       2.375   0.043   0.163  0.00  0.00    +0.000 A 
ATOM     16  C   UNL     1       2.165   1.081  -0.751  0.00  0.00    +0.010 A 
ATOM     17  C   UNL     1       0.953   1.736  -0.779  0.00  0.00    +0.001 A 
ENDBRANCH   1  15
BRANCH   4  18
ATOM     18  C   UNL     1       2.594  -5.570   0.346  0.00  0.00    +0.198 C 
ATOM     19  O   UNL     1       1.392  -5.415   0.225  0.00  0.00    -0.286 OA
BRANCH  18  20
ATOM     20  C   UNL     1       3.149  -6.925   0.521  0.00  0.00    +0.064 A 
ATOM     21  C   UNL     1       3.241  -7.793  -0.571  0.00  0.00    +0.015 A 
ATOM     22  C   UNL     1       3.761  -9.058  -0.401  0.00  0.00    +0.001 A 
ATOM     23  C   UNL     1       4.192  -9.474   0.849  0.00  0.00    +0.004 A 
ATOM     24  C   UNL     1       4.106  -8.627   1.936  0.00  0.00    +0.046 A 
ATOM     25  C   UNL     1       3.592  -7.348   1.782  0.00  0.00    +0.128 A 
BRANCH  25  26
ATOM     26  O   UNL     1       3.513  -6.513   2.848  0.00  0.00    -0.506 OA
ATOM     27  H   UNL     1       2.682  -6.578   3.338  0.00  0.00    +0.292 HD
ENDBRANCH  25  26
ENDBRANCH  18  20
ENDBRANCH   4  18
TORSDOF 4
