REMARK  Name = ZINC04950790
REMARK  7 active torsions:
REMARK  status: ('A' for Active; 'I' for Inactive)
REMARK    1  A    between atoms: C_3  and  O_28
REMARK    2  A    between atoms: C_6  and  C_7
REMARK    3  A    between atoms: C_10  and  S_12
REMARK    4  A    between atoms: S_12  and  C_13
REMARK    5  A    between atoms: C_13  and  C_14
REMARK    6  A    between atoms: N_16  and  C_17
REMARK    7  A    between atoms: C_18  and  C_26
REMARK                            x       y       z     vdW  Elec       q    Type
REMARK                         _______ _______ _______ _____ _____    ______ ____
ROOT
ATOM      1  C   UNL     1      -5.251  -3.594   0.037  0.00  0.00    +0.175 C 
ENDROOT
BRANCH   1   2
ATOM      2  C   UNL     1      -6.024  -4.888   0.043  0.00  0.00    +0.228 C 
ATOM      3  O   UNL     1      -5.434  -5.947   0.038  0.00  0.00    -0.275 OA
ATOM      4  N   UNL     1      -7.372  -4.867   0.052  0.00  0.00    -0.278 N 
ATOM      5  H   UNL     1      -7.844  -4.019   0.056  0.00  0.00    +0.155 HD
BRANCH   4   6
ATOM      6  C   UNL     1      -8.084  -6.058   0.057  0.00  0.00    +0.090 A 
ATOM      7  C   UNL     1      -9.459  -6.228   0.061  0.00  0.00    +0.084 A 
ATOM      8  C   UNL     1      -9.960  -7.591   0.065  0.00  0.00    -0.018 A 
ATOM      9  C   UNL     1      -8.993  -8.535   0.064  0.00  0.00    -0.004 A 
ATOM     10  S   UNL     1      -7.477  -7.624   0.051  0.00  0.00    -0.077 S 
ATOM     11  C   UNL     1      -9.186 -10.020   0.069  0.00  0.00    +0.043 C 
ATOM     12  C   UNL     1     -10.643 -10.315   0.456  0.00  0.00    +0.005 C 
ATOM     13  C   UNL     1     -11.568  -9.425  -0.380  0.00  0.00    +0.005 C 
ATOM     14  C   UNL     1     -11.434  -7.968   0.068  0.00  0.00    +0.037 C 
BRANCH   7  15
ATOM     15  C   UNL     1     -10.349  -5.106   0.062  0.00  0.00    +0.102 C 
ATOM     16  N   UNL     1     -11.055  -4.216   0.062  0.00  0.00    -0.191 NA
ENDBRANCH   7  15
ENDBRANCH   4   6
ENDBRANCH   1   2
BRANCH   1  17
ATOM     17  S   UNL     1      -3.473  -3.953   0.025  0.00  0.00    -0.056 S 
BRANCH  17  21
ATOM     18  C   UNL     1      -1.266  -0.762   0.011  0.00  0.00    +0.249 A 
ATOM     19  N   UNL     1      -2.474  -0.254   0.020  0.00  0.00    -0.106 NA
ATOM     20  N   UNL     1      -3.339  -1.206   0.025  0.00  0.00    -0.101 NA
ATOM     21  C   UNL     1      -2.716  -2.361   0.020  0.00  0.00    +0.278 A 
ATOM     22  O   UNL     1      -1.394  -2.107   0.005  0.00  0.00    -0.411 OA
BRANCH  18  28
ATOM     23  C   UNL     1      -0.017   1.392   0.010  0.00  0.00    +0.017 A 
ATOM     24  C   UNL     1       1.169   2.096   0.002  0.00  0.00    +0.046 A 
ATOM     25  C   UNL     1       2.380   1.418  -0.013  0.00  0.00    +0.117 A 
ATOM     26  C   UNL     1       2.404   0.029  -0.021  0.00  0.00    +0.046 A 
ATOM     27  C   UNL     1       1.223  -0.682  -0.013  0.00  0.00    +0.017 A 
ATOM     28  C   UNL     1       0.002  -0.004   0.002  0.00  0.00    +0.039 A 
BRANCH  25  29
ATOM     29  O   UNL     1       3.546   2.115  -0.022  0.00  0.00    -0.507 OA
ATOM     30  H   UNL     1       3.893   2.312   0.859  0.00  0.00    +0.292 HD
ENDBRANCH  25  29
ENDBRANCH  18  28
ENDBRANCH  17  21
ENDBRANCH   1  17
TORSDOF 7
