REMARK  Name = ZINC21337455
REMARK  4 active torsions:
REMARK  status: ('A' for Active; 'I' for Inactive)
REMARK    1  A    between atoms: C_6  and  N_7
REMARK    2  A    between atoms: C_8  and  N_9
REMARK    3  A    between atoms: N_9  and  C_10
REMARK    4  A    between atoms: C_16  and  N_25
REMARK                            x       y       z     vdW  Elec       q    Type
REMARK                         _______ _______ _______ _____ _____    ______ ____
ROOT
ATOM      1  N   UNL     1      -3.269   7.294  -0.169  0.00  0.00    -0.254 N 
ATOM      2  C   UNL     1      -3.049   6.119  -0.839  0.00  0.00    +0.098 C 
ATOM      3  C   UNL     1      -4.156   5.146  -0.493  0.00  0.00    +0.054 C 
ATOM      4  C   UNL     1      -5.040   5.936   0.486  0.00  0.00    +0.057 C 
ATOM      5  C   UNL     1      -4.367   7.281   0.600  0.00  0.00    +0.073 C 
ATOM      6  S   UNL     1      -4.882   8.499   1.498  0.00  0.00    -0.038 S 
ATOM      7  C   UNL     1      -6.445   6.088  -0.086  0.00  0.00    +0.019 C 
ATOM      8  C   UNL     1      -7.093   4.708  -0.228  0.00  0.00    +0.001 C 
ATOM      9  C   UNL     1      -7.153   4.031   1.143  0.00  0.00    +0.000 C 
ATOM     10  C   UNL     1      -5.735   3.865   1.694  0.00  0.00    +0.001 C 
ATOM     11  C   UNL     1      -5.083   5.242   1.843  0.00  0.00    +0.019 C 
ENDROOT
BRANCH   1  17
ATOM     12  C   UNL     1      -1.365   8.565   0.607  0.00  0.00    +0.026 A 
ATOM     13  C   UNL     1      -0.530   9.659   0.495  0.00  0.00    +0.040 A 
ATOM     14  C   UNL     1      -0.756  10.605  -0.491  0.00  0.00    +0.124 A 
ATOM     15  C   UNL     1      -1.815  10.453  -1.370  0.00  0.00    +0.040 A 
ATOM     16  C   UNL     1      -2.649   9.357  -1.265  0.00  0.00    +0.026 A 
ATOM     17  C   UNL     1      -2.424   8.407  -0.277  0.00  0.00    +0.040 A 
ATOM     18  F   UNL     1       0.059  11.678  -0.595  0.00  0.00    -0.205 F 
ENDBRANCH   1  17
BRANCH   3  19
ATOM     19  N   UNL     1      -4.915   4.777  -1.696  0.00  0.00    -0.330 N 
ATOM     20  C   UNL     1      -4.578   3.417  -2.134  0.00  0.00    +0.105 C 
ATOM     21  C   UNL     1      -5.488   3.013  -3.296  0.00  0.00    +0.019 C 
ATOM     22  C   UNL     1      -5.302   4.002  -4.450  0.00  0.00    +0.003 C 
ATOM     23  C   UNL     1      -5.612   5.417  -3.955  0.00  0.00    +0.019 C 
ATOM     24  C   UNL     1      -4.699   5.751  -2.773  0.00  0.00    +0.105 C 
ENDBRANCH   3  19
BRANCH   2  25
ATOM     25  N   UNL     1      -2.062   5.883  -1.639  0.00  0.00    -0.390 NA
ATOM     26  H   UNL     1      -2.235   6.397  -2.596  0.00  0.00    +0.125 HD
ATOM     27  H   UNL     1      -1.129   6.250  -1.188  0.00  0.00    +0.125 HD
BRANCH  25  28
ATOM     28  C   UNL     1      -1.750   4.506  -2.029  0.00  0.00    +0.054 C 
ATOM     29  C   UNL     1      -1.706   4.405  -3.555  0.00  0.00    +0.021 C 
ATOM     30  C   UNL     1      -1.380   2.967  -3.963  0.00  0.00    +0.002 C 
ATOM     31  C   UNL     1      -0.019   2.571  -3.387  0.00  0.00    +0.000 C 
ATOM     32  C   UNL     1      -0.062   2.671  -1.861  0.00  0.00    +0.002 C 
ATOM     33  C   UNL     1      -0.389   4.109  -1.453  0.00  0.00    +0.021 C 
ENDBRANCH  25  28
ENDBRANCH   2  25
TORSDOF 4
