REMARK  Name = ZINC01754989
REMARK  5 active torsions:
REMARK  status: ('A' for Active; 'I' for Inactive)
REMARK    1  A    between atoms: C_1  and  C_2
REMARK    2  A    between atoms: C_5  and  N_8
REMARK    3  A    between atoms: C_15  and  C_22
REMARK    4  A    between atoms: C_18  and  C_20
REMARK    5  A    between atoms: C_18  and  C_21
REMARK                            x       y       z     vdW  Elec       q    Type
REMARK                         _______ _______ _______ _____ _____    ______ ____
ROOT
ATOM      1  N   UNL     1       0.334  -4.132  -0.125  0.00  0.00    -0.214 N 
ATOM      2  C   UNL     1       0.306  -4.886  -1.232  0.00  0.00    +0.153 C 
ATOM      3  S   UNL     1       0.293  -4.255  -2.824  0.00  0.00    -0.017 S 
ATOM      4  N   UNL     1       0.289  -6.200  -0.939  0.00  0.00    -0.306 N 
ATOM      5  C   UNL     1       0.309  -6.305   0.525  0.00  0.00    +0.101 C 
ATOM      6  N   UNL     1       0.344  -4.911   0.998  0.00  0.00    -0.211 NA
ATOM      7  C   UNL     1      -0.950  -7.009   1.024  0.00  0.00    +0.046 C 
ATOM      8  C   UNL     1      -0.924  -7.084   2.552  0.00  0.00    -0.010 C 
ATOM      9  C   UNL     1       0.320  -7.852   3.003  0.00  0.00    +0.010 C 
ATOM     10  C   UNL     1       1.574  -7.123   2.516  0.00  0.00    -0.031 C 
ATOM     11  C   UNL     1       1.558  -7.049   0.987  0.00  0.00    +0.049 C 
ATOM     12  C   UNL     1       1.600  -5.708   3.096  0.00  0.00    +0.011 C 
ATOM     13  C   UNL     1       2.818  -7.886   2.976  0.00  0.00    +0.011 C 
ATOM     14  C   UNL     1      -2.178  -7.806   3.048  0.00  0.00    +0.007 C 
ATOM     15  H   UNL     1       0.268  -6.934  -1.572  0.00  0.00    +0.150 HD
ATOM     16  H   UNL     1      -0.452  -4.710   1.585  0.00  0.00    +0.147 HD
ENDROOT
BRANCH   1  21
ATOM     17  C   UNL     1       0.427   1.540  -0.102  0.00  0.00    +0.044 C 
ATOM     18  C   UNL     1       0.402   0.033  -0.108  0.00  0.00    -0.050 A 
ATOM     19  C   UNL     1       1.301  -0.674   0.669  0.00  0.00    +0.005 A 
ATOM     20  C   UNL     1       1.281  -2.055   0.666  0.00  0.00    +0.025 A 
ATOM     21  C   UNL     1       0.357  -2.733  -0.119  0.00  0.00    +0.052 A 
ATOM     22  C   UNL     1      -0.545  -2.019  -0.898  0.00  0.00    +0.025 A 
ATOM     23  C   UNL     1      -0.523  -0.638  -0.886  0.00  0.00    +0.005 A 
ENDBRANCH   1  21
TORSDOF 1
