REMARK  Name = ZINC08970422
REMARK  5 active torsions:
REMARK  status: ('A' for Active; 'I' for Inactive)
REMARK    1  A    between atoms: C_3  and  C_10
REMARK    2  A    between atoms: C_5  and  N_7
REMARK    3  A    between atoms: N_14  and  C_15
REMARK    4  A    between atoms: C_15  and  N_17
REMARK    5  A    between atoms: C_18  and  C_20
REMARK                            x       y       z     vdW  Elec       q    Type
REMARK                         _______ _______ _______ _____ _____    ______ ____
ROOT
ATOM      1  C   UNL     1       3.640   2.143  -0.003  0.00  0.00    +0.055 A 
ATOM      2  C   UNL     1       4.943   1.454  -0.026  0.00  0.00    +0.074 A 
ATOM      3  S   UNL     1       6.040   2.729  -0.036  0.00  0.00    -0.060 S 
ATOM      4  C   UNL     1       4.891   4.090  -0.013  0.00  0.00    +0.162 A 
ATOM      5  N   UNL     1       5.153   5.381  -0.012  0.00  0.00    -0.169 NA
ATOM      6  N   UNL     1       3.667   3.471  -0.003  0.00  0.00    -0.335 N 
ATOM      7  H   UNL     1       2.845   3.987   0.007  0.00  0.00    +0.168 HD
ENDROOT
BRANCH   1  10
ATOM      8  C   UNL     1      -0.018   1.385   0.040  0.00  0.00    +0.003 A 
ATOM      9  C   UNL     1       1.153   2.089   0.027  0.00  0.00    +0.010 A 
ATOM     10  C   UNL     1       2.381   1.401   0.011  0.00  0.00    +0.001 A 
ATOM     11  C   UNL     1       2.388  -0.008   0.010  0.00  0.00    +0.042 A 
ATOM     12  C   UNL     1       1.205  -0.691   0.024  0.00  0.00    +0.127 A 
ATOM     13  C   UNL     1       0.000  -0.002   0.039  0.00  0.00    +0.033 A 
BRANCH  12  14
ATOM     14  N   UNL     1       1.209  -2.171   0.022  0.00  0.00    +0.056 N 
ATOM     15  O   UNL     1       2.351  -2.827   0.008  0.00  0.00    -0.126 OA
ATOM     16  O   UNL     1       0.070  -2.832   0.035  0.00  0.00    -0.126 OA
ENDBRANCH  12  14
ENDBRANCH   1  10
BRANCH   5  17
ATOM     17  C   UNL     1       6.423   5.809   0.078  0.00  0.00    +0.163 C 
ATOM     18  S   UNL     1       7.710   4.680   0.052  0.00  0.00    -0.016 S 
BRANCH  17  19
ATOM     19  N   UNL     1       6.685   7.126   0.187  0.00  0.00    -0.262 N 
ATOM     20  C   UNL     1       7.960   7.555   0.277  0.00  0.00    +0.250 C 
ATOM     21  O   UNL     1       8.873   6.753   0.259  0.00  0.00    -0.270 OA
ATOM     22  H   UNL     1       5.956   7.766   0.202  0.00  0.00    +0.157 HD
BRANCH  20  23
ATOM     23  C   UNL     1       8.247   9.000   0.397  0.00  0.00    +0.040 A 
ATOM     24  C   UNL     1       7.199   9.923   0.424  0.00  0.00    +0.013 A 
ATOM     25  C   UNL     1       7.473  11.270   0.537  0.00  0.00    +0.004 A 
ATOM     26  C   UNL     1       8.782  11.709   0.624  0.00  0.00    +0.038 A 
ATOM     27  C   UNL     1       9.827  10.800   0.598  0.00  0.00    +0.124 A 
ATOM     28  C   UNL     1       9.566   9.447   0.490  0.00  0.00    +0.051 A 
ATOM     29  F   UNL     1      11.103  11.236   0.682  0.00  0.00    -0.205 F 
ENDBRANCH  20  23
ENDBRANCH  17  19
ENDBRANCH   5  17
TORSDOF 5
