REMARK  Name = ZINC05082050
REMARK  10 active torsions:
REMARK  status: ('A' for Active; 'I' for Inactive)
REMARK    1  A    between atoms: C_1  and  C_2
REMARK    2  A    between atoms: C_2  and  O_3
REMARK    3  A    between atoms: O_3  and  C_4
REMARK    4  A    between atoms: C_7  and  C_10
REMARK    5  A    between atoms: N_12  and  C_13
REMARK    6  A    between atoms: C_14  and  N_30
REMARK    7  A    between atoms: C_16  and  S_21
REMARK    8  A    between atoms: S_21  and  C_22
REMARK    9  A    between atoms: C_22  and  C_23
REMARK   10  A    between atoms: C_27  and  C_29
REMARK                            x       y       z     vdW  Elec       q    Type
REMARK                         _______ _______ _______ _____ _____    ______ ____
ROOT
ATOM      1  C   UNL     1      -0.151  10.366  -0.913  0.00  0.00    +0.139 A 
ATOM      2  C   UNL     1      -0.138   9.442   0.128  0.00  0.00    +0.146 A 
ATOM      3  N   UNL     1      -0.126   8.133  -0.148  0.00  0.00    -0.207 NA
ATOM      4  C   UNL     1      -0.125   7.697  -1.391  0.00  0.00    +0.171 A 
ATOM      5  N   UNL     1      -0.132   8.559  -2.446  0.00  0.00    -0.300 N 
ATOM      6  H   UNL     1      -0.123   8.204  -3.380  0.00  0.00    +0.171 HD
ATOM      7  C   UNL     1      -0.150   9.892  -2.233  0.00  0.00    +0.275 A 
ATOM      8  O   UNL     1      -0.161  10.671  -3.173  0.00  0.00    -0.266 OA
ENDROOT
BRANCH   1  11
ATOM      9  C   UNL     1       0.831  12.533  -1.103  0.00  0.00    +0.248 C 
ATOM     10  O   UNL     1       1.696  12.063  -1.818  0.00  0.00    -0.270 OA
ATOM     11  N   UNL     1      -0.165  11.748  -0.645  0.00  0.00    -0.274 N 
ATOM     12  H   UNL     1      -0.891  12.136  -0.132  0.00  0.00    +0.155 HD
BRANCH   9  16
ATOM     13  C   UNL     1       0.950  16.645  -0.048  0.00  0.00    +0.121 A 
ATOM     14  C   UNL     1       1.939  16.110  -0.865  0.00  0.00    +0.046 A 
ATOM     15  C   UNL     1       1.904  14.777  -1.210  0.00  0.00    +0.016 A 
ATOM     16  C   UNL     1       0.873  13.962  -0.736  0.00  0.00    +0.037 A 
ATOM     17  C   UNL     1      -0.123  14.505   0.080  0.00  0.00    +0.016 A 
ATOM     18  C   UNL     1      -0.077  15.837   0.425  0.00  0.00    +0.046 A 
BRANCH  13  19
ATOM     19  O   UNL     1       0.988  17.959   0.289  0.00  0.00    -0.492 OA
BRANCH  19  21
ATOM     20  C   UNL     1       0.151  19.934   1.402  0.00  0.00    +0.048 C 
ATOM     21  C   UNL     1      -0.059  18.443   1.132  0.00  0.00    +0.225 C 
ENDBRANCH  19  21
ENDBRANCH  13  19
ENDBRANCH   9  16
ENDBRANCH   1  11
BRANCH   2  22
ATOM     22  N   UNL     1      -0.138   9.875   1.441  0.00  0.00    -0.341 N 
ATOM     23  H   UNL     1      -0.129   9.229   2.165  0.00  0.00    +0.144 HD
ATOM     24  H   UNL     1      -0.147  10.825   1.639  0.00  0.00    +0.144 HD
ENDBRANCH   2  22
BRANCH   4  25
ATOM     25  S   UNL     1      -0.109   5.962  -1.696  0.00  0.00    -0.083 S 
BRANCH  25  26
ATOM     26  C   UNL     1      -0.097   5.344   0.005  0.00  0.00    +0.112 C 
BRANCH  26  27
ATOM     27  C   UNL     1      -0.082   3.837  -0.007  0.00  0.00    -0.037 A 
ATOM     28  C   UNL     1       1.123   3.158  -0.017  0.00  0.00    +0.004 A 
ATOM     29  C   UNL     1       1.137   1.776  -0.030  0.00  0.00    +0.001 A 
ATOM     30  C   UNL     1      -0.054   1.073  -0.032  0.00  0.00    +0.003 A 
ATOM     31  C   UNL     1      -1.258   1.752  -0.028  0.00  0.00    -0.050 A 
ATOM     32  C   UNL     1      -1.272   3.134  -0.010  0.00  0.00    +0.007 A 
ATOM     33  C   UNL     1      -2.555   0.985  -0.037  0.00  0.00    +0.044 C 
ENDBRANCH  26  27
ENDBRANCH  25  26
ENDBRANCH   4  25
TORSDOF 8
