REMARK  Name = ZINC00674423
REMARK  6 active torsions:
REMARK  status: ('A' for Active; 'I' for Inactive)
REMARK    1  A    between atoms: C_3  and  C_6
REMARK    2  A    between atoms: C_9  and  C_31
REMARK    3  A    between atoms: C_13  and  C_16
REMARK    4  A    between atoms: N_18  and  C_19
REMARK    5  A    between atoms: C_22  and  O_25
REMARK    6  A    between atoms: O_25  and  C_26
REMARK                            x       y       z     vdW  Elec       q    Type
REMARK                         _______ _______ _______ _____ _____    ______ ____
ROOT
ATOM      1  C   UNL     1       3.597   0.624  -0.030  0.00  0.00    +0.140 C 
ATOM      2  C   UNL     1       4.128   0.352   1.383  0.00  0.00    +0.066 C 
ATOM      3  C   UNL     1       5.661   0.376   1.375  0.00  0.00    +0.215 C 
ATOM      4  N   UNL     1       6.143  -0.477   0.284  0.00  0.00    -0.238 N 
ATOM      5  C   UNL     1       5.379  -0.852  -0.769  0.00  0.00    +0.130 A 
ATOM      6  C   UNL     1       6.158  -1.648  -1.588  0.00  0.00    +0.096 A 
ATOM      7  C   UNL     1       7.434  -1.735  -0.978  0.00  0.00    +0.149 A 
ATOM      8  N   UNL     1       7.409  -1.038   0.126  0.00  0.00    -0.177 NA
ATOM      9  N   UNL     1       4.061  -0.455  -0.924  0.00  0.00    -0.319 N 
ATOM     10  H   UNL     1       3.474  -0.865  -1.579  0.00  0.00    +0.148 HD
ENDROOT
BRANCH   1  13
ATOM     11  C   UNL     1      -0.021   1.323   0.023  0.00  0.00    +0.041 A 
ATOM     12  C   UNL     1       1.324   1.757   0.005  0.00  0.00    +0.046 A 
ATOM     13  C   UNL     1       2.091   0.651  -0.008  0.00  0.00    +0.125 A 
ATOM     14  O   UNL     1       1.285  -0.423   0.002  0.00  0.00    -0.466 OA
ATOM     15  C   UNL     1       0.004  -0.022   0.021  0.00  0.00    +0.195 A 
ENDBRANCH   1  13
BRANCH   6  16
ATOM     16  C   UNL     1       5.743  -2.280  -2.846  0.00  0.00    +0.253 C 
ATOM     17  O   UNL     1       4.610  -2.123  -3.261  0.00  0.00    -0.270 OA
ATOM     18  N   UNL     1       6.618  -3.034  -3.541  0.00  0.00    -0.281 N 
ATOM     19  H   UNL     1       7.539  -3.104  -3.247  0.00  0.00    +0.155 HD
BRANCH  18  20
ATOM     20  C   UNL     1       6.196  -3.716  -4.690  0.00  0.00    +0.034 A 
ATOM     21  C   UNL     1       6.725  -4.964  -4.990  0.00  0.00    +0.027 A 
ATOM     22  C   UNL     1       6.308  -5.636  -6.123  0.00  0.00    +0.048 A 
ATOM     23  C   UNL     1       5.362  -5.064  -6.960  0.00  0.00    +0.130 A 
ATOM     24  C   UNL     1       4.833  -3.817  -6.661  0.00  0.00    +0.048 A 
ATOM     25  C   UNL     1       5.244  -3.146  -5.526  0.00  0.00    +0.027 A 
BRANCH  23  26
ATOM     26  O   UNL     1       4.953  -5.725  -8.075  0.00  0.00    -0.406 OA
BRANCH  26  27
ATOM     27  C   UNL     1       3.976  -5.077  -8.893  0.00  0.00    +0.575 C 
ATOM     28  F   UNL     1       4.484  -3.855  -9.346  0.00  0.00    -0.133 F 
ATOM     29  F   UNL     1       3.671  -5.891  -9.989  0.00  0.00    -0.133 F 
ATOM     30  F   UNL     1       2.817  -4.852  -8.143  0.00  0.00    -0.133 F 
ENDBRANCH  26  27
ENDBRANCH  23  26
ENDBRANCH  18  20
ENDBRANCH   6  16
BRANCH   3  31
ATOM     31  C   UNL     1       6.188  -0.149   2.712  0.00  0.00    +0.412 C 
ATOM     32  F   UNL     1       5.745  -1.462   2.904  0.00  0.00    -0.168 F 
ATOM     33  F   UNL     1       7.587  -0.126   2.703  0.00  0.00    -0.168 F 
ATOM     34  F   UNL     1       5.715   0.660   3.750  0.00  0.00    -0.168 F 
ENDBRANCH   3  31
TORSDOF 6
