REMARK  Name = ZINC09301234
REMARK  3 active torsions:
REMARK  status: ('A' for Active; 'I' for Inactive)
REMARK    1  A    between atoms: C_1  and  C_2
REMARK    2  A    between atoms: C_5  and  C_8
REMARK    3  A    between atoms: N_16  and  C_17
REMARK                            x       y       z     vdW  Elec       q    Type
REMARK                         _______ _______ _______ _____ _____    ______ ____
ROOT
ATOM      1  C   UNL     1       4.042  -4.868   0.455  0.00  0.00    +0.134 A 
ATOM      2  N   UNL     1       2.811  -4.379   0.378  0.00  0.00    -0.140 NA
ATOM      3  N   UNL     1       2.623  -3.134   0.291  0.00  0.00    -0.125 NA
ATOM      4  C   UNL     1       3.629  -2.274   0.261  0.00  0.00    +0.189 A 
ATOM      5  S   UNL     1       4.988  -3.352   0.384  0.00  0.00    -0.030 S 
ATOM      6  N   UNL     1       3.604  -0.888   0.165  0.00  0.00    -0.247 N 
ATOM      7  C   UNL     1       2.426  -0.239   0.078  0.00  0.00    +0.310 C 
ATOM      8  O   UNL     1       1.385  -0.867   0.085  0.00  0.00    -0.252 OA
ATOM      9  N   UNL     1       2.403   1.105  -0.015  0.00  0.00    -0.268 N 
ATOM     10  H   UNL     1       4.547  -0.321   0.159  0.00  0.00    +0.158 HD
ATOM     11  H   UNL     1       3.345   1.667  -0.096  0.00  0.00    +0.156 HD
ENDROOT
BRANCH   9  12
ATOM     12  C   UNL     1       1.179   1.786  -0.011  0.00  0.00    +0.053 A 
ATOM     13  C   UNL     1       0.064   1.216  -0.608  0.00  0.00    +0.026 A 
ATOM     14  C   UNL     1      -1.141   1.892  -0.608  0.00  0.00    +0.022 A 
ATOM     15  C   UNL     1      -1.239   3.132  -0.002  0.00  0.00    +0.042 A 
ATOM     16  C   UNL     1      -0.129   3.704   0.595  0.00  0.00    +0.041 A 
ATOM     17  C   UNL     1       1.080   3.034   0.592  0.00  0.00    +0.064 A 
ATOM     18 CL   UNL     1       2.472   3.751   1.341  0.00  0.00    -0.082 Cl
ATOM     19 CL   UNL     1      -2.756   3.976   0.003  0.00  0.00    -0.083 Cl
ENDBRANCH   9  12
BRANCH   1  24
ATOM     20  C   UNL     1       5.831 -10.320   0.896  0.00  0.00    +0.044 C 
ATOM     21  C   UNL     1       5.362  -8.892   0.781  0.00  0.00    -0.050 A 
ATOM     22  C   UNL     1       4.008  -8.615   0.714  0.00  0.00    +0.004 A 
ATOM     23  C   UNL     1       3.573  -7.310   0.608  0.00  0.00    +0.011 A 
ATOM     24  C   UNL     1       4.502  -6.269   0.569  0.00  0.00    +0.009 A 
ATOM     25  C   UNL     1       5.866  -6.556   0.632  0.00  0.00    +0.011 A 
ATOM     26  C   UNL     1       6.288  -7.865   0.743  0.00  0.00    +0.004 A 
ENDBRANCH   1  24
TORSDOF 2
