REMARK  Name = ZINC48360883
REMARK  11 active torsions:
REMARK  status: ('A' for Active; 'I' for Inactive)
REMARK    1  A    between atoms: C_1  and  C_2
REMARK    2  A    between atoms: C_2  and  N_3
REMARK    3  A    between atoms: C_4  and  C_33
REMARK    4  A    between atoms: C_5  and  C_9
REMARK    5  A    between atoms: C_6  and  C_8
REMARK    6  A    between atoms: C_9  and  N_10
REMARK    7  A    between atoms: N_10  and  C_11
REMARK    8  A    between atoms: C_21  and  C_32
REMARK    9  A    between atoms: C_24  and  O_29
REMARK   10  A    between atoms: O_29  and  C_30
REMARK   11  A    between atoms: C_30  and  C_31
REMARK                            x       y       z     vdW  Elec       q    Type
REMARK                         _______ _______ _______ _____ _____    ______ ____
ROOT
ATOM      1  C   UNL     1      -6.422  -0.909   2.740  0.00  0.00    -0.070 C 
ATOM      2  C   UNL     1      -7.388   0.263   2.882  0.00  0.00    -0.014 C 
ATOM      3  C   UNL     1      -8.771  -0.262   3.176  0.00  0.00    +0.017 C 
ATOM      4  C   UNL     1      -8.994  -0.343   4.697  0.00  0.00    +0.108 C 
ATOM      5  N   UNL     1      -7.800  -0.839   5.409  0.00  0.00    -0.300 N 
ATOM      6  C   UNL     1      -7.000  -1.939   4.919  0.00  0.00    +0.106 C 
ATOM      7  C   UNL     1      -5.868  -1.393   4.014  0.00  0.00    +0.003 C 
ATOM      8  C   UNL     1      -7.430  -0.225   6.593  0.00  0.00    +0.219 A 
ATOM      9  N   UNL     1      -8.169   0.785   7.047  0.00  0.00    -0.219 NA
ATOM     10  C   UNL     1      -7.870   1.409   8.167  0.00  0.00    +0.051 A 
ATOM     11  C   UNL     1      -6.739   0.986   8.889  0.00  0.00    +0.025 A 
ATOM     12  C   UNL     1      -6.353   1.598  10.090  0.00  0.00    +0.057 A 
ATOM     13  C   UNL     1      -5.245   1.145  10.750  0.00  0.00    +0.121 A 
ATOM     14  C   UNL     1      -4.494   0.081  10.242  0.00  0.00    +0.048 A 
ATOM     15  C   UNL     1      -4.843  -0.532   9.078  0.00  0.00    +0.032 A 
ATOM     16  C   UNL     1      -5.975  -0.093   8.375  0.00  0.00    +0.077 A 
ATOM     17  N   UNL     1      -6.363  -0.667   7.229  0.00  0.00    -0.214 NA
ATOM     18  C   UNL     1      -8.719   2.551   8.663  0.00  0.00    +0.066 C 
ENDROOT
BRANCH   1  19
ATOM     19  N   UNL     1      -5.309  -0.495   1.875  0.00  0.00    +0.384 N 
ATOM     20  H   UNL     1      -4.763   0.211   2.345  0.00  0.00    -0.085 HD
ATOM     21  H   UNL     1      -5.675  -0.119   1.013  0.00  0.00    -0.085 HD
BRANCH  19  22
ATOM     22  C   UNL     1      -4.459  -1.656   1.581  0.00  0.00    -0.043 C 
BRANCH  22  25
ATOM     23  N   UNL     1      -1.372  -0.511   0.012  0.00  0.00    -0.268 N 
ATOM     24  C   UNL     1      -2.109  -0.787   1.109  0.00  0.00    +0.038 A 
ATOM     25  C   UNL     1      -3.317  -1.231   0.694  0.00  0.00    -0.021 A 
ATOM     26  C   UNL     1      -3.320  -1.227  -0.705  0.00  0.00    +0.062 A 
ATOM     27  N   UNL     1      -2.156  -0.790  -1.114  0.00  0.00    -0.176 NA
ATOM     28  C   UNL     1      -4.467  -1.647  -1.588  0.00  0.00    +0.068 C 
ATOM     29  C   UNL     1      -1.664  -0.628   2.541  0.00  0.00    +0.065 C 
BRANCH  23  31
ATOM     30  C   UNL     1      -0.019   1.526   0.010  0.00  0.00    +0.029 C 
ATOM     31  C   UNL     1       0.002  -0.004   0.002  0.00  0.00    +0.140 C 
ENDBRANCH  23  31
ENDBRANCH  22  25
ENDBRANCH  19  22
ENDBRANCH   1  19
BRANCH  13  32
ATOM     32  O   UNL     1      -4.869   1.736  11.915  0.00  0.00    -0.492 OA
BRANCH  32  33
ATOM     33  C   UNL     1      -3.702   1.219  12.558  0.00  0.00    +0.225 C 
ATOM     34  C   UNL     1      -3.438   2.005  13.844  0.00  0.00    +0.048 C 
ENDBRANCH  32  33
ENDBRANCH  13  32
TORSDOF 6
