REMARK  Name = ZINC09504220
REMARK  10 active torsions:
REMARK  status: ('A' for Active; 'I' for Inactive)
REMARK    1  A    between atoms: C_1  and  C_2
REMARK    2  A    between atoms: C_2  and  O_3
REMARK    3  A    between atoms: O_3  and  C_4
REMARK    4  A    between atoms: C_6  and  C_13
REMARK    5  A    between atoms: C_9  and  O_10
REMARK    6  A    between atoms: O_10  and  C_11
REMARK    7  A    between atoms: C_18  and  C_22
REMARK    8  A    between atoms: C_18  and  C_23
REMARK    9  A    between atoms: C_25  and  C_35
REMARK   10  A    between atoms: C_26  and  C_27
REMARK                            x       y       z     vdW  Elec       q    Type
REMARK                         _______ _______ _______ _____ _____    ______ ____
ROOT
ATOM      1  C   UNL     1      -2.028   2.728   3.277  0.00  0.00    +0.090 C 
ATOM      2  C   UNL     1      -3.078   3.100   4.294  0.00  0.00    +0.024 C 
ATOM      3  C   UNL     1      -3.438   2.231   5.263  0.00  0.00    +0.016 C 
ATOM      4  C   UNL     1      -4.474   2.603   6.294  0.00  0.00    +0.058 C 
ATOM      5  C   UNL     1      -5.485   3.573   5.680  0.00  0.00    -0.023 C 
ATOM      6  C   UNL     1      -4.730   4.809   5.177  0.00  0.00    +0.086 C 
ATOM      7  C   UNL     1      -3.670   4.372   4.204  0.00  0.00    +0.162 C 
ATOM      8  O   UNL     1      -3.317   5.132   3.324  0.00  0.00    -0.292 OA
ATOM      9  C   UNL     1      -6.201   2.897   4.510  0.00  0.00    +0.011 C 
ATOM     10  C   UNL     1      -6.509   3.987   6.739  0.00  0.00    +0.011 C 
ATOM     11  N   UNL     1      -2.864   0.990   5.330  0.00  0.00    -0.321 N 
ATOM     12  C   UNL     1      -2.237   0.453   4.240  0.00  0.00    +0.014 C 
ATOM     13  C   UNL     1      -1.819   1.243   3.238  0.00  0.00    +0.043 C 
ATOM     14  C   UNL     1      -2.008  -1.035   4.165  0.00  0.00    +0.061 C 
ATOM     15  H   UNL     1      -2.905   0.415   6.268  0.00  0.00    +0.152 HD
ENDROOT
BRANCH  13  16
ATOM     16  C   UNL     1      -1.173   0.662   2.118  0.00  0.00    +0.245 C 
ATOM     17  O   UNL     1       0.043   0.616   2.073  0.00  0.00    -0.270 OA
ATOM     18  N   UNL     1      -1.905   0.160   1.104  0.00  0.00    -0.298 N 
ATOM     19  C   UNL     1      -1.251  -0.351  -0.109  0.00  0.00    +0.108 C 
ATOM     20  C   UNL     1      -1.739  -1.779  -0.371  0.00  0.00    +0.019 C 
ATOM     21  C   UNL     1      -3.269  -1.789  -0.430  0.00  0.00    +0.003 C 
ATOM     22  C   UNL     1      -3.835  -1.324   0.914  0.00  0.00    +0.019 C 
ATOM     23  C   UNL     1      -3.371   0.110   1.190  0.00  0.00    +0.108 C 
ENDBRANCH  13  16
BRANCH   1  26
ATOM     24  C   UNL     1       0.991   4.997   3.145  0.00  0.00    +0.163 A 
ATOM     25  C   UNL     1      -0.203   4.376   2.813  0.00  0.00    +0.054 A 
ATOM     26  C   UNL     1      -0.729   3.401   3.640  0.00  0.00    -0.031 A 
ATOM     27  C   UNL     1      -0.069   3.046   4.802  0.00  0.00    +0.023 A 
ATOM     28  C   UNL     1       1.125   3.657   5.136  0.00  0.00    +0.063 A 
ATOM     29  C   UNL     1       1.658   4.636   4.311  0.00  0.00    +0.175 A 
ATOM     30 BR   UNL     1       2.029   3.163   6.723  0.00  0.00    -0.046 Br
BRANCH  29  31
ATOM     31  O   UNL     1       2.830   5.242   4.641  0.00  0.00    -0.490 OA
ATOM     32  C   UNL     1       2.748   6.422   5.442  0.00  0.00    +0.277 C 
ENDBRANCH  29  31
BRANCH  24  33
ATOM     33  O   UNL     1       1.509   5.957   2.333  0.00  0.00    -0.489 OA
BRANCH  33  35
ATOM     34  C   UNL     1       1.502   7.368   0.372  0.00  0.00    +0.048 C 
ATOM     35  C   UNL     1       0.769   6.276   1.153  0.00  0.00    +0.226 C 
ENDBRANCH  33  35
ENDBRANCH  24  33
ENDBRANCH   1  26
TORSDOF 5
