REMARK  Name = ZINC14668371
REMARK  10 active torsions:
REMARK  status: ('A' for Active; 'I' for Inactive)
REMARK    1  A    between atoms: C_1  and  C_2
REMARK    2  A    between atoms: C_4  and  N_25
REMARK    3  A    between atoms: C_7  and  N_8
REMARK    4  A    between atoms: N_8  and  C_9
REMARK    5  A    between atoms: C_9  and  N_11
REMARK    6  A    between atoms: C_12  and  C_14
REMARK    7  A    between atoms: C_19  and  O_20
REMARK    8  A    between atoms: O_20  and  C_21
REMARK    9  A    between atoms: C_21  and  C_22
REMARK   10  A    between atoms: C_21  and  C_23
REMARK                            x       y       z     vdW  Elec       q    Type
REMARK                         _______ _______ _______ _____ _____    ______ ____
ROOT
ATOM      1  N   UNL     1      -3.974  -0.241   0.028  0.00  0.00    -0.263 N 
ATOM      2  C   UNL     1      -2.836   0.395  -0.313  0.00  0.00    +0.253 C 
ATOM      3  O   UNL     1      -2.837   1.600  -0.472  0.00  0.00    -0.270 OA
ATOM      4  H   UNL     1      -3.974  -1.202   0.154  0.00  0.00    +0.157 HD
ENDROOT
BRANCH   2   5
ATOM      5  C   UNL     1      -1.589  -0.372  -0.494  0.00  0.00    +0.080 A 
ATOM      6  C   UNL     1      -1.585  -1.758  -0.317  0.00  0.00    +0.032 A 
ATOM      7  C   UNL     1      -0.415  -2.468  -0.481  0.00  0.00    +0.019 A 
ATOM      8  C   UNL     1       0.757  -1.814  -0.827  0.00  0.00    +0.019 A 
ATOM      9  C   UNL     1       0.765  -0.446  -1.009  0.00  0.00    +0.047 A 
ATOM     10  C   UNL     1      -0.403   0.285  -0.848  0.00  0.00    +0.133 A 
ATOM     11 BR   UNL     1      -0.409  -4.343  -0.234  0.00  0.00    -0.050 Br
BRANCH  10  12
ATOM     12  O   UNL     1      -0.396   1.629  -1.028  0.00  0.00    -0.489 OA
BRANCH  12  13
ATOM     13  C   UNL     1       0.871   2.246  -1.266  0.00  0.00    +0.167 C 
ATOM     14  C   UNL     1       1.127   2.321  -2.772  0.00  0.00    +0.051 C 
ATOM     15  C   UNL     1       0.870   3.658  -0.677  0.00  0.00    +0.051 C 
ENDBRANCH  12  13
ENDBRANCH  10  12
ENDBRANCH   2   5
BRANCH   1  16
ATOM     16  C   UNL     1      -5.114   0.460   0.193  0.00  0.00    +0.141 C 
ATOM     17  S   UNL     1      -5.115   2.158  -0.031  0.00  0.00    -0.018 S 
BRANCH  16  18
ATOM     18  N   UNL     1      -6.253  -0.175   0.534  0.00  0.00    -0.296 N 
ATOM     19  H   UNL     1      -6.238  -1.125   0.728  0.00  0.00    +0.154 HD
BRANCH  18  26
ATOM     20  C   UNL     1      -8.548  -1.283  -0.732  0.00  0.00    +0.046 C 
ATOM     21  C   UNL     1      -8.599   0.031   0.004  0.00  0.00    -0.027 A 
ATOM     22  C   UNL     1      -9.786   0.734   0.082  0.00  0.00    +0.038 A 
ATOM     23  C   UNL     1      -9.833   1.942   0.752  0.00  0.00    +0.127 A 
ATOM     24  C   UNL     1      -8.694   2.450   1.350  0.00  0.00    +0.034 A 
ATOM     25  C   UNL     1      -7.505   1.750   1.279  0.00  0.00    +0.026 A 
ATOM     26  C   UNL     1      -7.455   0.536   0.607  0.00  0.00    +0.036 A 
BRANCH  23  27
ATOM     27  N   UNL     1     -11.105   2.695   0.829  0.00  0.00    +0.056 N 
ATOM     28  O   UNL     1     -11.148   3.760   1.418  0.00  0.00    -0.126 OA
ATOM     29  O   UNL     1     -12.110   2.249   0.302  0.00  0.00    -0.126 OA
ENDBRANCH  23  27
ENDBRANCH  18  26
ENDBRANCH  16  18
ENDBRANCH   1  16
TORSDOF 7
