REMARK  Name = ZINC12549652
REMARK  6 active torsions:
REMARK  status: ('A' for Active; 'I' for Inactive)
REMARK    1  A    between atoms: C_1  and  C_2
REMARK    2  A    between atoms: C_2  and  O_3
REMARK    3  A    between atoms: O_3  and  C_4
REMARK    4  A    between atoms: C_5  and  O_31
REMARK    5  A    between atoms: C_7  and  C_11
REMARK    6  A    between atoms: O_31  and  C_32
REMARK                            x       y       z     vdW  Elec       q    Type
REMARK                         _______ _______ _______ _____ _____    ______ ____
ROOT
ATOM      1  C   UNL     1       1.107  -6.045  -1.850  0.00  0.00    +0.209 C 
ATOM      2  N   UNL     1      -0.218  -6.672  -1.691  0.00  0.00    -0.294 N 
ATOM      3  C   UNL     1      -1.084  -6.640  -2.775  0.00  0.00    +0.159 C 
ATOM      4  N   UNL     1      -0.577  -7.098  -3.991  0.00  0.00    -0.259 N 
ATOM      5  C   UNL     1       0.775  -6.833  -4.204  0.00  0.00    +0.205 A 
ATOM      6  N   UNL     1       1.583  -6.345  -3.205  0.00  0.00    -0.288 N 
ATOM      7  C   UNL     1       2.852  -6.207  -3.726  0.00  0.00    +0.076 A 
ATOM      8  C   UNL     1       4.068  -5.776  -3.213  0.00  0.00    +0.077 A 
ATOM      9  C   UNL     1       5.188  -5.761  -4.021  0.00  0.00    +0.164 A 
ATOM     10  C   UNL     1       5.106  -6.174  -5.348  0.00  0.00    +0.164 A 
ATOM     11  C   UNL     1       3.905  -6.602  -5.874  0.00  0.00    +0.079 A 
ATOM     12  C   UNL     1       2.764  -6.623  -5.067  0.00  0.00    +0.095 A 
ATOM     13  N   UNL     1       1.468  -6.988  -5.294  0.00  0.00    -0.214 NA
ATOM     14  O   UNL     1       6.226  -6.155  -6.130  0.00  0.00    -0.488 OA
ATOM     15  C   UNL     1       6.739  -4.862  -6.456  0.00  0.00    +0.232 C 
ATOM     16  C   UNL     1       7.641  -4.345  -5.346  0.00  0.00    +0.082 C 
ATOM     17  C   UNL     1       6.886  -4.109  -4.048  0.00  0.00    +0.232 C 
ATOM     18  O   UNL     1       6.387  -5.339  -3.521  0.00  0.00    -0.488 OA
ATOM     19  N   UNL     1      -2.307  -6.205  -2.663  0.00  0.00    -0.375 N 
ATOM     20  H   UNL     1      -0.476  -7.093  -0.856  0.00  0.00    +0.151 HD
ATOM     21  H   UNL     1      -2.634  -5.893  -1.804  0.00  0.00    +0.158 HD
ATOM     22  H   UNL     1      -1.124  -7.567  -4.640  0.00  0.00    +0.158 HD
ATOM     23  H   UNL     1      -2.891  -6.194  -3.437  0.00  0.00    +0.158 HD
ENDROOT
BRANCH   1  27
ATOM     24  C   UNL     1       0.777  -1.811  -1.336  0.00  0.00    +0.180 A 
ATOM     25  C   UNL     1       1.877  -2.491  -0.823  0.00  0.00    +0.163 A 
ATOM     26  C   UNL     1       1.980  -3.863  -0.991  0.00  0.00    +0.056 A 
ATOM     27  C   UNL     1       0.992  -4.553  -1.668  0.00  0.00    -0.002 A 
ATOM     28  C   UNL     1      -0.100  -3.878  -2.179  0.00  0.00    +0.031 A 
ATOM     29  C   UNL     1      -0.213  -2.510  -2.009  0.00  0.00    +0.087 A 
ATOM     30 CL   UNL     1      -1.591  -1.667  -2.646  0.00  0.00    -0.080 Cl
BRANCH  25  31
ATOM     31  O   UNL     1       2.848  -1.811  -0.157  0.00  0.00    -0.491 OA
ATOM     32  C   UNL     1       3.948  -2.574   0.343  0.00  0.00    +0.277 C 
ENDBRANCH  25  31
BRANCH  24  33
ATOM     33  O   UNL     1       0.671  -0.465  -1.174  0.00  0.00    -0.487 OA
BRANCH  33  35
ATOM     34  C   UNL     1      -0.019   1.526   0.010  0.00  0.00    +0.048 C 
ATOM     35  C   UNL     1       0.002  -0.004   0.002  0.00  0.00    +0.226 C 
ENDBRANCH  33  35
ENDBRANCH  24  33
ENDBRANCH   1  27
TORSDOF 4
