REMARK  Name = ZINC09505457
REMARK  8 active torsions:
REMARK  status: ('A' for Active; 'I' for Inactive)
REMARK    1  A    between atoms: C_1  and  C_2
REMARK    2  A    between atoms: C_5  and  C_36
REMARK    3  A    between atoms: C_6  and  C_8
REMARK    4  A    between atoms: C_8  and  S_9
REMARK    5  A    between atoms: S_9  and  C_10
REMARK    6  A    between atoms: C_10  and  C_11
REMARK    7  A    between atoms: C_18  and  C_23
REMARK    8  A    between atoms: N_28  and  C_31
REMARK                            x       y       z     vdW  Elec       q    Type
REMARK                         _______ _______ _______ _____ _____    ______ ____
ROOT
ATOM      1  C   UNL     1       1.678  12.118   6.358  0.00  0.00    +0.167 C 
ATOM      2  C   UNL     1       0.185  12.322   6.426  0.00  0.00    +0.238 C 
ATOM      3  O   UNL     1      -0.282  13.062   7.266  0.00  0.00    -0.273 OA
ATOM      4  N   UNL     1      -0.633  11.691   5.565  0.00  0.00    -0.282 N 
ATOM      5  C   UNL     1      -0.136  10.727   4.680  0.00  0.00    +0.055 A 
ATOM      6  C   UNL     1      -0.927  10.240   3.657  0.00  0.00    +0.038 A 
ATOM      7  C   UNL     1      -0.412   9.284   2.777  0.00  0.00    +0.039 A 
ATOM      8  C   UNL     1       0.901   8.830   2.926  0.00  0.00    +0.015 A 
ATOM      9  C   UNL     1       1.688   9.318   3.947  0.00  0.00    +0.025 A 
ATOM     10  C   UNL     1       1.176  10.263   4.825  0.00  0.00    +0.049 A 
ATOM     11  N   UNL     1       1.954  10.760   5.872  0.00  0.00    -0.331 N 
ATOM     12  H   UNL     1      -1.579  11.907   5.556  0.00  0.00    +0.155 HD
ATOM     13  H   UNL     1       2.659  10.223   6.267  0.00  0.00    +0.147 HD
ENDROOT
BRANCH   7  14
ATOM     14  C   UNL     1      -1.255   8.758   1.686  0.00  0.00    +0.247 C 
ATOM     15  O   UNL     1      -2.453   8.633   1.849  0.00  0.00    -0.270 OA
ATOM     16  N   UNL     1      -0.696   8.415   0.508  0.00  0.00    -0.295 N 
ATOM     17  C   UNL     1       0.727   8.676   0.244  0.00  0.00    +0.127 C 
ATOM     18  C   UNL     1       0.847   9.412  -1.095  0.00  0.00    +0.125 C 
ATOM     19  N   UNL     1       0.152   8.644  -2.136  0.00  0.00    -0.314 N 
ATOM     20  C   UNL     1      -1.286   8.542  -1.854  0.00  0.00    +0.125 C 
ATOM     21  C   UNL     1      -1.493   7.770  -0.546  0.00  0.00    +0.127 C 
BRANCH  19  22
ATOM     22  C   UNL     1       0.375   9.194  -3.393  0.00  0.00    +0.099 A 
ATOM     23  C   UNL     1      -0.201   8.606  -4.515  0.00  0.00    +0.042 A 
ATOM     24  C   UNL     1       0.029   9.164  -5.760  0.00  0.00    +0.005 A 
ATOM     25  C   UNL     1       0.831  10.295  -5.841  0.00  0.00    +0.018 A 
ATOM     26  C   UNL     1       1.375  10.823  -4.687  0.00  0.00    +0.084 A 
ATOM     27  N   UNL     1       1.166  10.305  -3.447  0.00  0.00    -0.350 N 
ATOM     28  H   UNL     1       1.577  10.723  -2.605  0.00  0.00    +0.166 HD
ENDBRANCH  19  22
ENDBRANCH   7  14
BRANCH   1  29
ATOM     29  C   UNL     1       2.290  13.140   5.399  0.00  0.00    +0.101 C 
BRANCH  29  30
ATOM     30  S   UNL     1       4.084  12.885   5.308  0.00  0.00    -0.154 S 
BRANCH  30  31
ATOM     31  C   UNL     1       4.650  14.158   4.146  0.00  0.00    +0.104 C 
BRANCH  31  37
ATOM     32  C   UNL     1       8.625  12.271   1.762  0.00  0.00    +0.044 C 
ATOM     33  C   UNL     1       8.046  13.153   2.837  0.00  0.00    -0.050 A 
ATOM     34  C   UNL     1       8.886  13.870   3.670  0.00  0.00    +0.003 A 
ATOM     35  C   UNL     1       8.355  14.679   4.657  0.00  0.00    +0.004 A 
ATOM     36  C   UNL     1       6.984  14.776   4.808  0.00  0.00    -0.046 A 
ATOM     37  C   UNL     1       6.145  14.056   3.979  0.00  0.00    -0.034 A 
ATOM     38  C   UNL     1       6.676  13.247   2.991  0.00  0.00    +0.008 A 
ATOM     39  C   UNL     1       6.405  15.662   5.880  0.00  0.00    +0.044 C 
ENDBRANCH  31  37
ENDBRANCH  30  31
ENDBRANCH  29  30
ENDBRANCH   1  29
TORSDOF 6
