REMARK  Name = ZINC39485936
REMARK  3 active torsions:
REMARK  status: ('A' for Active; 'I' for Inactive)
REMARK    1  A    between atoms: C_3  and  C_25
REMARK    2  A    between atoms: C_6  and  C_7
REMARK    3  A    between atoms: C_19  and  N_21
REMARK                            x       y       z     vdW  Elec       q    Type
REMARK                         _______ _______ _______ _____ _____    ______ ____
ROOT
ATOM      1  C   UNL     1      -1.293  -0.775   0.011  0.00  0.00    +0.158 C 
ATOM      2  C   UNL     1      -1.608  -1.306  -1.363  0.00  0.00    -0.002 C 
ATOM      3  C   UNL     1      -1.621  -2.636  -1.227  0.00  0.00    +0.066 C 
ATOM      4  C   UNL     1      -1.896  -3.586  -2.372  0.00  0.00    +0.076 C 
ATOM      5  C   UNL     1      -2.586  -2.816  -3.503  0.00  0.00    +0.114 C 
ATOM      6  N   UNL     1      -1.878  -1.547  -3.732  0.00  0.00    -0.295 N 
ATOM      7  C   UNL     1      -1.866  -0.555  -2.638  0.00  0.00    +0.143 C 
ATOM      8  C   UNL     1      -1.242  -1.290  -4.936  0.00  0.00    +0.220 A 
ATOM      9  N   UNL     1      -0.611  -0.137  -5.099  0.00  0.00    -0.220 NA
ATOM     10  C   UNL     1       0.009   0.145  -6.236  0.00  0.00    +0.156 A 
ATOM     11  C   UNL     1      -0.007  -0.781  -7.262  0.00  0.00    +0.181 A 
ATOM     12  C   UNL     1      -0.681  -1.988  -7.060  0.00  0.00    +0.157 A 
ATOM     13  N   UNL     1      -1.276  -2.206  -5.891  0.00  0.00    -0.197 NA
ATOM     14  F   UNL     1       0.615  -0.524  -8.434  0.00  0.00    -0.200 F 
ATOM     15  N   UNL     1      -1.356  -2.969   0.056  0.00  0.00    -0.182 NA
ATOM     16  N   UNL     1      -1.163  -2.007   0.814  0.00  0.00    -0.297 N 
ATOM     17  H   UNL     1      -0.963  -2.053   1.761  0.00  0.00    +0.183 HD
ENDROOT
BRANCH   1  23
ATOM     18  C   UNL     1      -0.017   1.378   0.010  0.00  0.00    +0.006 A 
ATOM     19  C   UNL     1       1.171   2.086   0.002  0.00  0.00    +0.013 A 
ATOM     20  C   UNL     1       2.377   1.411  -0.013  0.00  0.00    +0.055 A 
ATOM     21  C   UNL     1       2.396   0.029  -0.020  0.00  0.00    +0.013 A 
ATOM     22  C   UNL     1       1.208  -0.679  -0.012  0.00  0.00    +0.006 A 
ATOM     23  C   UNL     1       0.002  -0.004   0.002  0.00  0.00    -0.020 A 
BRANCH  20  24
ATOM     24  C   UNL     1       3.672   2.182  -0.022  0.00  0.00    +0.417 C 
ATOM     25  F   UNL     1       4.086   2.414   1.294  0.00  0.00    -0.166 F 
ATOM     26  F   UNL     1       4.651   1.442  -0.695  0.00  0.00    -0.166 F 
ATOM     27  F   UNL     1       3.482   3.405  -0.674  0.00  0.00    -0.166 F 
ENDBRANCH  20  24
ENDBRANCH   1  23
BRANCH  12  28
ATOM     28  N   UNL     1      -0.724  -2.947  -8.060  0.00  0.00    -0.341 N 
ATOM     29  H   UNL     1      -0.283  -2.783  -8.909  0.00  0.00    +0.144 HD
ATOM     30  H   UNL     1      -1.194  -3.783  -7.912  0.00  0.00    +0.144 HD
ENDBRANCH  12  28
TORSDOF 3
