REMARK  Name = ZINC21188293
REMARK  7 active torsions:
REMARK  status: ('A' for Active; 'I' for Inactive)
REMARK    1  A    between atoms: C_1  and  C_2
REMARK    2  A    between atoms: C_5  and  C_7
REMARK    3  A    between atoms: C_7  and  C_9
REMARK    4  A    between atoms: C_7  and  N_10
REMARK    5  A    between atoms: N_10  and  S_11
REMARK    6  A    between atoms: S_11  and  C_14
REMARK    7  A    between atoms: C_17  and  C_20
REMARK                            x       y       z     vdW  Elec       q    Type
REMARK                         _______ _______ _______ _____ _____    ______ ____
ROOT
ATOM      1  S   UNL     1      -0.020   1.652   0.011  0.00  0.00    +0.059 S 
ATOM      2  O   UNL     1      -0.589   2.057  -1.227  0.00  0.00    -0.153 OA
ATOM      3  O   UNL     1      -0.565   2.044   1.264  0.00  0.00    -0.153 OA
ENDROOT
BRANCH   1   4
ATOM      4  C   UNL     1       1.655   2.196  -0.002  0.00  0.00    +0.105 A 
ATOM      5  C   UNL     1       2.320   2.407   1.193  0.00  0.00    +0.030 A 
ATOM      6  C   UNL     1       3.634   2.828   1.190  0.00  0.00    +0.021 A 
ATOM      7  C   UNL     1       4.289   3.051  -0.022  0.00  0.00    +0.052 A 
ATOM      8  C   UNL     1       3.611   2.841  -1.225  0.00  0.00    +0.021 A 
ATOM      9  C   UNL     1       2.299   2.415  -1.207  0.00  0.00    +0.030 A 
BRANCH   7  10
ATOM     10  C   UNL     1       5.651   3.493  -0.033  0.00  0.00    +0.099 C 
ATOM     11  N   UNL     1       6.732   3.844  -0.042  0.00  0.00    -0.191 NA
ENDBRANCH   7  10
ENDBRANCH   1   4
BRANCH   1  12
ATOM     12  N   UNL     1       0.002  -0.004   0.002  0.00  0.00    -0.180 NA
ATOM     13  H   UNL     1      -0.249  -0.540  -0.925  0.00  0.00    +0.149 HD
BRANCH  12  14
ATOM     14  C   UNL     1       0.559  -0.735   1.143  0.00  0.00    +0.139 C 
ATOM     15  C   UNL     1       2.024  -1.078   0.863  0.00  0.00    +0.034 C 
BRANCH  14  20
ATOM     16  C   UNL     1      -1.994  -4.980   0.193  0.00  0.00    +0.086 C 
ATOM     17  C   UNL     1      -1.333  -3.852   0.942  0.00  0.00    +0.102 A 
ATOM     18  C   UNL     1      -1.292  -3.713   2.279  0.00  0.00    +0.045 A 
ATOM     19  C   UNL     1      -0.572  -2.526   2.545  0.00  0.00    +0.046 A 
ATOM     20  C   UNL     1      -0.222  -2.006   1.355  0.00  0.00    +0.123 A 
ATOM     21  O   UNL     1      -0.683  -2.816   0.387  0.00  0.00    -0.463 OA
ENDBRANCH  14  20
ENDBRANCH  12  14
ENDBRANCH   1  12
TORSDOF 5
