REMARK  Name = ZINC07677855
REMARK  9 active torsions:
REMARK  status: ('A' for Active; 'I' for Inactive)
REMARK    1  A    between atoms: C_1  and  C_2
REMARK    2  A    between atoms: C_2  and  C_3
REMARK    3  A    between atoms: C_3  and  C_22
REMARK    4  A    between atoms: N_6  and  N_10
REMARK    5  A    between atoms: C_11  and  C_13
REMARK    6  A    between atoms: C_13  and  N_49
REMARK    7  A    between atoms: C_14  and  N_49
REMARK    8  A    between atoms: C_15  and  C_16
REMARK    9  A    between atoms: C_15  and  N_49
REMARK                            x       y       z     vdW  Elec       q    Type
REMARK                         _______ _______ _______ _____ _____    ______ ____
ROOT
ATOM      1  C   UNL     1       4.356   0.290  -0.650  0.00  0.00    +0.139 C 
ATOM      2  C   UNL     1       3.157   1.103  -1.099  0.00  0.00    +0.268 C 
ATOM      3  O   UNL     1       2.953   1.556  -2.205  0.00  0.00    -0.271 OA
ATOM      4  N   UNL     1       2.366   1.214  -0.014  0.00  0.00    -0.137 N 
ATOM      5  C   UNL     1       2.895   0.597   1.048  0.00  0.00    +0.327 C 
ATOM      6  O   UNL     1       2.368   0.564   2.143  0.00  0.00    -0.251 OA
ATOM      7  N   UNL     1       4.075   0.013   0.769  0.00  0.00    -0.280 N 
ATOM      8  H   UNL     1       4.633  -0.489   1.383  0.00  0.00    +0.152 HD
ENDROOT
BRANCH   1   9
ATOM      9  C   UNL     1       5.624   1.092  -0.796  0.00  0.00    -0.015 A 
ATOM     10  C   UNL     1       6.351   1.027  -1.970  0.00  0.00    +0.006 A 
ATOM     11  C   UNL     1       7.512   1.766  -2.105  0.00  0.00    +0.000 A 
ATOM     12  C   UNL     1       7.950   2.562  -1.063  0.00  0.00    +0.000 A 
ATOM     13  C   UNL     1       7.226   2.622   0.113  0.00  0.00    +0.000 A 
ATOM     14  C   UNL     1       6.063   1.887   0.246  0.00  0.00    +0.006 A 
ENDBRANCH   1   9
BRANCH   4  15
ATOM     15  N   UNL     1       1.143   1.898   0.001  0.00  0.00    -0.225 N 
ATOM     16  C   UNL     1      -0.014   1.209   0.009  0.00  0.00    +0.213 C 
ATOM     17  O   UNL     1       0.002  -0.004   0.002  0.00  0.00    -0.276 OA
ATOM     18  H   UNL     1       1.130   2.868   0.007  0.00  0.00    +0.173 HD
BRANCH  16  19
ATOM     19  C   UNL     1      -1.330   1.944   0.019  0.00  0.00    +0.020 C 
BRANCH  19  21
ATOM     20  C   UNL     1      -2.455   0.202   1.268  0.00  0.00    -0.095 C 
ATOM     21  N   UNL     1      -2.429   0.956  -0.003  0.00  0.00    +0.387 N 
ATOM     22  H   UNL     1      -2.272   0.300  -0.777  0.00  0.00    -0.081 HD
BRANCH  21  23
ATOM     23  C   UNL     1      -3.721   1.643  -0.209  0.00  0.00    -0.035 C 
BRANCH  23  24
ATOM     24  C   UNL     1      -4.789   0.607  -0.447  0.00  0.00    -0.025 A 
ATOM     25  C   UNL     1      -5.590  -0.015   0.452  0.00  0.00    +0.011 A 
ATOM     26  C   UNL     1      -6.514  -0.940   0.001  0.00  0.00    +0.028 A 
ATOM     27  C   UNL     1      -6.583  -1.205  -1.328  0.00  0.00    +0.078 A 
ATOM     28  S   UNL     1      -5.323  -0.125  -1.986  0.00  0.00    -0.084 S 
ATOM     29 CL   UNL     1      -7.625  -2.309  -2.170  0.00  0.00    -0.076 Cl
ENDBRANCH  23  24
ENDBRANCH  21  23
ENDBRANCH  19  21
ENDBRANCH  16  19
ENDBRANCH   4  15
BRANCH   1  31
ATOM     30  C   UNL     1       3.175  -1.831  -1.238  0.00  0.00    +0.007 C 
ATOM     31  C   UNL     1       4.451  -1.014  -1.445  0.00  0.00    +0.037 C 
ENDBRANCH   1  31
TORSDOF 7
