REMARK  Name = ZINC09870513
REMARK  10 active torsions:
REMARK  status: ('A' for Active; 'I' for Inactive)
REMARK    1  A    between atoms: C_1  and  C_2
REMARK    2  A    between atoms: C_2  and  C_4
REMARK    3  A    between atoms: C_2  and  N_13
REMARK    4  A    between atoms: C_14  and  C_16
REMARK    5  A    between atoms: C_16  and  S_17
REMARK    6  A    between atoms: S_17  and  C_18
REMARK    7  A    between atoms: C_21  and  C_23
REMARK    8  A    between atoms: C_23  and  C_25
REMARK    9  A    between atoms: C_23  and  O_26
REMARK   10  A    between atoms: O_26  and  C_27
REMARK                            x       y       z     vdW  Elec       q    Type
REMARK                         _______ _______ _______ _____ _____    ______ ____
ROOT
ATOM      1  C   UNL     1       5.533   3.448   2.022  0.00  0.00    +0.174 C 
ENDROOT
BRANCH   1   3
ATOM      2  N   UNL     1       3.769   2.494   0.573  0.00  0.00    -0.305 N 
ATOM      3  C   UNL     1       5.049   2.458   0.994  0.00  0.00    +0.224 C 
ATOM      4  O   UNL     1       5.811   1.628   0.545  0.00  0.00    -0.275 OA
ATOM      5  H   UNL     1       3.159   3.158   0.932  0.00  0.00    +0.149 HD
BRANCH   2   7
ATOM      6  C   UNL     1       3.621   2.054  -1.828  0.00  0.00    +0.036 C 
ATOM      7  C   UNL     1       3.299   1.532  -0.426  0.00  0.00    +0.136 C 
BRANCH   7   8
ATOM      8  C   UNL     1       1.809   1.351  -0.287  0.00  0.00    +0.126 A 
ATOM      9  C   UNL     1       1.165   0.181  -0.395  0.00  0.00    +0.055 A 
ATOM     10  C   UNL     1      -0.258   0.477  -0.191  0.00  0.00    +0.020 A 
ATOM     11  C   UNL     1      -1.421  -0.291  -0.178  0.00  0.00    +0.011 A 
ATOM     12  C   UNL     1      -2.628   0.310   0.050  0.00  0.00    +0.001 A 
ATOM     13  C   UNL     1      -2.701   1.678   0.269  0.00  0.00    +0.004 A 
ATOM     14  C   UNL     1      -1.561   2.453   0.264  0.00  0.00    +0.047 A 
ATOM     15  C   UNL     1      -0.325   1.863   0.030  0.00  0.00    +0.135 A 
ATOM     16  O   UNL     1       0.934   2.340  -0.037  0.00  0.00    -0.458 OA
ENDBRANCH   7   8
ENDBRANCH   2   7
ENDBRANCH   1   3
BRANCH   1  17
ATOM     17  S   UNL     1       7.281   3.144   2.376  0.00  0.00    -0.056 S 
BRANCH  17  18
ATOM     18  C   UNL     1       7.575   4.405   3.571  0.00  0.00    +0.278 A 
ATOM     19  N   UNL     1       6.702   5.279   4.011  0.00  0.00    -0.101 NA
ATOM     20  N   UNL     1       7.264   6.043   4.879  0.00  0.00    -0.108 NA
ATOM     21  C   UNL     1       8.511   5.697   5.021  0.00  0.00    +0.258 A 
ATOM     22  O   UNL     1       8.740   4.654   4.199  0.00  0.00    -0.412 OA
BRANCH  21  23
ATOM     23  C   UNL     1       9.515   6.346   5.938  0.00  0.00    +0.257 C 
ATOM     24  C   UNL     1       9.234   5.925   7.382  0.00  0.00    +0.062 C 
BRANCH  23  25
ATOM     25  O   UNL     1       9.414   7.767   5.828  0.00  0.00    -0.477 OA
BRANCH  25  26
ATOM     26  C   UNL     1      10.520   8.492   6.142  0.00  0.00    +0.157 A 
ATOM     27  C   UNL     1      11.642   7.859   6.656  0.00  0.00    +0.048 A 
ATOM     28  C   UNL     1      12.766   8.597   6.974  0.00  0.00    +0.004 A 
ATOM     29  C   UNL     1      12.774   9.966   6.780  0.00  0.00    +0.003 A 
ATOM     30  C   UNL     1      11.658  10.601   6.267  0.00  0.00    +0.042 A 
ATOM     31  C   UNL     1      10.532   9.866   5.943  0.00  0.00    +0.165 A 
ATOM     32  F   UNL     1       9.443  10.486   5.437  0.00  0.00    -0.202 F 
ENDBRANCH  25  26
ENDBRANCH  23  25
ENDBRANCH  21  23
ENDBRANCH  17  18
ENDBRANCH   1  17
TORSDOF 8
