REMARK  Name = ZINC01009976
REMARK  8 active torsions:
REMARK  status: ('A' for Active; 'I' for Inactive)
REMARK    1  A    between atoms: C_1  and  C_2
REMARK    2  A    between atoms: C_9  and  C_11
REMARK    3  A    between atoms: C_12  and  C_33
REMARK    4  A    between atoms: C_16  and  C_18
REMARK    5  A    between atoms: C_21  and  O_26
REMARK    6  A    between atoms: C_23  and  O_24
REMARK    7  A    between atoms: O_24  and  C_25
REMARK    8  A    between atoms: O_26  and  C_27
REMARK                            x       y       z     vdW  Elec       q    Type
REMARK                         _______ _______ _______ _____ _____    ______ ____
ROOT
ATOM      1  C   UNL     1      -2.397   0.930   0.141  0.00  0.00    +0.043 C 
ATOM      2  C   UNL     1      -3.554   1.605   0.045  0.00  0.00    +0.014 C 
ATOM      3  N   UNL     1      -4.750   0.945   0.123  0.00  0.00    -0.321 N 
ATOM      4  C   UNL     1      -4.817  -0.406  -0.090  0.00  0.00    +0.015 C 
ATOM      5  C   UNL     1      -3.708  -1.171   0.009  0.00  0.00    +0.024 C 
ATOM      6  C   UNL     1      -2.376  -0.554   0.356  0.00  0.00    +0.094 C 
ATOM      7  C   UNL     1      -3.763  -2.559  -0.206  0.00  0.00    +0.162 C 
ATOM      8  O   UNL     1      -2.744  -3.216  -0.125  0.00  0.00    -0.292 OA
ATOM      9  C   UNL     1      -5.061  -3.245  -0.535  0.00  0.00    +0.080 C 
ATOM     10  C   UNL     1      -6.215  -2.451   0.085  0.00  0.00    +0.014 C 
ATOM     11  C   UNL     1      -6.152  -1.015  -0.438  0.00  0.00    +0.051 C 
ATOM     12  C   UNL     1      -3.536   3.099  -0.155  0.00  0.00    +0.061 C 
ATOM     13  H   UNL     1      -5.670   1.499   0.358  0.00  0.00    +0.152 HD
ENDROOT
BRANCH   1  22
ATOM     14  C   UNL     1       4.910   0.932   0.206  0.00  0.00    +0.044 C 
ATOM     15  C   UNL     1       3.591   1.654   0.118  0.00  0.00    -0.046 A 
ATOM     16  C   UNL     1       3.544   3.040   0.043  0.00  0.00    +0.023 A 
ATOM     17  C   UNL     1       2.319   3.672  -0.038  0.00  0.00    +0.113 A 
ATOM     18  N   UNL     1       1.198   2.975  -0.048  0.00  0.00    -0.240 NA
ATOM     19  C   UNL     1       1.201   1.654   0.027  0.00  0.00    +0.125 A 
ATOM     20  C   UNL     1       2.399   0.952   0.110  0.00  0.00    +0.047 A 
ATOM     21  N   UNL     1      -0.006   0.960   0.018  0.00  0.00    -0.267 N 
ATOM     22  C   UNL     1      -1.172   1.635   0.043  0.00  0.00    +0.248 C 
ATOM     23  O   UNL     1      -1.173   2.851  -0.018  0.00  0.00    -0.270 OA
ATOM     24  H   UNL     1      -0.008  -0.140  -0.010  0.00  0.00    +0.157 HD
ENDBRANCH   1  22
BRANCH   6  25
ATOM     25  C   UNL     1      -2.060  -0.841   1.801  0.00  0.00    +0.007 A 
ATOM     26  C   UNL     1      -2.892  -0.366   2.797  0.00  0.00    +0.012 A 
ATOM     27  C   UNL     1      -2.605  -0.627   4.123  0.00  0.00    +0.046 A 
ATOM     28  C   UNL     1      -1.479  -1.367   4.458  0.00  0.00    +0.124 A 
ATOM     29  C   UNL     1      -0.643  -1.845   3.460  0.00  0.00    +0.091 A 
ATOM     30  C   UNL     1      -0.937  -1.586   2.130  0.00  0.00    +0.128 A 
BRANCH  30  31
ATOM     31  O   UNL     1      -0.122  -2.057   1.150  0.00  0.00    -0.495 OA
ATOM     32  C   UNL     1       1.017  -2.817   1.562  0.00  0.00    +0.277 C 
ENDBRANCH  30  31
BRANCH  28  33
ATOM     33  O   UNL     1      -1.198  -1.625   5.762  0.00  0.00    -0.495 OA
ATOM     34  C   UNL     1      -2.103  -1.102   6.736  0.00  0.00    +0.277 C 
ENDBRANCH  28  33
ENDBRANCH   6  25
TORSDOF 4
