REMARK  Name = ZINC66682834
REMARK  9 active torsions:
REMARK  status: ('A' for Active; 'I' for Inactive)
REMARK    1  A    between atoms: C_1  and  C_2
REMARK    2  A    between atoms: C_4  and  N_14
REMARK    3  A    between atoms: C_7  and  C_8
REMARK    4  A    between atoms: N_10  and  C_11
REMARK    5  A    between atoms: C_11  and  C_12
REMARK    6  A    between atoms: C_11  and  C_13
REMARK    7  A    between atoms: N_17  and  C_18
REMARK    8  A    between atoms: C_18  and  C_20
REMARK    9  A    between atoms: C_18  and  C_21
REMARK                            x       y       z     vdW  Elec       q    Type
REMARK                         _______ _______ _______ _____ _____    ______ ____
ROOT
ATOM      1  N   UNL     1      -0.180  -2.767  -2.406  0.00  0.00    -0.269 N 
ATOM      2  C   UNL     1      -0.973  -2.286  -3.383  0.00  0.00    +0.304 C 
ATOM      3  O   UNL     1      -1.667  -1.310  -3.178  0.00  0.00    -0.252 OA
ATOM      4  N   UNL     1      -0.998  -2.889  -4.589  0.00  0.00    -0.290 N 
ATOM      5  H   UNL     1       0.317  -3.589  -2.544  0.00  0.00    +0.156 HD
ATOM      6  H   UNL     1      -0.444  -3.668  -4.753  0.00  0.00    +0.151 HD
ENDROOT
BRANCH   1  10
ATOM      7  C   UNL     1      -0.091   1.491   0.036  0.00  0.00    +0.044 C 
ATOM      8  C   UNL     1      -0.026  -0.014   0.017  0.00  0.00    -0.037 A 
ATOM      9  C   UNL     1      -0.132  -0.693  -1.177  0.00  0.00    +0.027 A 
ATOM     10  C   UNL     1      -0.072  -2.083  -1.196  0.00  0.00    +0.035 A 
ATOM     11  C   UNL     1       0.096  -2.792  -0.010  0.00  0.00    +0.024 A 
ATOM     12  C   UNL     1       0.202  -2.119   1.186  0.00  0.00    +0.015 A 
ATOM     13  C   UNL     1       0.147  -0.723   1.208  0.00  0.00    +0.040 A 
BRANCH  13  14
ATOM     14  C   UNL     1       0.267   0.002   2.489  0.00  0.00    +0.245 C 
ATOM     15  O   UNL     1       0.336   1.216   2.496  0.00  0.00    -0.270 OA
ATOM     16  N   UNL     1       0.299  -0.682   3.650  0.00  0.00    -0.309 N 
ATOM     17  H   UNL     1       0.243  -1.650   3.644  0.00  0.00    +0.149 HD
BRANCH  16  18
ATOM     18  C   UNL     1       0.417   0.037   4.920  0.00  0.00    +0.067 C 
ATOM     19  C   UNL     1      -0.971   0.478   5.388  0.00  0.00    +0.027 C 
ATOM     20  C   UNL     1       1.041  -0.884   5.971  0.00  0.00    +0.027 C 
ENDBRANCH  16  18
ENDBRANCH  13  14
ENDBRANCH   1  10
BRANCH   4  21
ATOM     21  C   UNL     1      -1.861  -2.366  -5.651  0.00  0.00    +0.137 C 
ATOM     22  C   UNL     1      -3.268  -2.946  -5.496  0.00  0.00    +0.036 C 
BRANCH  21  23
ATOM     23  C   UNL     1      -1.300  -2.761  -6.993  0.00  0.00    +0.126 A 
ATOM     24  C   UNL     1      -1.266  -1.969  -8.073  0.00  0.00    +0.055 A 
ATOM     25  C   UNL     1      -0.640  -2.758  -9.141  0.00  0.00    +0.020 A 
ATOM     26  C   UNL     1      -0.322  -2.514 -10.476  0.00  0.00    +0.011 A 
ATOM     27  C   UNL     1       0.275  -3.493 -11.220  0.00  0.00    +0.001 A 
ATOM     28  C   UNL     1       0.565  -4.726 -10.656  0.00  0.00    +0.004 A 
ATOM     29  C   UNL     1       0.258  -4.986  -9.337  0.00  0.00    +0.047 A 
ATOM     30  C   UNL     1      -0.349  -4.005  -8.563  0.00  0.00    +0.135 A 
ATOM     31  O   UNL     1      -0.756  -3.957  -7.279  0.00  0.00    -0.458 OA
ENDBRANCH  21  23
ENDBRANCH   4  21
TORSDOF 5
