REMARK  Name = ZINC12661476
REMARK  8 active torsions:
REMARK  status: ('A' for Active; 'I' for Inactive)
REMARK    1  A    between atoms: C_1  and  C_2
REMARK    2  A    between atoms: C_6  and  C_33
REMARK    3  A    between atoms: C_6  and  O_34
REMARK    4  A    between atoms: C_7  and  O_32
REMARK    5  A    between atoms: C_17  and  C_19
REMARK    6  A    between atoms: C_19  and  N_70
REMARK    7  A    between atoms: N_22  and  C_25
REMARK    8  A    between atoms: O_34  and  C_35
REMARK                            x       y       z     vdW  Elec       q    Type
REMARK                         _______ _______ _______ _____ _____    ______ ____
ROOT
ATOM      1  C   UNL     1       0.897   3.836  -2.563  0.00  0.00    +0.014 C 
ATOM      2  C   UNL     1       1.137   2.339  -2.749  0.00  0.00    +0.003 C 
ATOM      3  C   UNL     1       1.670   2.085  -4.165  0.00  0.00    +0.010 C 
ATOM      4  C   UNL     1       0.584   2.398  -5.192  0.00  0.00    +0.003 C 
ATOM      5  C   UNL     1      -0.619   1.486  -4.977  0.00  0.00    +0.037 C 
ATOM      6  C   UNL     1      -1.184   1.625  -3.565  0.00  0.00    +0.095 C 
ATOM      7  C   UNL     1      -0.101   1.486  -2.511  0.00  0.00    +0.100 C 
ATOM      8  C   UNL     1      -0.648   1.763  -1.108  0.00  0.00    +0.046 C 
ATOM      9  C   UNL     1       0.368   1.288  -0.068  0.00  0.00    +0.044 C 
ATOM     10  C   UNL     1       1.745   1.937  -0.318  0.00  0.00    +0.181 C 
ATOM     11  C   UNL     1       2.211   1.884  -1.749  0.00  0.00    +0.054 C 
ATOM     12  O   UNL     1       1.634   3.278   0.222  0.00  0.00    -0.461 OA
ATOM     13  C   UNL     1       0.687   3.318   1.180  0.00  0.00    +0.309 C 
ATOM     14  O   UNL     1       0.397   4.288   1.842  0.00  0.00    -0.251 OA
ATOM     15  C   UNL     1       0.029   1.955   1.294  0.00  0.00    +0.088 C 
ATOM     16  C   UNL     1      -1.978   2.922  -3.441  0.00  0.00    +0.044 C 
ENDROOT
BRANCH   7  17
ATOM     17  O   UNL     1       0.322   0.098  -2.521  0.00  0.00    -0.385 OA
ATOM     18  H   UNL     1      -0.397  -0.534  -2.377  0.00  0.00    +0.210 HD
ENDBRANCH   7  17
BRANCH   6  19
ATOM     19  O   UNL     1      -2.118   0.535  -3.378  0.00  0.00    -0.374 OA
ATOM     20  C   UNL     1      -3.204   0.535  -4.306  0.00  0.00    +0.194 C 
ENDBRANCH   6  19
BRANCH  15  21
ATOM     21  C   UNL     1      -1.473   2.084   1.522  0.00  0.00    -0.064 C 
BRANCH  21  27
ATOM     22  C   UNL     1      -1.295   1.648   3.897  0.00  0.00    -0.060 C 
ATOM     23  C   UNL     1      -1.495   2.263   5.284  0.00  0.00    +0.086 C 
ATOM     24  N   UNL     1      -2.909   2.624   5.458  0.00  0.00    -0.333 N 
ATOM     25  C   UNL     1      -3.334   3.586   4.431  0.00  0.00    +0.086 C 
ATOM     26  C   UNL     1      -3.134   2.970   3.045  0.00  0.00    -0.060 C 
ATOM     27  N   UNL     1      -1.705   2.633   2.875  0.00  0.00    +0.382 N 
ATOM     28  H   UNL     1      -1.145   3.486   2.989  0.00  0.00    -0.082 HD
BRANCH  24  29
ATOM     29  C   UNL     1      -3.144   3.124   6.741  0.00  0.00    +0.031 A 
ATOM     30  C   UNL     1      -2.811   2.365   7.856  0.00  0.00    +0.023 A 
ATOM     31  C   UNL     1      -3.044   2.862   9.123  0.00  0.00    +0.003 A 
ATOM     32  C   UNL     1      -3.608   4.114   9.283  0.00  0.00    +0.020 A 
ATOM     33  C   UNL     1      -3.941   4.873   8.175  0.00  0.00    +0.043 A 
ATOM     34  C   UNL     1      -3.706   4.383   6.904  0.00  0.00    +0.043 A 
ATOM     35 CL   UNL     1      -4.648   6.445   8.382  0.00  0.00    -0.083 Cl
ENDBRANCH  24  29
ENDBRANCH  21  27
ENDBRANCH  15  21
TORSDOF 5
