REMARK  Name = ZINC02068697
REMARK  6 active torsions:
REMARK  status: ('A' for Active; 'I' for Inactive)
REMARK    1  A    between atoms: C_4  and  C_7
REMARK    2  A    between atoms: N_9  and  C_10
REMARK    3  A    between atoms: C_10  and  C_17
REMARK    4  A    between atoms: C_11  and  C_12
REMARK    5  A    between atoms: N_19  and  N_20
REMARK    6  A    between atoms: C_21  and  C_22
REMARK                            x       y       z     vdW  Elec       q    Type
REMARK                         _______ _______ _______ _____ _____    ______ ____
ROOT
ATOM      1  C   UNL     1       1.871  -2.714   0.086  0.00  0.00    +0.099 C 
ATOM      2  C   UNL     1       2.507  -1.519  -0.052  0.00  0.00    +0.043 C 
ENDROOT
BRANCH   2   3
ATOM      3  C   UNL     1       1.762  -0.315  -0.049  0.00  0.00    +0.014 A 
ATOM      4  C   UNL     1       2.217   0.997  -0.080  0.00  0.00    +0.015 A 
ATOM      5  C   UNL     1       1.289   2.008  -0.070  0.00  0.00    +0.008 A 
ATOM      6  C   UNL     1      -0.035   1.698  -0.029  0.00  0.00    +0.046 A 
ATOM      7  S   UNL     1      -0.008  -0.087  -0.004  0.00  0.00    -0.097 S 
ENDBRANCH   2   3
BRANCH   1  10
ATOM      8  C   UNL     1       1.986  -5.087   0.223  0.00  0.00    +0.248 C 
ATOM      9  O   UNL     1       0.784  -5.144   0.055  0.00  0.00    -0.270 OA
ATOM     10  N   UNL     1       2.615  -3.895   0.196  0.00  0.00    -0.277 N 
ATOM     11  H   UNL     1       3.582  -3.855   0.252  0.00  0.00    +0.155 HD
BRANCH   8  15
ATOM     12  C   UNL     1       4.208  -8.644   0.898  0.00  0.00    +0.000 A 
ATOM     13  C   UNL     1       2.839  -8.712   0.707  0.00  0.00    +0.001 A 
ATOM     14  C   UNL     1       2.112  -7.561   0.487  0.00  0.00    +0.013 A 
ATOM     15  C   UNL     1       2.760  -6.325   0.458  0.00  0.00    +0.037 A 
ATOM     16  C   UNL     1       4.141  -6.263   0.645  0.00  0.00    +0.013 A 
ATOM     17  C   UNL     1       4.856  -7.422   0.870  0.00  0.00    +0.001 A 
ENDBRANCH   8  15
ENDBRANCH   1  10
BRANCH   1  18
ATOM     18  C   UNL     1       0.409  -2.764   0.120  0.00  0.00    +0.277 C 
ATOM     19  O   UNL     1      -0.176  -2.764   1.189  0.00  0.00    -0.267 OA
ATOM     20  N   UNL     1      -0.291  -2.810  -1.031  0.00  0.00    -0.202 N 
ATOM     21  H   UNL     1       0.174  -2.883  -1.879  0.00  0.00    +0.178 HD
BRANCH  20  22
ATOM     22  N   UNL     1      -1.691  -2.753  -1.002  0.00  0.00    -0.187 NA
ATOM     23  C   UNL     1      -2.368  -2.895  -2.101  0.00  0.00    +0.141 C 
BRANCH  23  24
ATOM     24  C   UNL     1      -3.832  -2.726  -2.090  0.00  0.00    +0.032 A 
ATOM     25  C   UNL     1      -4.564  -2.877  -3.263  0.00  0.00    +0.022 A 
ATOM     26  C   UNL     1      -5.957  -2.705  -3.198  0.00  0.00    +0.001 A 
ATOM     27  C   UNL     1      -6.762  -2.842  -4.342  0.00  0.00    +0.010 A 
ATOM     28  C   UNL     1      -8.109  -2.669  -4.242  0.00  0.00    +0.001 A 
ATOM     29  C   UNL     1      -8.700  -2.358  -3.019  0.00  0.00    +0.002 A 
ATOM     30  C   UNL     1      -7.951  -2.218  -1.891  0.00  0.00    +0.028 A 
ATOM     31  C   UNL     1      -6.557  -2.388  -1.953  0.00  0.00    +0.073 A 
ATOM     32  N   UNL     1      -5.802  -2.255  -0.856  0.00  0.00    -0.235 NA
ATOM     33  C   UNL     1      -4.503  -2.416  -0.891  0.00  0.00    +0.139 A 
ATOM     34 CL   UNL     1      -3.586  -2.235   0.572  0.00  0.00    -0.061 Cl
ENDBRANCH  23  24
ENDBRANCH  20  22
ENDBRANCH   1  18
TORSDOF 6
