REMARK  Name = ZINC21869334
REMARK  10 active torsions:
REMARK  status: ('A' for Active; 'I' for Inactive)
REMARK    1  A    between atoms: C_1  and  C_2
REMARK    2  A    between atoms: C_5  and  N_9
REMARK    3  A    between atoms: C_7  and  C_8
REMARK    4  A    between atoms: C_10  and  C_12
REMARK    5  A    between atoms: C_12  and  C_14
REMARK    6  A    between atoms: C_12  and  N_17
REMARK    7  A    between atoms: C_14  and  C_15
REMARK    8  A    between atoms: C_14  and  C_16
REMARK    9  A    between atoms: N_17  and  S_18
REMARK   10  A    between atoms: S_18  and  C_21
REMARK                            x       y       z     vdW  Elec       q    Type
REMARK                         _______ _______ _______ _____ _____    ______ ____
ROOT
ATOM      1  C   UNL     1       4.352   0.136  -2.406  0.00  0.00    +0.165 C 
ENDROOT
BRANCH   1   3
ATOM      2  N   UNL     1       3.694   0.967  -4.641  0.00  0.00    -0.284 N 
ATOM      3  C   UNL     1       3.588   0.009  -3.699  0.00  0.00    +0.236 C 
ATOM      4  O   UNL     1       2.879  -0.955  -3.892  0.00  0.00    -0.274 OA
ATOM      5  H   UNL     1       4.295   1.868  -4.444  0.00  0.00    +0.155 HD
BRANCH   2  10
ATOM      6  C   UNL     1       1.043   0.356  -9.619  0.00  0.00    +0.044 C 
ATOM      7  C   UNL     1       1.748   0.518  -8.297  0.00  0.00    -0.047 A 
ATOM      8  C   UNL     1       2.251  -0.591  -7.642  0.00  0.00    +0.005 A 
ATOM      9  C   UNL     1       2.902  -0.445  -6.433  0.00  0.00    +0.023 A 
ATOM     10  C   UNL     1       3.041   0.817  -5.869  0.00  0.00    +0.034 A 
ATOM     11  C   UNL     1       2.535   1.928  -6.529  0.00  0.00    +0.027 A 
ATOM     12  C   UNL     1       1.890   1.776  -7.741  0.00  0.00    -0.046 A 
ATOM     13  C   UNL     1       1.341   2.983  -8.458  0.00  0.00    +0.044 C 
ENDBRANCH   2  10
ENDBRANCH   1   3
BRANCH   1  14
ATOM     14  C   UNL     1       5.852   0.198  -2.703  0.00  0.00    +0.010 C 
ATOM     15  C   UNL     1       6.621   0.419  -1.400  0.00  0.00    +0.009 C 
ATOM     16  C   UNL     1       6.300  -1.118  -3.342  0.00  0.00    +0.009 C 
ENDBRANCH   1  14
BRANCH   1  17
ATOM     17  N   UNL     1       4.070  -1.024  -1.557  0.00  0.00    -0.178 NA
ATOM     18  H   UNL     1       4.104  -2.038  -1.982  0.00  0.00    +0.149 HD
BRANCH  17  19
ATOM     19  S   UNL     1       3.461  -0.806  -0.032  0.00  0.00    +0.059 S 
ATOM     20  O   UNL     1       4.263   0.192   0.586  0.00  0.00    -0.153 OA
ATOM     21  O   UNL     1       3.291  -2.101   0.527  0.00  0.00    -0.153 OA
BRANCH  19  22
ATOM     22  C   UNL     1       1.849  -0.118  -0.209  0.00  0.00    +0.109 A 
ATOM     23  C   UNL     1       0.750  -0.951  -0.307  0.00  0.00    +0.032 A 
ATOM     24  C   UNL     1      -0.516  -0.416  -0.446  0.00  0.00    +0.051 A 
ATOM     25  C   UNL     1      -0.688   0.960  -0.488  0.00  0.00    +0.162 A 
ATOM     26  C   UNL     1       0.416   1.798  -0.388  0.00  0.00    +0.164 A 
ATOM     27  C   UNL     1       1.684   1.254  -0.249  0.00  0.00    +0.078 A 
ATOM     28  O   UNL     1       0.269   3.151  -0.419  0.00  0.00    -0.485 OA
ATOM     29  C   UNL     1      -0.970   3.652  -0.933  0.00  0.00    +0.270 C 
ATOM     30  C   UNL     1      -2.114   2.853  -0.294  0.00  0.00    +0.270 C 
ATOM     31  O   UNL     1      -1.940   1.473  -0.634  0.00  0.00    -0.485 OA
ENDBRANCH  19  22
ENDBRANCH  17  19
ENDBRANCH   1  17
TORSDOF 6
