REMARK  Name = ZINC08599482
REMARK  13 active torsions:
REMARK  status: ('A' for Active; 'I' for Inactive)
REMARK    1  A    between atoms: C_1  and  C_2
REMARK    2  A    between atoms: C_2  and  C_3
REMARK    3  A    between atoms: C_3  and  C_4
REMARK    4  A    between atoms: C_4  and  N_5
REMARK    5  A    between atoms: N_5  and  C_6
REMARK    6  A    between atoms: C_7  and  C_9
REMARK    7  A    between atoms: C_9  and  C_11
REMARK    8  A    between atoms: C_9  and  N_18
REMARK    9  A    between atoms: C_11  and  C_12
REMARK   10  A    between atoms: N_18  and  S_19
REMARK   11  A    between atoms: S_19  and  C_22
REMARK   12  A    between atoms: N_30  and  C_35
REMARK   13  A    between atoms: N_33  and  C_34
REMARK                            x       y       z     vdW  Elec       q    Type
REMARK                         _______ _______ _______ _____ _____    ______ ____
ROOT
ATOM      1  N   UNL     1       0.350  -4.144  -5.831  0.00  0.00    -0.178 NA
ATOM      2  H   UNL     1      -0.360  -3.558  -6.138  0.00  0.00    +0.149 HD
ENDROOT
BRANCH   1   3
ATOM      3  S   UNL     1       0.540  -5.642  -6.511  0.00  0.00    +0.059 S 
ATOM      4  O   UNL     1      -0.490  -5.782  -7.480  0.00  0.00    -0.153 OA
ATOM      5  O   UNL     1       1.917  -5.767  -6.840  0.00  0.00    -0.153 OA
BRANCH   3   6
ATOM      6  C   UNL     1       0.212  -6.831  -5.253  0.00  0.00    +0.106 A 
ATOM      7  C   UNL     1       1.246  -7.285  -4.448  0.00  0.00    +0.030 A 
ATOM      8  C   UNL     1       1.009  -8.216  -3.456  0.00  0.00    +0.028 A 
ATOM      9  C   UNL     1      -0.274  -8.703  -3.262  0.00  0.00    +0.058 A 
ATOM     10  C   UNL     1      -1.323  -8.244  -4.078  0.00  0.00    +0.065 A 
ATOM     11  C   UNL     1      -1.072  -7.300  -5.071  0.00  0.00    +0.043 A 
ATOM     12  C   UNL     1      -2.675  -8.782  -3.844  0.00  0.00    +0.264 A 
ATOM     13  O   UNL     1      -3.617  -8.418  -4.521  0.00  0.00    -0.267 OA
ATOM     14  N   UNL     1      -2.841  -9.690  -2.858  0.00  0.00    -0.263 N 
ATOM     15  C   UNL     1      -1.807 -10.097  -2.105  0.00  0.00    +0.332 A 
ATOM     16  O   UNL     1      -2.011 -10.917  -1.230  0.00  0.00    -0.246 OA
ATOM     17  N   UNL     1      -0.555  -9.638  -2.277  0.00  0.00    -0.296 N 
ATOM     18  C   UNL     1       0.523 -10.131  -1.416  0.00  0.00    +0.154 C 
ATOM     19  C   UNL     1      -4.175 -10.240  -2.604  0.00  0.00    +0.157 C 
ENDBRANCH   3   6
ENDBRANCH   1   3
BRANCH   1  20
ATOM     20  C   UNL     1       1.254  -3.704  -4.766  0.00  0.00    +0.166 C 
BRANCH  20  23
ATOM     21  N   UNL     1       1.030  -2.576  -2.576  0.00  0.00    -0.303 N 
ATOM     22  C   UNL     1       2.391  -3.017  -2.261  0.00  0.00    +0.132 C 
ATOM     23  C   UNL     1       0.492  -2.856  -3.780  0.00  0.00    +0.234 C 
ATOM     24  O   UNL     1      -0.604  -2.426  -4.069  0.00  0.00    -0.274 OA
BRANCH  21  25
ATOM     25  C   UNL     1       0.253  -1.830  -1.583  0.00  0.00    +0.107 C 
BRANCH  25  26
ATOM     26  C   UNL     1       0.505  -0.331  -1.759  0.00  0.00    +0.019 C 
BRANCH  26  28
ATOM     27  C   UNL     1      -0.054   1.947  -0.898  0.00  0.00    +0.004 C 
ATOM     28  C   UNL     1      -0.306   0.448  -0.722  0.00  0.00    -0.002 C 
ENDBRANCH  26  28
ENDBRANCH  25  26
ENDBRANCH  21  25
ENDBRANCH  20  23
BRANCH  20  29
ATOM     29  C   UNL     1       2.394  -2.882  -5.372  0.00  0.00    +0.065 C 
BRANCH  29  30
ATOM     30  C   UNL     1       3.163  -3.734  -6.348  0.00  0.00    -0.045 A 
ATOM     31  C   UNL     1       4.238  -4.485  -5.912  0.00  0.00    +0.004 A 
ATOM     32  C   UNL     1       4.944  -5.266  -6.808  0.00  0.00    +0.000 A 
ATOM     33  C   UNL     1       4.574  -5.296  -8.139  0.00  0.00    +0.000 A 
ATOM     34  C   UNL     1       3.498  -4.546  -8.575  0.00  0.00    +0.000 A 
ATOM     35  C   UNL     1       2.790  -3.768  -7.679  0.00  0.00    +0.004 A 
ENDBRANCH  29  30
ENDBRANCH  20  29
ENDBRANCH   1  20
TORSDOF 9
