REMARK  Name = ZINC21120804
REMARK  8 active torsions:
REMARK  status: ('A' for Active; 'I' for Inactive)
REMARK    1  A    between atoms: C_1  and  C_2
REMARK    2  A    between atoms: C_2  and  N_3
REMARK    3  A    between atoms: C_7  and  C_9
REMARK    4  A    between atoms: C_9  and  C_11
REMARK    5  A    between atoms: C_9  and  S_12
REMARK    6  A    between atoms: S_12  and  C_13
REMARK    7  A    between atoms: N_23  and  C_24
REMARK    8  A    between atoms: C_29  and  C_30
REMARK                            x       y       z     vdW  Elec       q    Type
REMARK                         _______ _______ _______ _____ _____    ______ ____
ROOT
ATOM      1  C   UNL     1      -3.007   0.687   1.208  0.00  0.00    +0.177 A 
ATOM      2  N   UNL     1      -4.132   0.020   1.284  0.00  0.00    -0.223 NA
ATOM      3  C   UNL     1      -4.802  -0.368   0.174  0.00  0.00    +0.079 A 
ATOM      4  C   UNL     1      -6.003  -1.080   0.254  0.00  0.00    +0.028 A 
ATOM      5  C   UNL     1      -6.646  -1.451  -0.893  0.00  0.00    +0.002 A 
ATOM      6  C   UNL     1      -6.125  -1.131  -2.140  0.00  0.00    +0.001 A 
ATOM      7  C   UNL     1      -4.952  -0.436  -2.251  0.00  0.00    +0.015 A 
ATOM      8  C   UNL     1      -4.274  -0.045  -1.097  0.00  0.00    +0.065 A 
ATOM      9  C   UNL     1      -3.015   0.709  -1.155  0.00  0.00    +0.267 A 
ATOM     10  O   UNL     1      -2.514   1.020  -2.220  0.00  0.00    -0.267 OA
ATOM     11  N   UNL     1      -2.429   1.040   0.019  0.00  0.00    -0.255 N 
ENDROOT
BRANCH  11  12
ATOM     12  C   UNL     1      -1.224   1.754   0.017  0.00  0.00    +0.064 A 
ATOM     13  C   UNL     1      -0.013   1.076   0.008  0.00  0.00    +0.027 A 
ATOM     14  C   UNL     1       1.173   1.783   0.000  0.00  0.00    +0.002 A 
ATOM     15  C   UNL     1       1.155   3.166   0.008  0.00  0.00    +0.001 A 
ATOM     16  C   UNL     1      -0.049   3.845   0.023  0.00  0.00    +0.014 A 
ATOM     17  C   UNL     1      -1.239   3.143   0.031  0.00  0.00    +0.079 A 
BRANCH  17  18
ATOM     18  C   UNL     1      -2.551   3.883   0.048  0.00  0.00    +0.419 C 
ATOM     19  F   UNL     1      -2.309   5.261   0.053  0.00  0.00    -0.166 F 
ATOM     20  F   UNL     1      -3.293   3.544  -1.089  0.00  0.00    -0.166 F 
ATOM     21  F   UNL     1      -3.270   3.531   1.195  0.00  0.00    -0.166 F 
ENDBRANCH  17  18
ENDBRANCH  11  12
BRANCH   1  22
ATOM     22  S   UNL     1      -2.201   1.151   2.704  0.00  0.00    -0.075 S 
BRANCH  22  23
ATOM     23  C   UNL     1      -3.357   0.456   3.912  0.00  0.00    +0.137 C 
ATOM     24  C   UNL     1      -3.368  -1.069   3.788  0.00  0.00    +0.029 C 
BRANCH  23  29
ATOM     25  N   UNL     1      -4.304   1.107   8.580  0.00  0.00    -0.299 N 
ATOM     26  C   UNL     1      -3.420   1.149   7.563  0.00  0.00    +0.306 C 
ATOM     27  O   UNL     1      -2.275   1.500   7.767  0.00  0.00    -0.252 OA
ATOM     28  N   UNL     1      -3.807   0.802   6.319  0.00  0.00    -0.239 N 
ATOM     29  C   UNL     1      -2.924   0.845   5.302  0.00  0.00    +0.233 C 
ATOM     30  O   UNL     1      -1.782   1.195   5.506  0.00  0.00    -0.274 OA
ATOM     31  H   UNL     1      -5.340   0.789   8.395  0.00  0.00    +0.150 HD
ATOM     32  H   UNL     1      -4.844   0.484   6.135  0.00  0.00    +0.159 HD
BRANCH  25  34
ATOM     33  C   UNL     1      -5.067   1.349  10.891  0.00  0.00    +0.024 C 
ATOM     34  C   UNL     1      -3.883   1.484   9.931  0.00  0.00    +0.102 C 
ENDBRANCH  25  34
ENDBRANCH  23  29
ENDBRANCH  22  23
ENDBRANCH   1  22
TORSDOF 6
