REMARK  Name = ZINC38903373
REMARK  11 active torsions:
REMARK  status: ('A' for Active; 'I' for Inactive)
REMARK    1  A    between atoms: C_1  and  C_2
REMARK    2  A    between atoms: C_9  and  C_14
REMARK    3  A    between atoms: C_14  and  N_15
REMARK    4  A    between atoms: N_15  and  C_16
REMARK    5  A    between atoms: C_18  and  C_23
REMARK    6  A    between atoms: C_21  and  C_22
REMARK    7  A    between atoms: C_24  and  C_26
REMARK    8  A    between atoms: C_29  and  C_32
REMARK    9  A    between atoms: C_32  and  C_33
REMARK   10  A    between atoms: C_32  and  C_34
REMARK   11  A    between atoms: C_32  and  C_35
REMARK                            x       y       z     vdW  Elec       q    Type
REMARK                         _______ _______ _______ _____ _____    ______ ____
ROOT
ATOM      1  N   UNL     1      -1.224  -6.478   2.978  0.00  0.00    -0.266 N 
ATOM      2  C   UNL     1      -1.206  -7.000   1.736  0.00  0.00    +0.251 C 
ATOM      3  O   UNL     1      -1.603  -6.341   0.794  0.00  0.00    -0.270 OA
ENDROOT
BRANCH   1   4
ATOM      4  C   UNL     1      -0.828  -7.257   4.070  0.00  0.00    +0.040 A 
ATOM      5  C   UNL     1       0.391  -7.018   4.691  0.00  0.00    +0.027 A 
ATOM      6  C   UNL     1       0.779  -7.789   5.768  0.00  0.00    -0.049 A 
ATOM      7  C   UNL     1      -0.045  -8.800   6.229  0.00  0.00    +0.004 A 
ATOM      8  C   UNL     1      -1.259  -9.041   5.614  0.00  0.00    +0.005 A 
ATOM      9  C   UNL     1      -1.656  -8.269   4.540  0.00  0.00    -0.029 A 
ATOM     10  C   UNL     1      -2.983  -8.528   3.874  0.00  0.00    +0.045 C 
ATOM     11  C   UNL     1       2.102  -7.530   6.442  0.00  0.00    +0.044 C 
ENDBRANCH   1   4
BRANCH   2  12
ATOM     12  C   UNL     1      -0.703  -8.373   1.518  0.00  0.00    +0.037 A 
ATOM     13  C   UNL     1      -1.228  -9.157   0.490  0.00  0.00    +0.013 A 
ATOM     14  C   UNL     1      -0.754 -10.437   0.292  0.00  0.00    +0.005 A 
ATOM     15  C   UNL     1       0.239 -10.945   1.111  0.00  0.00    -0.042 A 
ATOM     16  C   UNL     1       0.764 -10.173   2.132  0.00  0.00    +0.005 A 
ATOM     17  C   UNL     1       0.304  -8.888   2.337  0.00  0.00    +0.013 A 
BRANCH  15  18
ATOM     18  C   UNL     1       0.751 -12.345   0.889  0.00  0.00    -0.013 C 
ATOM     19  C   UNL     1       1.338 -12.456  -0.519  0.00  0.00    +0.015 C 
ATOM     20  C   UNL     1       1.837 -12.659   1.920  0.00  0.00    +0.015 C 
ATOM     21  C   UNL     1      -0.401 -13.339   1.043  0.00  0.00    +0.015 C 
ENDBRANCH  15  18
ENDBRANCH   2  12
BRANCH   1  22
ATOM     22  C   UNL     1      -1.659  -5.094   3.185  0.00  0.00    +0.131 C 
BRANCH  22  31
ATOM     23  C   UNL     1      -1.261   2.035   3.067  0.00  0.00    +0.044 C 
ATOM     24  C   UNL     1      -0.857   0.657   2.611  0.00  0.00    -0.050 A 
ATOM     25  C   UNL     1      -0.266   0.498   1.357  0.00  0.00    +0.005 A 
ATOM     26  C   UNL     1       0.124  -0.712   0.879  0.00  0.00    +0.024 A 
ATOM     27  C   UNL     1      -0.057  -1.877   1.649  0.00  0.00    +0.040 A 
ATOM     28  N   UNL     1       0.331  -3.058   1.170  0.00  0.00    -0.284 N 
ATOM     29  C   UNL     1       0.190  -4.190   1.839  0.00  0.00    +0.226 C 
ATOM     30  O   UNL     1       0.563  -5.240   1.350  0.00  0.00    -0.275 OA
ATOM     31  C   UNL     1      -0.436  -4.175   3.216  0.00  0.00    +0.116 C 
ATOM     32  C   UNL     1      -0.879  -2.833   3.765  0.00  0.00    -0.003 C 
ATOM     33  C   UNL     1      -0.678  -1.738   2.977  0.00  0.00    -0.007 A 
ATOM     34  C   UNL     1      -1.071  -0.404   3.432  0.00  0.00    +0.012 A 
ATOM     35  H   UNL     1       0.735  -3.090   0.289  0.00  0.00    +0.155 HD
ENDBRANCH  22  31
ENDBRANCH   1  22
TORSDOF 5
