REMARK  Name = ZINC02639982
REMARK  2 active torsions:
REMARK  status: ('A' for Active; 'I' for Inactive)
REMARK    1  A    between atoms: N_13  and  C_17
REMARK    2  A    between atoms: C_17  and  C_18
REMARK                            x       y       z     vdW  Elec       q    Type
REMARK                         _______ _______ _______ _____ _____    ______ ____
ROOT
ATOM      1  C   UNL     1       9.192  -1.570  -4.144  0.00  0.00    +0.000 A 
ATOM      2  C   UNL     1       8.620  -1.756  -2.899  0.00  0.00    +0.000 A 
ATOM      3  C   UNL     1       7.282  -1.477  -2.711  0.00  0.00    +0.006 A 
ATOM      4  C   UNL     1       6.504  -1.010  -3.762  0.00  0.00    -0.012 A 
ATOM      5  C   UNL     1       7.075  -0.819  -5.002  0.00  0.00    -0.042 A 
ATOM      6  C   UNL     1       8.421  -1.104  -5.189  0.00  0.00    +0.004 A 
ATOM      7  C   UNL     1       6.295  -0.298  -6.179  0.00  0.00    +0.035 C 
ATOM      8  C   UNL     1       4.794  -0.457  -5.948  0.00  0.00    +0.008 C 
ATOM      9  C   UNL     1       4.446   0.150  -4.583  0.00  0.00    +0.040 C 
ATOM     10  C   UNL     1       5.051  -0.730  -3.497  0.00  0.00    +0.138 C 
ATOM     11  C   UNL     1       4.883  -0.082  -2.141  0.00  0.00    +0.251 C 
ATOM     12  O   UNL     1       5.335   0.982  -1.776  0.00  0.00    -0.272 OA
ATOM     13  N   UNL     1       4.125  -0.937  -1.424  0.00  0.00    -0.220 N 
ATOM     14  C   UNL     1       3.802  -2.024  -2.134  0.00  0.00    +0.310 C 
ATOM     15  O   UNL     1       3.128  -2.938  -1.701  0.00  0.00    -0.252 OA
ATOM     16  N   UNL     1       4.303  -1.990  -3.383  0.00  0.00    -0.281 N 
ATOM     17  H   UNL     1       4.195  -2.666  -4.071  0.00  0.00    +0.152 HD
ENDROOT
BRANCH  13  18
ATOM     18  C   UNL     1       3.712  -0.706  -0.037  0.00  0.00    +0.153 C 
BRANCH  18  19
ATOM     19  C   UNL     1       2.397   0.029  -0.021  0.00  0.00    -0.028 A 
ATOM     20  C   UNL     1       2.378   1.412  -0.013  0.00  0.00    +0.007 A 
ATOM     21  C   UNL     1       1.172   2.087   0.002  0.00  0.00    +0.022 A 
ATOM     22  C   UNL     1      -0.017   1.380   0.010  0.00  0.00    +0.059 A 
ATOM     23  C   UNL     1       0.002  -0.004   0.002  0.00  0.00    +0.060 A 
ATOM     24  C   UNL     1       1.210  -0.679  -0.013  0.00  0.00    +0.026 A 
ATOM     25 CL   UNL     1      -1.489  -0.893   0.011  0.00  0.00    -0.082 Cl
ATOM     26 CL   UNL     1      -1.532   2.228   0.021  0.00  0.00    -0.082 Cl
ENDBRANCH  18  19
ENDBRANCH  13  18
TORSDOF 2
