REMARK  Name = ZINC00662649
REMARK  7 active torsions:
REMARK  status: ('A' for Active; 'I' for Inactive)
REMARK    1  A    between atoms: C_1  and  O_2
REMARK    2  A    between atoms: O_2  and  C_3
REMARK    3  A    between atoms: C_5  and  N_12
REMARK    4  A    between atoms: C_7  and  N_9
REMARK    5  A    between atoms: C_13  and  C_15
REMARK    6  A    between atoms: C_20  and  C_33
REMARK    7  A    between atoms: C_23  and  C_26
REMARK                            x       y       z     vdW  Elec       q    Type
REMARK                         _______ _______ _______ _____ _____    ______ ____
ROOT
ATOM      1  C   UNL     1       1.123   1.912  -0.160  0.00  0.00    +0.149 A 
ATOM      2  C   UNL     1       0.005   1.061  -0.317  0.00  0.00    +0.078 A 
ATOM      3  C   UNL     1      -1.101   1.826  -0.242  0.00  0.00    +0.119 A 
ATOM      4  N   UNL     1      -0.712   3.119  -0.033  0.00  0.00    -0.238 N 
ATOM      5  N   UNL     1       0.681   3.146   0.009  0.00  0.00    -0.164 NA
ATOM      6  C   UNL     1      -1.649   4.237   0.110  0.00  0.00    +0.215 C 
ATOM      7  C   UNL     1      -3.030   3.683   0.476  0.00  0.00    +0.063 C 
ATOM      8  C   UNL     1      -3.414   2.557  -0.490  0.00  0.00    +0.104 C 
ATOM      9  N   UNL     1      -2.446   1.454  -0.333  0.00  0.00    -0.322 N 
ATOM     10  H   UNL     1      -2.726   0.525  -0.299  0.00  0.00    +0.148 HD
ENDROOT
BRANCH   8  11
ATOM     11  C   UNL     1      -4.801   2.063  -0.167  0.00  0.00    -0.027 A 
ATOM     12  C   UNL     1      -4.993   1.177   0.876  0.00  0.00    +0.006 A 
ATOM     13  C   UNL     1      -6.265   0.727   1.176  0.00  0.00    +0.015 A 
ATOM     14  C   UNL     1      -7.345   1.156   0.425  0.00  0.00    +0.018 A 
ATOM     15  C   UNL     1      -7.151   2.039  -0.622  0.00  0.00    +0.015 A 
ATOM     16  C   UNL     1      -5.879   2.492  -0.918  0.00  0.00    +0.006 A 
ATOM     17 BR   UNL     1      -9.084   0.536   0.830  0.00  0.00    -0.050 Br
ENDBRANCH   8  11
BRANCH   1  19
ATOM     18  N   UNL     1       3.515   2.410  -0.019  0.00  0.00    -0.280 N 
ATOM     19  C   UNL     1       2.540   1.494  -0.182  0.00  0.00    +0.268 C 
ATOM     20  O   UNL     1       2.826   0.324  -0.346  0.00  0.00    -0.268 OA
ATOM     21  H   UNL     1       3.291   3.352   0.036  0.00  0.00    +0.155 HD
BRANCH  18  24
ATOM     22  C   UNL     1       6.491   0.389   0.754  0.00  0.00    +0.124 A 
ATOM     23  C   UNL     1       5.167   0.792   0.672  0.00  0.00    +0.069 A 
ATOM     24  C   UNL     1       4.850   2.002   0.071  0.00  0.00    +0.039 A 
ATOM     25  C   UNL     1       5.860   2.811  -0.436  0.00  0.00    +0.056 A 
ATOM     26  C   UNL     1       7.178   2.407  -0.347  0.00  0.00    +0.131 A 
ATOM     27  C   UNL     1       7.496   1.200   0.246  0.00  0.00    +0.078 A 
BRANCH  26  28
ATOM     28  N   UNL     1       8.252   3.270  -0.888  0.00  0.00    +0.057 N 
ATOM     29  O   UNL     1       7.974   4.335  -1.410  0.00  0.00    -0.126 OA
ATOM     30  O   UNL     1       9.415   2.916  -0.810  0.00  0.00    -0.126 OA
ENDBRANCH  26  28
BRANCH  22  32
ATOM     31  C   UNL     1       8.189  -1.148   1.392  0.00  0.00    +0.277 C 
ATOM     32  O   UNL     1       6.805  -0.798   1.337  0.00  0.00    -0.495 OA
ENDBRANCH  22  32
ENDBRANCH  18  24
ENDBRANCH   1  19
BRANCH   6  33
ATOM     33  C   UNL     1      -1.163   5.175   1.216  0.00  0.00    +0.412 C 
ATOM     34  F   UNL     1       0.104   5.668   0.887  0.00  0.00    -0.168 F 
ATOM     35  F   UNL     1      -2.058   6.241   1.351  0.00  0.00    -0.168 F 
ATOM     36  F   UNL     1      -1.090   4.472   2.424  0.00  0.00    -0.168 F 
ENDBRANCH   6  33
TORSDOF 6
