REMARK  Name = ZINC09672520
REMARK  9 active torsions:
REMARK  status: ('A' for Active; 'I' for Inactive)
REMARK    1  A    between atoms: C_1  and  C_2
REMARK    2  A    between atoms: C_5  and  N_8
REMARK    3  A    between atoms: C_9  and  C_32
REMARK    4  A    between atoms: C_12  and  S_13
REMARK    5  A    between atoms: S_13  and  C_14
REMARK    6  A    between atoms: C_14  and  C_15
REMARK    7  A    between atoms: N_17  and  C_18
REMARK    8  A    between atoms: C_22  and  S_24
REMARK    9  A    between atoms: S_24  and  N_27
REMARK                            x       y       z     vdW  Elec       q    Type
REMARK                         _______ _______ _______ _____ _____    ______ ____
ROOT
ATOM      1  C   UNL     1       1.085   5.931   0.123  0.00  0.00    +0.227 C 
ATOM      2  O   UNL     1       2.146   5.342   0.111  0.00  0.00    -0.275 OA
ATOM      3  N   UNL     1      -0.069   5.242   0.029  0.00  0.00    -0.285 N 
ATOM      4  H   UNL     1      -0.913   5.715  -0.028  0.00  0.00    +0.155 HD
ENDROOT
BRANCH   3   5
ATOM      5  C   UNL     1      -0.050   3.842   0.014  0.00  0.00    +0.035 A 
ATOM      6  C   UNL     1       0.993   3.168  -0.609  0.00  0.00    +0.023 A 
ATOM      7  C   UNL     1       1.009   1.787  -0.622  0.00  0.00    +0.004 A 
ATOM      8  C   UNL     1      -0.011   1.076  -0.016  0.00  0.00    +0.029 A 
ATOM      9  C   UNL     1      -1.052   1.745   0.601  0.00  0.00    +0.110 A 
ATOM     10  C   UNL     1      -1.071   3.126   0.622  0.00  0.00    +0.052 A 
BRANCH   9  11
ATOM     11  S   UNL     1      -2.352   0.834   1.366  0.00  0.00    +0.073 S 
ATOM     12  O   UNL     1      -3.485   1.692   1.397  0.00  0.00    -0.150 OA
ATOM     13  O   UNL     1      -2.379  -0.441   0.739  0.00  0.00    -0.150 OA
BRANCH  11  14
ATOM     14  N   UNL     1      -1.909   0.578   2.941  0.00  0.00    -0.205 N 
ATOM     15  C   UNL     1      -1.774   1.639   3.796  0.00  0.00    +0.088 C 
ATOM     16  C   UNL     1      -1.754   3.786   4.593  0.00  0.00    +0.114 C 
ATOM     17  C   UNL     1      -0.968   2.964   5.640  0.00  0.00    +0.028 C 
ATOM     18  C   UNL     1      -1.382   1.522   5.252  0.00  0.00    +0.072 C 
ATOM     19  H   UNL     1      -1.745  -0.324   3.258  0.00  0.00    +0.175 HD
ATOM     20  N   UNL     1      -1.976   2.874   3.451  0.00  0.00    -0.375 N 
ATOM     21  H   UNL     1      -2.252   3.177   2.510  0.00  0.00    +0.161 HD
ENDBRANCH  11  14
ENDBRANCH   9  11
ENDBRANCH   3   5
BRANCH   1  22
ATOM     22  C   UNL     1       1.059   7.433   0.245  0.00  0.00    +0.173 C 
BRANCH  22  23
ATOM     23  S   UNL     1       2.753   8.059   0.352  0.00  0.00    -0.076 S 
BRANCH  23  28
ATOM     24  N   UNL     1       3.365  10.782   0.594  0.00  0.00    -0.274 N 
ATOM     25  C   UNL     1       2.653  11.950   0.665  0.00  0.00    +0.135 A 
ATOM     26  N   UNL     1       1.390  11.637   0.597  0.00  0.00    -0.133 NA
ATOM     27  N   UNL     1       1.254  10.365   0.484  0.00  0.00    -0.122 NA
ATOM     28  C   UNL     1       2.433   9.787   0.482  0.00  0.00    +0.197 A 
ATOM     29  C   UNL     1       3.224  13.338   0.797  0.00  0.00    +0.088 C 
BRANCH  24  34
ATOM     30  C   UNL     1       9.009  10.191   0.735  0.00  0.00    +0.044 C 
ATOM     31  C   UNL     1       7.511  10.348   0.698  0.00  0.00    -0.050 A 
ATOM     32  C   UNL     1       6.809  10.006  -0.444  0.00  0.00    +0.005 A 
ATOM     33  C   UNL     1       5.436  10.149  -0.481  0.00  0.00    +0.026 A 
ATOM     34  C   UNL     1       4.760  10.636   0.629  0.00  0.00    +0.050 A 
ATOM     35  C   UNL     1       5.467  10.984   1.772  0.00  0.00    +0.026 A 
ATOM     36  C   UNL     1       6.840  10.834   1.805  0.00  0.00    +0.005 A 
ENDBRANCH  24  34
ENDBRANCH  23  28
ENDBRANCH  22  23
ENDBRANCH   1  22
TORSDOF 7
