REMARK  Name = ZINC44453408
REMARK  8 active torsions:
REMARK  status: ('A' for Active; 'I' for Inactive)
REMARK    1  A    between atoms: C_1  and  C_2
REMARK    2  A    between atoms: C_2  and  C_28
REMARK    3  A    between atoms: N_3  and  N_4
REMARK    4  A    between atoms: C_5  and  C_7
REMARK    5  A    between atoms: C_11  and  N_12
REMARK    6  A    between atoms: C_13  and  C_15
REMARK    7  A    between atoms: C_20  and  O_21
REMARK    8  A    between atoms: O_21  and  C_22
REMARK                            x       y       z     vdW  Elec       q    Type
REMARK                         _______ _______ _______ _____ _____    ______ ____
ROOT
ATOM      1  N   UNL     1       6.196  -1.762  -0.875  0.00  0.00    -0.275 N 
ATOM      2  C   UNL     1       7.455  -2.211  -1.047  0.00  0.00    +0.252 C 
ATOM      3  O   UNL     1       8.381  -1.424  -1.085  0.00  0.00    -0.270 OA
ATOM      4  H   UNL     1       5.457  -2.389  -0.845  0.00  0.00    +0.156 HD
ENDROOT
BRANCH   2   5
ATOM      5  C   UNL     1       7.709  -3.657  -1.189  0.00  0.00    +0.079 A 
ATOM      6  C   UNL     1       6.647  -4.564  -1.151  0.00  0.00    +0.017 A 
ATOM      7  C   UNL     1       6.891  -5.913  -1.284  0.00  0.00    +0.001 A 
ATOM      8  C   UNL     1       8.186  -6.376  -1.455  0.00  0.00    +0.004 A 
ATOM      9  C   UNL     1       9.245  -5.491  -1.494  0.00  0.00    +0.047 A 
ATOM     10  C   UNL     1       9.017  -4.128  -1.368  0.00  0.00    +0.141 A 
BRANCH  10  11
ATOM     11  O   UNL     1      10.055  -3.257  -1.412  0.00  0.00    -0.455 OA
BRANCH  11  12
ATOM     12  C   UNL     1      11.312  -3.766  -1.505  0.00  0.00    +0.128 A 
ATOM     13  C   UNL     1      11.793  -4.211  -2.728  0.00  0.00    +0.046 A 
ATOM     14  C   UNL     1      13.070  -4.728  -2.820  0.00  0.00    +0.004 A 
ATOM     15  C   UNL     1      13.870  -4.803  -1.694  0.00  0.00    +0.000 A 
ATOM     16  C   UNL     1      13.393  -4.360  -0.474  0.00  0.00    +0.004 A 
ATOM     17  C   UNL     1      12.118  -3.837  -0.378  0.00  0.00    +0.046 A 
ENDBRANCH  11  12
ENDBRANCH  10  11
ENDBRANCH   2   5
BRANCH   1  22
ATOM     18  C   UNL     1       4.738   0.235  -0.559  0.00  0.00    +0.067 A 
ATOM     19  C   UNL     1       4.774   1.675  -0.443  0.00  0.00    +0.022 A 
ATOM     20  C   UNL     1       5.992   2.240  -0.530  0.00  0.00    +0.048 A 
ATOM     21  S   UNL     1       7.074   0.848  -0.767  0.00  0.00    -0.081 S 
ATOM     22  C   UNL     1       5.957  -0.404  -0.742  0.00  0.00    +0.084 A 
BRANCH  18  24
ATOM     23  N   UNL     1       2.316   0.142  -0.305  0.00  0.00    -0.203 N 
ATOM     24  C   UNL     1       3.480  -0.514  -0.483  0.00  0.00    +0.266 C 
ATOM     25  O   UNL     1       3.487  -1.727  -0.580  0.00  0.00    -0.268 OA
ATOM     26  H   UNL     1       2.311   1.109  -0.227  0.00  0.00    +0.178 HD
BRANCH  23  29
ATOM     27  C   UNL     1      -0.030   1.555  -0.287  0.00  0.00    +0.062 C 
ATOM     28  C   UNL     1      -0.001   0.053  -0.164  0.00  0.00    +0.031 C 
ATOM     29  N   UNL     1       1.113  -0.574  -0.232  0.00  0.00    -0.190 NA
ATOM     30  C   UNL     1      -1.284  -0.711   0.039  0.00  0.00    +0.062 C 
ENDBRANCH  23  29
ENDBRANCH  18  24
ENDBRANCH   1  22
TORSDOF 6
