REMARK  Name = ZINC11855776
REMARK  4 active torsions:
REMARK  status: ('A' for Active; 'I' for Inactive)
REMARK    1  A    between atoms: C_4  and  C_7
REMARK    2  A    between atoms: C_10  and  C_13
REMARK    3  A    between atoms: N_15  and  C_16
REMARK    4  A    between atoms: C_18  and  C_32
REMARK                            x       y       z     vdW  Elec       q    Type
REMARK                         _______ _______ _______ _____ _____    ______ ____
ROOT
ATOM      1  C   UNL     1      -0.125   4.159   0.020  0.00  0.00    +0.132 A 
ATOM      2  C   UNL     1       0.234   5.468   0.028  0.00  0.00    +0.074 A 
ATOM      3  C   UNL     1       1.644   5.529   0.015  0.00  0.00    +0.102 A 
ATOM      4  N   UNL     1       2.109   4.296   0.004  0.00  0.00    -0.162 NA
ATOM      5  N   UNL     1       1.021   3.414   0.011  0.00  0.00    -0.185 N 
ATOM      6  C   UNL     1       1.094   2.035   0.003  0.00  0.00    +0.234 A 
ATOM      7  N   UNL     1       2.312   1.431  -0.012  0.00  0.00    -0.291 N 
ATOM      8  H   UNL     1       3.121   1.966  -0.016  0.00  0.00    +0.172 HD
ATOM      9  C   UNL     1       2.388   0.084  -0.020  0.00  0.00    +0.256 A 
ATOM     10  O   UNL     1       3.472  -0.477  -0.033  0.00  0.00    -0.267 OA
ATOM     11  C   UNL     1       1.194  -0.664  -0.013  0.00  0.00    +0.038 A 
ATOM     12  C   UNL     1       0.002  -0.004   0.002  0.00  0.00    +0.053 A 
ATOM     13  N   UNL     1      -0.016   1.331   0.009  0.00  0.00    -0.217 NA
ATOM     14  C   UNL     1      -1.139  -1.000   0.008  0.00  0.00    +0.056 C 
ATOM     15  C   UNL     1      -0.509  -2.336  -0.443  0.00  0.00    +0.011 C 
ATOM     16  C   UNL     1       0.965  -2.158  -0.020  0.00  0.00    +0.043 C 
ENDROOT
BRANCH   3  17
ATOM     17  C   UNL     1       2.458   6.763   0.013  0.00  0.00    +0.039 A 
ATOM     18  C   UNL     1       3.820   6.898   0.000  0.00  0.00    +0.018 A 
ATOM     19  C   UNL     1       4.360   8.165   0.000  0.00  0.00    +0.008 A 
ATOM     20  C   UNL     1       3.529   9.238   0.013  0.00  0.00    +0.046 A 
ATOM     21  S   UNL     1       1.920   8.465   0.017  0.00  0.00    -0.095 S 
ENDBRANCH   3  17
BRANCH   1  24
ATOM     22  C   UNL     1      -2.471   4.515   0.033  0.00  0.00    +0.249 C 
ATOM     23  O   UNL     1      -2.277   5.715   0.038  0.00  0.00    -0.270 OA
ATOM     24  N   UNL     1      -1.426   3.664   0.023  0.00  0.00    -0.266 N 
ATOM     25  H   UNL     1      -1.580   2.706   0.019  0.00  0.00    +0.157 HD
BRANCH  22  29
ATOM     26  C   UNL     1      -6.442   3.003   0.042  0.00  0.00    -0.018 A 
ATOM     27  C   UNL     1      -6.221   4.381   0.049  0.00  0.00    +0.009 A 
ATOM     28  C   UNL     1      -4.934   4.872   0.046  0.00  0.00    +0.013 A 
ATOM     29  C   UNL     1      -3.851   3.990   0.036  0.00  0.00    +0.037 A 
ATOM     30  C   UNL     1      -4.074   2.610   0.024  0.00  0.00    +0.013 A 
ATOM     31  C   UNL     1      -5.361   2.122   0.032  0.00  0.00    +0.009 A 
BRANCH  26  35
ATOM     32  C   UNL     1     -10.416   1.492   0.052  0.00  0.00    +0.000 A 
ATOM     33  C   UNL     1      -9.345   0.615   0.042  0.00  0.00    +0.001 A 
ATOM     34  C   UNL     1      -8.053   1.100   0.038  0.00  0.00    +0.008 A 
ATOM     35  C   UNL     1      -7.828   2.476   0.045  0.00  0.00    -0.018 A 
ATOM     36  C   UNL     1      -8.911   3.354   0.061  0.00  0.00    +0.008 A 
ATOM     37  C   UNL     1     -10.198   2.858   0.059  0.00  0.00    +0.001 A 
ENDBRANCH  26  35
ENDBRANCH  22  29
ENDBRANCH   1  24
TORSDOF 4
