REMARK  Name = ZINC63375301
REMARK  5 active torsions:
REMARK  status: ('A' for Active; 'I' for Inactive)
REMARK    1  A    between atoms: C_4  and  C_7
REMARK    2  A    between atoms: N_25  and  C_28
REMARK    3  A    between atoms: C_33  and  C_34
REMARK    4  A    between atoms: N_36  and  C_37
REMARK    5  A    between atoms: C_37  and  C_38
REMARK                            x       y       z     vdW  Elec       q    Type
REMARK                         _______ _______ _______ _____ _____    ______ ____
ROOT
ATOM      1  C   UNL     1       3.711  -0.707  -0.038  0.00  0.00    +0.135 C 
ATOM      2  C   UNL     1       4.017  -1.195  -1.460  0.00  0.00    +0.131 C 
ATOM      3  C   UNL     1       5.099  -2.261  -1.347  0.00  0.00    -0.034 C 
ATOM      4  C   UNL     1       6.112  -1.849  -2.101  0.00  0.00    -0.001 A 
ATOM      5  C   UNL     1       7.402  -2.475  -2.433  0.00  0.00    +0.010 A 
ATOM      6  C   UNL     1       8.226  -1.757  -3.241  0.00  0.00    +0.001 A 
ATOM      7  C   UNL     1       7.900  -0.494  -3.745  0.00  0.00    +0.002 A 
ATOM      8  C   UNL     1       6.735   0.154  -3.496  0.00  0.00    +0.026 A 
ATOM      9  C   UNL     1       5.784  -0.503  -2.662  0.00  0.00    +0.043 A 
ATOM     10  N   UNL     1       4.591  -0.122  -2.277  0.00  0.00    -0.375 N 
ATOM     11  C   UNL     1       4.969  -3.478  -0.461  0.00  0.00    +0.065 C 
ATOM     12  C   UNL     1       3.676  -3.292   0.352  0.00  0.00    +0.169 C 
ATOM     13  N   UNL     1       3.632  -1.892   0.826  0.00  0.00    -0.264 N 
ATOM     14  C   UNL     1       3.532  -1.936   2.161  0.00  0.00    +0.317 C 
ATOM     15  O   UNL     1       3.362  -0.957   2.861  0.00  0.00    -0.252 OA
ATOM     16  N   UNL     1       3.641  -3.185   2.635  0.00  0.00    -0.192 N 
ATOM     17  C   UNL     1       3.747  -4.109   1.624  0.00  0.00    +0.248 C 
ATOM     18  O   UNL     1       3.877  -5.310   1.716  0.00  0.00    -0.273 OA
ATOM     19  H   UNL     1       4.159   0.720  -2.490  0.00  0.00    +0.160 HD
ENDROOT
BRANCH   1  23
ATOM     20  C   UNL     1      -0.017   1.378   0.010  0.00  0.00    +0.000 A 
ATOM     21  C   UNL     1       1.171   2.086   0.002  0.00  0.00    +0.000 A 
ATOM     22  C   UNL     1       2.377   1.411  -0.013  0.00  0.00    +0.005 A 
ATOM     23  C   UNL     1       2.396   0.029  -0.020  0.00  0.00    -0.025 A 
ATOM     24  C   UNL     1       1.208  -0.679  -0.012  0.00  0.00    +0.005 A 
ATOM     25  C   UNL     1       0.002  -0.004   0.002  0.00  0.00    +0.000 A 
ENDBRANCH   1  23
BRANCH  16  26
ATOM     26  C   UNL     1       3.634  -3.511   3.993  0.00  0.00    +0.058 A 
ATOM     27  C   UNL     1       2.437  -3.797   4.635  0.00  0.00    +0.025 A 
ATOM     28  C   UNL     1       2.432  -4.120   5.977  0.00  0.00    +0.002 A 
ATOM     29  C   UNL     1       3.618  -4.161   6.693  0.00  0.00    +0.001 A 
ATOM     30  C   UNL     1       4.815  -3.879   6.072  0.00  0.00    +0.015 A 
ATOM     31  C   UNL     1       4.836  -3.557   4.713  0.00  0.00    +0.059 A 
BRANCH  31  32
ATOM     32  C   UNL     1       6.115  -3.260   4.040  0.00  0.00    +0.246 C 
ATOM     33  O   UNL     1       6.129  -2.974   2.858  0.00  0.00    -0.270 OA
ATOM     34  N   UNL     1       7.269  -3.304   4.736  0.00  0.00    -0.304 N 
ATOM     35  H   UNL     1       7.258  -3.532   5.679  0.00  0.00    +0.149 HD
BRANCH  34  36
ATOM     36  C   UNL     1       8.539  -3.009   4.068  0.00  0.00    +0.179 C 
BRANCH  36  37
ATOM     37  C   UNL     1       9.667  -3.128   5.060  0.00  0.00    +0.122 A 
ATOM     38  C   UNL     1      10.372  -4.244   5.320  0.00  0.00    +0.046 A 
ATOM     39  C   UNL     1      11.325  -3.906   6.308  0.00  0.00    +0.041 A 
ATOM     40  C   UNL     1      11.146  -2.604   6.593  0.00  0.00    +0.195 A 
ATOM     41  O   UNL     1      10.144  -2.136   5.830  0.00  0.00    -0.466 OA
ENDBRANCH  36  37
ENDBRANCH  34  36
ENDBRANCH  31  32
ENDBRANCH  16  26
TORSDOF 5
