REMARK  Name = ZINC65475712
REMARK  4 active torsions:
REMARK  status: ('A' for Active; 'I' for Inactive)
REMARK    1  A    between atoms: C_4  and  C_7
REMARK    2  A    between atoms: C_7  and  N_8
REMARK    3  A    between atoms: N_13  and  C_14
REMARK    4  A    between atoms: C_14  and  C_16
REMARK                            x       y       z     vdW  Elec       q    Type
REMARK                         _______ _______ _______ _____ _____    ______ ____
ROOT
ATOM      1  N   UNL     1       4.170  -0.963   1.330  0.00  0.00    -0.314 N 
ATOM      2  C   UNL     1       4.952  -0.119   2.096  0.00  0.00    +0.106 A 
ATOM      3  C   UNL     1       5.125  -0.681   3.290  0.00  0.00    +0.103 A 
ATOM      4  N   UNL     1       4.455  -1.891   3.298  0.00  0.00    -0.333 N 
ATOM      5  C   UNL     1       3.866  -2.050   2.085  0.00  0.00    +0.201 A 
ATOM      6  N   UNL     1       3.124  -3.088   1.703  0.00  0.00    -0.141 NA
ATOM      7  H   UNL     1       4.411  -2.513   4.040  0.00  0.00    +0.168 HD
ENDROOT
BRANCH   6   8
ATOM      8  C   UNL     1       2.901  -4.096   2.549  0.00  0.00    +0.289 C 
ATOM      9  O   UNL     1       3.376  -4.067   3.671  0.00  0.00    -0.266 OA
BRANCH   8  10
ATOM     10  C   UNL     1       2.076  -5.251   2.124  0.00  0.00    +0.135 A 
ATOM     11  C   UNL     1       1.934  -6.373   2.972  0.00  0.00    +0.013 A 
ATOM     12  C   UNL     1       2.554  -6.441   4.226  0.00  0.00    +0.011 A 
ATOM     13  C   UNL     1       2.382  -7.548   5.002  0.00  0.00    +0.001 A 
ATOM     14  C   UNL     1       1.599  -8.615   4.568  0.00  0.00    +0.001 A 
ATOM     15  C   UNL     1       0.981  -8.584   3.354  0.00  0.00    +0.008 A 
ATOM     16  C   UNL     1       1.136  -7.460   2.530  0.00  0.00    -0.014 A 
ATOM     17  C   UNL     1       0.524  -7.366   1.267  0.00  0.00    +0.028 A 
ATOM     18  C   UNL     1       0.722  -6.239   0.521  0.00  0.00    +0.112 A 
ATOM     19  N   UNL     1       1.464  -5.235   0.953  0.00  0.00    -0.250 NA
ENDBRANCH   8  10
ENDBRANCH   6   8
BRANCH   1  20
ATOM     20  C   UNL     1       3.741  -0.724  -0.050  0.00  0.00    +0.159 C 
BRANCH  20  24
ATOM     21  C   UNL     1       0.019   1.372  -0.044  0.00  0.00    +0.000 A 
ATOM     22  C   UNL     1       1.209   2.076  -0.046  0.00  0.00    +0.000 A 
ATOM     23  C   UNL     1       2.413   1.398  -0.048  0.00  0.00    +0.005 A 
ATOM     24  C   UNL     1       2.428   0.015  -0.047  0.00  0.00    -0.028 A 
ATOM     25  C   UNL     1       1.239  -0.689  -0.044  0.00  0.00    +0.005 A 
ATOM     26  C   UNL     1       0.034  -0.010  -0.044  0.00  0.00    +0.000 A 
ENDBRANCH  20  24
ENDBRANCH   1  20
TORSDOF 4
