REMARK  Name = ZINC36290365
REMARK  3 active torsions:
REMARK  status: ('A' for Active; 'I' for Inactive)
REMARK    1  A    between atoms: C_1  and  C_2
REMARK    2  A    between atoms: C_7  and  N_11
REMARK    3  A    between atoms: C_8  and  C_10
REMARK                            x       y       z     vdW  Elec       q    Type
REMARK                         _______ _______ _______ _____ _____    ______ ____
ROOT
ATOM      1  C   UNL     1      -0.018   1.503   0.010  0.00  0.00    +0.064 C 
ATOM      2  C   UNL     1       0.002  -0.004   0.002  0.00  0.00    +0.031 A 
ATOM      3  C   UNL     1       0.005  -0.655  -1.159  0.00  0.00    +0.070 A 
ATOM      4  S   UNL     1       0.031  -2.360  -0.629  0.00  0.00    -0.057 S 
ATOM      5  C   UNL     1       0.035  -2.064   1.124  0.00  0.00    +0.179 A 
ATOM      6  N   UNL     1       0.023  -0.692   1.198  0.00  0.00    -0.279 N 
ATOM      7  C   UNL     1       0.031  -0.408   2.561  0.00  0.00    +0.124 A 
ATOM      8  C   UNL     1       0.053  -1.582   3.223  0.00  0.00    +0.079 A 
ATOM      9  N   UNL     1       0.048  -2.579   2.317  0.00  0.00    -0.225 NA
ATOM     10  C   UNL     1       0.069  -1.751   4.720  0.00  0.00    +0.069 C 
ENDROOT
BRANCH   7  11
ATOM     11  N   UNL     1       0.019   0.869   3.141  0.00  0.00    -0.343 N 
ATOM     12  H   UNL     1       0.003   1.658   2.577  0.00  0.00    +0.144 HD
ATOM     13  H   UNL     1       0.027   0.963   4.106  0.00  0.00    +0.144 HD
ENDBRANCH   7  11
TORSDOF 1
