REMARK  Name = ZINC12612760
REMARK  9 active torsions:
REMARK  status: ('A' for Active; 'I' for Inactive)
REMARK    1  A    between atoms: C_1  and  C_2
REMARK    2  A    between atoms: C_7  and  C_8
REMARK    3  A    between atoms: C_8  and  N_64
REMARK    4  A    between atoms: C_11  and  C_14
REMARK    5  A    between atoms: C_14  and  N_15
REMARK    6  A    between atoms: N_15  and  C_16
REMARK    7  A    between atoms: C_16  and  C_17
REMARK    8  A    between atoms: C_23  and  C_25
REMARK    9  A    between atoms: C_26  and  C_30
REMARK                            x       y       z     vdW  Elec       q    Type
REMARK                         _______ _______ _______ _____ _____    ______ ____
ROOT
ATOM      1  C   UNL     1      -4.478   2.208   0.224  0.00  0.00    +0.111 C 
ENDROOT
BRANCH   1   4
ATOM      2  C   UNL     1      -6.153   1.094   3.506  0.00  0.00    -0.078 C 
ATOM      3  C   UNL     1      -6.047   1.476   2.028  0.00  0.00    -0.014 C 
ATOM      4  C   UNL     1      -4.604   1.883   1.713  0.00  0.00    +0.003 C 
ATOM      5  C   UNL     1      -3.666   0.726   2.066  0.00  0.00    -0.014 C 
ATOM      6  C   UNL     1      -3.843   0.364   3.543  0.00  0.00    -0.078 C 
ATOM      7  N   UNL     1      -5.246  -0.042   3.774  0.00  0.00    +0.382 N 
ATOM      8  H   UNL     1      -5.479  -0.812   3.137  0.00  0.00    -0.081 HD
BRANCH   7   9
ATOM      9  C   UNL     1      -5.414  -0.503   5.168  0.00  0.00    -0.043 C 
BRANCH   9  16
ATOM     10  C   UNL     1      -6.657  -2.837   4.003  0.00  0.00    +0.044 C 
ATOM     11  C   UNL     1      -5.357  -2.971   4.753  0.00  0.00    -0.049 A 
ATOM     12  C   UNL     1      -4.757  -4.210   4.882  0.00  0.00    +0.003 A 
ATOM     13  C   UNL     1      -3.567  -4.334   5.574  0.00  0.00    +0.000 A 
ATOM     14  C   UNL     1      -2.975  -3.218   6.136  0.00  0.00    +0.000 A 
ATOM     15  C   UNL     1      -3.573  -1.978   6.004  0.00  0.00    +0.002 A 
ATOM     16  C   UNL     1      -4.763  -1.855   5.311  0.00  0.00    -0.061 A 
ENDBRANCH   9  16
ENDBRANCH   7   9
ENDBRANCH   1   4
BRANCH   1  17
ATOM     17  N   UNL     1      -3.129   2.708  -0.054  0.00  0.00    -0.294 N 
ATOM     18  C   UNL     1      -2.147   1.848  -0.389  0.00  0.00    +0.254 C 
ATOM     19  O   UNL     1      -2.394   0.663  -0.519  0.00  0.00    -0.269 OA
BRANCH  18  20
ATOM     20  C   UNL     1      -0.781   2.339  -0.596  0.00  0.00    +0.077 A 
ATOM     21  C   UNL     1       0.384   1.618  -0.804  0.00  0.00    -0.031 A 
ATOM     22  C   UNL     1       1.541   2.336  -0.977  0.00  0.00    +0.011 A 
ATOM     23  C   UNL     1       1.492   3.693  -0.932  0.00  0.00    +0.046 A 
ATOM     24  S   UNL     1      -0.186   4.020  -0.644  0.00  0.00    -0.092 S 
ATOM     25  C   UNL     1       0.381   0.111  -0.845  0.00  0.00    +0.045 C 
ENDBRANCH  18  20
BRANCH  17  26
ATOM     26  C   UNL     1      -2.847   4.143   0.032  0.00  0.00    +0.139 C 
BRANCH  26  27
ATOM     27  C   UNL     1      -2.914   4.761  -1.366  0.00  0.00    +0.136 C 
ATOM     28  C   UNL     1      -2.536   6.258  -1.311  0.00  0.00    +0.035 C 
ATOM     29  C   UNL     1      -3.478   6.921  -2.341  0.00  0.00    +0.031 C 
ATOM     30  C   UNL     1      -4.313   5.746  -2.896  0.00  0.00    +0.160 C 
ATOM     31  O   UNL     1      -4.271   4.738  -1.861  0.00  0.00    -0.375 OA
ENDBRANCH  26  27
ENDBRANCH  17  26
ENDBRANCH   1  17
TORSDOF 7
