REMARK  Name = ZINC22529267
REMARK  9 active torsions:
REMARK  status: ('A' for Active; 'I' for Inactive)
REMARK    1  A    between atoms: C_1  and  C_2
REMARK    2  A    between atoms: C_2  and  C_3
REMARK    3  A    between atoms: C_8  and  N_9
REMARK    4  A    between atoms: C_10  and  C_12
REMARK    5  A    between atoms: C_12  and  N_13
REMARK    6  A    between atoms: C_14  and  C_16
REMARK    7  A    between atoms: C_17  and  C_31
REMARK    8  A    between atoms: C_19  and  C_30
REMARK    9  A    between atoms: C_21  and  C_25
REMARK                            x       y       z     vdW  Elec       q    Type
REMARK                         _______ _______ _______ _____ _____    ______ ____
ROOT
ATOM      1  N   UNL     1       0.656  -0.608  -0.466  0.00  0.00    -0.302 N 
ATOM      2  C   UNL     1       1.586   0.365  -0.401  0.00  0.00    +0.251 C 
ATOM      3  O   UNL     1       1.244   1.533  -0.390  0.00  0.00    -0.270 OA
ATOM      4  H   UNL     1       0.965  -1.664  -0.471  0.00  0.00    +0.150 HD
ENDROOT
BRANCH   2   5
ATOM      5  C   UNL     1       3.011   0.017  -0.345  0.00  0.00    +0.079 A 
ATOM      6  C   UNL     1       4.085   0.851  -0.282  0.00  0.00    -0.020 A 
ATOM      7  C   UNL     1       5.381   0.318  -0.232  0.00  0.00    +0.032 A 
ATOM      8  C   UNL     1       6.627   0.995  -0.160  0.00  0.00    +0.051 A 
ATOM      9  N   UNL     1       7.739   0.300  -0.127  0.00  0.00    -0.229 NA
ATOM     10  C   UNL     1       7.748  -1.033  -0.157  0.00  0.00    +0.197 A 
ATOM     11  N   UNL     1       6.615  -1.726  -0.224  0.00  0.00    -0.217 NA
ATOM     12  C   UNL     1       5.461  -1.101  -0.261  0.00  0.00    +0.113 A 
ATOM     13  S   UNL     1       3.761  -1.602  -0.349  0.00  0.00    -0.064 S 
ATOM     14  C   UNL     1       6.671   2.501  -0.124  0.00  0.00    +0.066 C 
ATOM     15  C   UNL     1       3.882   2.344  -0.264  0.00  0.00    +0.046 C 
BRANCH  10  16
ATOM     16  C   UNL     1       9.035  -1.750  -0.116  0.00  0.00    +0.172 A 
ATOM     17  C   UNL     1       9.198  -3.102  -0.141  0.00  0.00    +0.053 A 
ATOM     18  C   UNL     1      10.582  -3.345  -0.084  0.00  0.00    +0.042 A 
ATOM     19  C   UNL     1      11.193  -2.143  -0.029  0.00  0.00    +0.196 A 
ATOM     20  O   UNL     1      10.256  -1.183  -0.054  0.00  0.00    -0.460 OA
ENDBRANCH  10  16
ENDBRANCH   2   5
BRANCH   1  21
ATOM     21  C   UNL     1      -0.766  -0.261  -0.528  0.00  0.00    +0.200 C 
BRANCH  21  23
ATOM     22  N   UNL     1      -2.932  -1.447  -0.665  0.00  0.00    -0.284 N 
ATOM     23  C   UNL     1      -1.588  -1.522  -0.600  0.00  0.00    +0.234 C 
ATOM     24  O   UNL     1      -1.040  -2.604  -0.599  0.00  0.00    -0.274 OA
ATOM     25  H   UNL     1      -3.425  -0.467  -0.743  0.00  0.00    +0.155 HD
BRANCH  22  31
ATOM     26  C   UNL     1      -4.946  -2.613  -0.020  0.00  0.00    -0.026 A 
ATOM     27  C   UNL     1      -5.702  -3.769   0.010  0.00  0.00    +0.005 A 
ATOM     28  C   UNL     1      -5.220  -4.927  -0.570  0.00  0.00    +0.000 A 
ATOM     29  C   UNL     1      -3.980  -4.933  -1.182  0.00  0.00    +0.002 A 
ATOM     30  C   UNL     1      -3.221  -3.780  -1.220  0.00  0.00    +0.023 A 
ATOM     31  C   UNL     1      -3.700  -2.616  -0.633  0.00  0.00    +0.037 A 
BRANCH  26  33
ATOM     32  C   UNL     1      -6.160  -0.494  -0.455  0.00  0.00    +0.009 C 
ATOM     33  C   UNL     1      -5.473  -1.350   0.612  0.00  0.00    +0.033 C 
ENDBRANCH  26  33
ENDBRANCH  22  31
ENDBRANCH  21  23
ENDBRANCH   1  21
TORSDOF 6
