REMARK  Name = ZINC17886468
REMARK  4 active torsions:
REMARK  status: ('A' for Active; 'I' for Inactive)
REMARK    1  A    between atoms: C_9  and  O_25
REMARK    2  A    between atoms: C_10  and  C_11
REMARK    3  A    between atoms: N_12  and  C_13
REMARK    4  A    between atoms: C_16  and  N_19
REMARK                            x       y       z     vdW  Elec       q    Type
REMARK                         _______ _______ _______ _____ _____    ______ ____
ROOT
ATOM      1  C   UNL     1       4.979   0.088  -0.033  0.00  0.00    +0.123 C 
ATOM      2  N   UNL     1       6.111  -0.563  -0.060  0.00  0.00    -0.255 NA
ENDROOT
BRANCH   1  12
ATOM      3  C   UNL     1      -0.016   1.357   0.067  0.00  0.00    +0.001 A 
ATOM      4  C   UNL     1       1.168   2.090   0.060  0.00  0.00    +0.001 A 
ATOM      5  C   UNL     1       2.379   1.464   0.031  0.00  0.00    +0.009 A 
ATOM      6  C   UNL     1       2.434   0.066   0.008  0.00  0.00    -0.006 A 
ATOM      7  C   UNL     1       1.233  -0.683   0.015  0.00  0.00    -0.017 A 
ATOM      8  C   UNL     1       0.003  -0.004   0.045  0.00  0.00    +0.008 A 
ATOM      9  C   UNL     1       1.291  -2.088  -0.007  0.00  0.00    +0.012 A 
ATOM     10  C   UNL     1       2.485  -2.735  -0.035  0.00  0.00    +0.046 A 
ATOM     11  C   UNL     1       3.696  -2.044  -0.044  0.00  0.00    +0.126 A 
ATOM     12  C   UNL     1       3.712  -0.647  -0.024  0.00  0.00    +0.042 A 
BRANCH  11  13
ATOM     13  O   UNL     1       4.865  -2.731  -0.072  0.00  0.00    -0.506 OA
ATOM     14  H   UNL     1       5.190  -2.917  -0.964  0.00  0.00    +0.292 HD
ENDBRANCH  11  13
ENDBRANCH   1  12
BRANCH   2  15
ATOM     15  C   UNL     1       7.295   0.123  -0.069  0.00  0.00    +0.064 A 
ATOM     16  C   UNL     1       7.456   1.230  -0.906  0.00  0.00    +0.029 A 
ATOM     17  C   UNL     1       8.650   1.919  -0.912  0.00  0.00    +0.025 A 
ATOM     18  C   UNL     1       9.693   1.513  -0.086  0.00  0.00    +0.030 A 
ATOM     19  C   UNL     1       9.536   0.411   0.748  0.00  0.00    +0.025 A 
ATOM     20  C   UNL     1       8.343  -0.278   0.763  0.00  0.00    +0.029 A 
BRANCH  18  21
ATOM     21  N   UNL     1      10.901   2.213  -0.095  0.00  0.00    -0.326 N 
ATOM     22  C   UNL     1      11.977   1.879   0.851  0.00  0.00    +0.133 C 
ATOM     23  C   UNL     1      13.278   1.701   0.060  0.00  0.00    +0.178 C 
ATOM     24  O   UNL     1      13.490   2.851  -0.762  0.00  0.00    -0.377 OA
ATOM     25  C   UNL     1      12.478   3.059  -1.749  0.00  0.00    +0.178 C 
ATOM     26  C   UNL     1      11.138   3.303  -1.055  0.00  0.00    +0.133 C 
ENDBRANCH  18  21
ENDBRANCH   2  15
TORSDOF 4
