REMARK  Name = ZINC15203270
REMARK  3 active torsions:
REMARK  status: ('A' for Active; 'I' for Inactive)
REMARK    1  A    between atoms: C_7  and  C_11
REMARK    2  A    between atoms: C_14  and  C_20
REMARK    3  A    between atoms: C_14  and  O_24
REMARK                            x       y       z     vdW  Elec       q    Type
REMARK                         _______ _______ _______ _____ _____    ______ ____
ROOT
ATOM      1  C   UNL     1       0.571   6.426   0.032  0.00  0.00    +0.110 C 
ATOM      2  C   UNL     1       0.948   6.833  -1.419  0.00  0.00    +0.091 C 
ATOM      3  C   UNL     1       1.261   8.338  -1.236  0.00  0.00    +0.248 C 
ATOM      4  N   UNL     1       0.603   8.725   0.023  0.00  0.00    -0.181 N 
ATOM      5  N   UNL     1      -0.093   7.658   0.531  0.00  0.00    -0.226 NA
ATOM      6  C   UNL     1       0.674   9.945   0.592  0.00  0.00    +0.316 C 
ATOM      7  O   UNL     1       1.321  10.827   0.060  0.00  0.00    -0.251 OA
ATOM      8  N   UNL     1       0.029  10.187   1.750  0.00  0.00    -0.312 N 
ATOM      9  H   UNL     1      -0.103   7.680   1.540  0.00  0.00    +0.145 HD
ATOM     10  H   UNL     1      -0.487   9.484   2.174  0.00  0.00    +0.147 HD
ATOM     11  H   UNL     1       0.080  11.065   2.159  0.00  0.00    +0.147 HD
ENDROOT
BRANCH   1  18
ATOM     12  C   UNL     1       1.184   1.779   0.000  0.00  0.00    +0.001 A 
ATOM     13  C   UNL     1      -0.013   1.076   0.008  0.00  0.00    +0.002 A 
ATOM     14  C   UNL     1      -1.219   1.741   0.017  0.00  0.00    +0.026 A 
ATOM     15  C   UNL     1      -1.240   3.132   0.031  0.00  0.00    +0.047 A 
ATOM     16  C   UNL     1      -0.025   3.840   0.023  0.00  0.00    +0.004 A 
ATOM     17  C   UNL     1       1.186   3.146   0.008  0.00  0.00    +0.010 A 
ATOM     18  C   UNL     1      -0.384   5.261   0.034  0.00  0.00    -0.004 A 
ATOM     19  C   UNL     1      -1.724   5.327   0.047  0.00  0.00    +0.088 A 
ATOM     20  N   UNL     1      -2.253   4.064   0.045  0.00  0.00    -0.360 N 
ATOM     21  H   UNL     1      -3.201   3.858   0.053  0.00  0.00    +0.165 HD
ENDBRANCH   1  18
BRANCH   3  22
ATOM     22  C   UNL     1       0.690   9.147  -2.402  0.00  0.00    +0.437 C 
ATOM     23  F   UNL     1       0.934  10.508  -2.190  0.00  0.00    -0.166 F 
ATOM     24  F   UNL     1       1.302   8.744  -3.593  0.00  0.00    -0.166 F 
ATOM     25  F   UNL     1      -0.690   8.929  -2.490  0.00  0.00    -0.166 F 
ENDBRANCH   3  22
BRANCH   3  26
ATOM     26  O   UNL     1       2.672   8.541  -1.139  0.00  0.00    -0.363 OA
ATOM     27  H   UNL     1       2.928   9.460  -0.984  0.00  0.00    +0.212 HD
ENDBRANCH   3  26
TORSDOF 3
