REMARK  Name = ZINC39687587
REMARK  7 active torsions:
REMARK  status: ('A' for Active; 'I' for Inactive)
REMARK    1  A    between atoms: C_1  and  C_2
REMARK    2  A    between atoms: C_7  and  N_8
REMARK    3  A    between atoms: C_11  and  N_14
REMARK    4  A    between atoms: C_15  and  C_17
REMARK    5  A    between atoms: C_28  and  C_30
REMARK    6  A    between atoms: C_30  and  C_31
REMARK    7  A    between atoms: C_31  and  C_32
REMARK                            x       y       z     vdW  Elec       q    Type
REMARK                         _______ _______ _______ _____ _____    ______ ____
ROOT
ATOM      1  C   UNL     1       3.943   1.857   7.056  0.00  0.00    +0.100 C 
ATOM      2  C   UNL     1       4.170   3.377   6.892  0.00  0.00    +0.121 C 
ATOM      3  N   UNL     1       3.585   3.977   8.114  0.00  0.00    -0.300 N 
ATOM      4  C   UNL     1       3.959   3.039   9.200  0.00  0.00    +0.115 C 
ATOM      5  C   UNL     1       3.808   1.639   8.572  0.00  0.00    -0.004 C 
ATOM      6  C   UNL     1       2.437   1.059   8.903  0.00  0.00    -0.010 C 
ATOM      7  C   UNL     1       2.348   0.798  10.409  0.00  0.00    -0.082 C 
ATOM      8  N   UNL     1       3.406  -0.137  10.809  0.00  0.00    +0.379 N 
ATOM      9  C   UNL     1       4.723   0.467  10.573  0.00  0.00    -0.082 C 
ATOM     10  C   UNL     1       4.913   0.714   9.074  0.00  0.00    -0.010 C 
ATOM     11  C   UNL     1       2.874   5.117   8.215  0.00  0.00    +0.216 C 
ATOM     12  O   UNL     1       2.460   5.479   9.296  0.00  0.00    -0.276 OA
ATOM     13  H   UNL     1       3.308  -0.354  11.790  0.00  0.00    -0.086 HD
ATOM     14  H   UNL     1       3.325  -0.986  10.269  0.00  0.00    -0.086 HD
ENDROOT
BRANCH   1  16
ATOM     15  N   UNL     1       2.565   0.185   5.863  0.00  0.00    -0.312 N 
ATOM     16  C   UNL     1       2.680   1.436   6.351  0.00  0.00    +0.218 C 
ATOM     17  O   UNL     1       1.766   2.224   6.222  0.00  0.00    -0.275 OA
ATOM     18  H   UNL     1       3.295  -0.445   5.966  0.00  0.00    +0.149 HD
BRANCH  15  22
ATOM     19  N   UNL     1      -0.674  -2.082   4.465  0.00  0.00    -0.316 N 
ATOM     20  C   UNL     1       0.368  -1.774   3.475  0.00  0.00    +0.108 C 
ATOM     21  C   UNL     1       1.648  -1.372   4.215  0.00  0.00    +0.041 C 
ATOM     22  C   UNL     1       1.336  -0.224   5.178  0.00  0.00    +0.076 C 
ATOM     23  C   UNL     1       0.306  -0.687   6.211  0.00  0.00    +0.041 C 
ATOM     24  C   UNL     1      -0.993  -1.079   5.490  0.00  0.00    +0.108 C 
BRANCH  19  31
ATOM     25  C   UNL     1      -2.947  -2.289   2.767  0.00  0.00    +0.047 C 
ATOM     26  C   UNL     1      -2.465  -3.440   3.611  0.00  0.00    -0.012 A 
ATOM     27  C   UNL     1      -3.124  -4.656   3.580  0.00  0.00    +0.008 A 
ATOM     28  C   UNL     1      -2.645  -5.690   4.374  0.00  0.00    +0.018 A 
ATOM     29  C   UNL     1      -1.534  -5.476   5.165  0.00  0.00    +0.084 A 
ATOM     30  N   UNL     1      -0.926  -4.305   5.175  0.00  0.00    -0.349 N 
ATOM     31  C   UNL     1      -1.349  -3.297   4.428  0.00  0.00    +0.102 A 
ATOM     32  H   UNL     1      -0.148  -4.181   5.741  0.00  0.00    +0.167 HD
ENDBRANCH  19  31
ENDBRANCH  15  22
ENDBRANCH   1  16
BRANCH  11  33
ATOM     33  C   UNL     1       2.594   5.942   6.986  0.00  0.00    +0.096 C 
BRANCH  33  34
ATOM     34  C   UNL     1       1.776   7.175   7.375  0.00  0.00    +0.013 C 
BRANCH  34  35
ATOM     35  C   UNL     1       1.491   8.012   6.126  0.00  0.00    -0.011 C 
ATOM     36  C   UNL     1       2.801   8.629   5.594  0.00  0.00    +0.003 C 
ATOM     37  C   UNL     1       2.384  10.034   5.093  0.00  0.00    +0.000 C 
ATOM     38  C   UNL     1       1.343  10.479   6.151  0.00  0.00    +0.000 C 
ATOM     39  C   UNL     1       0.564   9.188   6.480  0.00  0.00    +0.003 C 
ENDBRANCH  34  35
ENDBRANCH  33  34
ENDBRANCH  11  33
TORSDOF 6
