REMARK  Name = ZINC09271645
REMARK  16 active torsions:
REMARK  status: ('A' for Active; 'I' for Inactive)
REMARK    1  A    between atoms: C_1  and  C_2
REMARK    2  A    between atoms: C_2  and  N_67
REMARK    3  A    between atoms: C_3  and  C_4
REMARK    4  A    between atoms: C_3  and  N_67
REMARK    5  A    between atoms: C_5  and  C_6
REMARK    6  A    between atoms: C_5  and  N_67
REMARK    7  A    between atoms: C_6  and  C_7
REMARK    8  A    between atoms: C_7  and  N_8
REMARK    9  A    between atoms: C_9  and  C_24
REMARK   10  A    between atoms: C_12  and  C_13
REMARK   11  A    between atoms: C_12  and  O_19
REMARK   12  A    between atoms: C_16  and  C_18
REMARK   13  A    between atoms: C_27  and  O_30
REMARK   14  A    between atoms: O_30  and  C_31
REMARK   15  A    between atoms: C_31  and  C_32
REMARK   16  A    between atoms: C_31  and  C_33
REMARK                            x       y       z     vdW  Elec       q    Type
REMARK                         _______ _______ _______ _____ _____    ______ ____
ROOT
ATOM      1  N   UNL     1      -1.863   6.691   0.271  0.00  0.00    -0.284 N 
ATOM      2  C   UNL     1      -2.601   5.433   0.416  0.00  0.00    +0.145 C 
ATOM      3  C   UNL     1      -1.571   4.354   0.660  0.00  0.00    +0.074 C 
ATOM      4  C   UNL     1      -1.811   3.002   0.858  0.00  0.00    +0.168 C 
ATOM      5  C   UNL     1      -0.326   4.992   0.640  0.00  0.00    +0.249 C 
ATOM      6  O   UNL     1       0.755   4.451   0.797  0.00  0.00    -0.282 OA
ATOM      7  C   UNL     1      -0.548   6.441   0.396  0.00  0.00    +0.288 C 
ATOM      8  O   UNL     1       0.329   7.276   0.321  0.00  0.00    -0.266 OA
ENDROOT
BRANCH   4   9
ATOM      9  C   UNL     1      -0.729   2.090   0.909  0.00  0.00    +0.170 A 
ATOM     10  C   UNL     1      -0.503   1.148   1.895  0.00  0.00    +0.053 A 
ATOM     11  C   UNL     1       0.670   0.470   1.537  0.00  0.00    +0.045 A 
ATOM     12  C   UNL     1       1.107   1.010   0.376  0.00  0.00    +0.103 A 
ATOM     13  O   UNL     1       0.265   1.982   0.002  0.00  0.00    -0.457 OA
ATOM     14  C   UNL     1       2.342   0.586  -0.376  0.00  0.00    +0.086 C 
ENDBRANCH   4   9
BRANCH   2  15
ATOM     15  C   UNL     1      -3.372   5.135  -0.844  0.00  0.00    -0.022 A 
ATOM     16  C   UNL     1      -2.813   5.415  -2.077  0.00  0.00    +0.009 A 
ATOM     17  C   UNL     1      -3.516   5.137  -3.234  0.00  0.00    +0.046 A 
ATOM     18  C   UNL     1      -4.788   4.588  -3.157  0.00  0.00    +0.121 A 
ATOM     19  C   UNL     1      -5.348   4.313  -1.918  0.00  0.00    +0.046 A 
ATOM     20  C   UNL     1      -4.639   4.587  -0.764  0.00  0.00    +0.009 A 
BRANCH  18  21
ATOM     21  O   UNL     1      -5.484   4.320  -4.293  0.00  0.00    -0.489 OA
BRANCH  21  22
ATOM     22  C   UNL     1      -6.777   3.732  -4.138  0.00  0.00    +0.167 C 
ATOM     23  C   UNL     1      -7.807   4.829  -3.868  0.00  0.00    +0.051 C 
ATOM     24  C   UNL     1      -7.153   2.983  -5.419  0.00  0.00    +0.051 C 
ENDBRANCH  21  22
ENDBRANCH  18  21
ENDBRANCH   2  15
BRANCH   4  25
ATOM     25  O   UNL     1      -3.079   2.555   1.001  0.00  0.00    -0.503 OA
ATOM     26  H   UNL     1      -3.069   1.563   1.134  0.00  0.00    +0.292 HD
ENDBRANCH   4  25
BRANCH   1  27
ATOM     27  C   UNL     1      -2.460   8.005   0.023  0.00  0.00    +0.107 C 
BRANCH  27  28
ATOM     28  C   UNL     1      -2.575   8.237  -1.485  0.00  0.00    +0.000 C 
BRANCH  28  29
ATOM     29  C   UNL     1      -3.199   9.610  -1.744  0.00  0.00    -0.077 C 
BRANCH  29  30
ATOM     30  N   UNL     1      -3.283   9.828  -3.203  0.00  0.00    +0.379 N 
ATOM     31  H   UNL     1      -2.361   9.653  -3.620  0.00  0.00    -0.082 HD
BRANCH  30  33
ATOM     32  C   UNL     1      -5.663   9.161  -3.239  0.00  0.00    -0.017 C 
ATOM     33  C   UNL     1      -4.264   8.895  -3.797  0.00  0.00    -0.082 C 
ENDBRANCH  30  33
BRANCH  30  34
ATOM     34  C   UNL     1      -3.680  11.224  -3.484  0.00  0.00    -0.082 C 
ATOM     35  C   UNL     1      -3.420  11.521  -4.962  0.00  0.00    -0.017 C 
ENDBRANCH  30  34
ENDBRANCH  29  30
ENDBRANCH  28  29
ENDBRANCH  27  28
ENDBRANCH   1  27
TORSDOF 11
