REMARK  Name = ZINC44867262
REMARK  7 active torsions:
REMARK  status: ('A' for Active; 'I' for Inactive)
REMARK    1  A    between atoms: C_1  and  C_2
REMARK    2  A    between atoms: C_2  and  C_3
REMARK    3  A    between atoms: C_3  and  C_5
REMARK    4  A    between atoms: C_3  and  C_9
REMARK    5  A    between atoms: N_6  and  O_7
REMARK    6  A    between atoms: N_11  and  C_12
REMARK    7  A    between atoms: C_17  and  C_20
REMARK                            x       y       z     vdW  Elec       q    Type
REMARK                         _______ _______ _______ _____ _____    ______ ____
ROOT
ATOM      1  C   UNL     1      -1.414  -2.036   0.129  0.00  0.00    +0.224 C 
ATOM      2  O   UNL     1      -1.912  -2.718  -0.742  0.00  0.00    -0.275 OA
ATOM      3  N   UNL     1      -0.842  -2.622   1.199  0.00  0.00    -0.312 N 
ATOM      4  H   UNL     1      -0.444  -2.077   1.895  0.00  0.00    +0.149 HD
ENDROOT
BRANCH   3   5
ATOM      5  C   UNL     1      -0.823  -4.083   1.312  0.00  0.00    +0.073 C 
ATOM      6  C   UNL     1       0.382  -4.637   0.549  0.00  0.00    +0.022 C 
ATOM      7  C   UNL     1       1.670  -4.063   1.143  0.00  0.00    +0.002 C 
ATOM      8  C   UNL     1       1.772  -4.460   2.617  0.00  0.00    +0.003 C 
ATOM      9  C   UNL     1       0.567  -3.905   3.380  0.00  0.00    -0.012 C 
ATOM     10  C   UNL     1      -0.720  -4.479   2.786  0.00  0.00    +0.025 C 
ATOM     11  C   UNL     1       0.670  -4.302   4.854  0.00  0.00    +0.007 C 
ENDBRANCH   3   5
BRANCH   1  12
ATOM     12  C   UNL     1      -1.433  -0.534   0.013  0.00  0.00    +0.141 C 
BRANCH  12  13
ATOM     13  C   UNL     1      -2.125  -0.137  -1.266  0.00  0.00    +0.144 C 
ATOM     14  N   UNL     1      -1.430   0.098  -2.330  0.00  0.00    -0.076 NA
ATOM     15  N   UNL     1      -3.497  -0.026  -1.301  0.00  0.00    -0.343 N 
ATOM     16  H   UNL     1      -4.019  -0.203  -0.503  0.00  0.00    +0.144 HD
ATOM     17  H   UNL     1      -3.942   0.229  -2.125  0.00  0.00    +0.144 HD
BRANCH  14  18
ATOM     18  O   UNL     1      -2.080   0.471  -3.531  0.00  0.00    -0.408 OA
ATOM     19  H   UNL     1      -1.478   0.626  -4.272  0.00  0.00    +0.328 HD
ENDBRANCH  14  18
ENDBRANCH  12  13
BRANCH  12  21
ATOM     20  C   UNL     1      -0.019   1.526   0.010  0.00  0.00    +0.005 C 
ATOM     21  C   UNL     1       0.002  -0.004   0.002  0.00  0.00    +0.017 C 
ENDBRANCH  12  21
ENDBRANCH   1  12
TORSDOF 5
