REMARK  Name = ZINC67110619
REMARK  8 active torsions:
REMARK  status: ('A' for Active; 'I' for Inactive)
REMARK    1  A    between atoms: C_1  and  C_2
REMARK    2  A    between atoms: C_2  and  C_3
REMARK    3  A    between atoms: C_3  and  O_4
REMARK    4  A    between atoms: O_4  and  C_5
REMARK    5  A    between atoms: C_12  and  C_14
REMARK    6  A    between atoms: C_14  and  C_16
REMARK    7  A    between atoms: C_14  and  S_17
REMARK    8  A    between atoms: S_17  and  C_18
REMARK                            x       y       z     vdW  Elec       q    Type
REMARK                         _______ _______ _______ _____ _____    ______ ____
ROOT
ATOM      1  C   UNL     1       1.662  -2.289   2.691  0.00  0.00    +0.136 C 
ATOM      2  C   UNL     1       0.794  -2.410   3.945  0.00  0.00    +0.035 C 
ATOM      3  C   UNL     1       1.624  -3.000   5.087  0.00  0.00    +0.021 C 
ATOM      4  C   UNL     1       2.104  -4.401   4.694  0.00  0.00    +0.108 C 
ATOM      5  N   UNL     1       2.816  -4.314   3.412  0.00  0.00    -0.298 N 
ATOM      6  C   UNL     1       2.142  -3.681   2.270  0.00  0.00    +0.139 C 
ATOM      7  C   UNL     1       4.065  -4.806   3.285  0.00  0.00    +0.229 C 
ATOM      8  O   UNL     1       4.646  -5.242   4.256  0.00  0.00    -0.274 OA
ENDROOT
BRANCH   7   9
ATOM      9  C   UNL     1       4.739  -4.813   1.938  0.00  0.00    +0.134 C 
ATOM     10  C   UNL     1       5.421  -3.464   1.701  0.00  0.00    +0.029 C 
BRANCH   9  11
ATOM     11  S   UNL     1       5.980  -6.135   1.889  0.00  0.00    -0.113 S 
BRANCH  11  12
ATOM     12  C   UNL     1       5.027  -7.617   1.944  0.00  0.00    +0.009 A 
ATOM     13  C   UNL     1       3.641  -7.556   1.867  0.00  0.00    +0.015 A 
ATOM     14  C   UNL     1       2.898  -8.719   1.910  0.00  0.00    +0.001 A 
ATOM     15  C   UNL     1       3.531  -9.943   2.030  0.00  0.00    +0.000 A 
ATOM     16  C   UNL     1       4.910 -10.007   2.107  0.00  0.00    +0.001 A 
ATOM     17  C   UNL     1       5.660  -8.848   2.058  0.00  0.00    +0.015 A 
ENDBRANCH  11  12
ENDBRANCH   9  11
ENDBRANCH   7   9
BRANCH   1  18
ATOM     18  O   UNL     1       0.894  -1.710   1.634  0.00  0.00    -0.375 OA
BRANCH  18  19
ATOM     19  C   UNL     1       0.963  -0.283   1.580  0.00  0.00    +0.160 C 
BRANCH  19  21
ATOM     20  C   UNL     1       0.181   1.752   0.360  0.00  0.00    +0.006 C 
ATOM     21  C   UNL     1       0.108   0.225   0.417  0.00  0.00    +0.025 C 
ENDBRANCH  19  21
ENDBRANCH  18  19
ENDBRANCH   1  18
TORSDOF 6
