REMARK  Name = ZINC00412207
REMARK  4 active torsions:
REMARK  status: ('A' for Active; 'I' for Inactive)
REMARK    1  A    between atoms: C_1  and  C_2
REMARK    2  A    between atoms: C_4  and  C_23
REMARK    3  A    between atoms: C_8  and  N_22
REMARK    4  A    between atoms: C_9  and  C_15
REMARK                            x       y       z     vdW  Elec       q    Type
REMARK                         _______ _______ _______ _____ _____    ______ ____
ROOT
ATOM      1  C   UNL     1      -0.075  -6.479  -0.028  0.00  0.00    +0.044 C 
ATOM      2  C   UNL     1      -0.331  -4.994  -0.019  0.00  0.00    -0.048 A 
ATOM      3  C   UNL     1      -1.644  -4.523  -0.004  0.00  0.00    +0.007 A 
ATOM      4  C   UNL     1      -1.909  -3.190   0.005  0.00  0.00    -0.041 A 
ATOM      5  C   UNL     1      -0.846  -2.266  -0.001  0.00  0.00    +0.004 A 
ATOM      6  C   UNL     1      -1.091  -0.889   0.008  0.00  0.00    +0.022 A 
ATOM      7  C   UNL     1       0.002  -0.004   0.002  0.00  0.00    +0.030 A 
ATOM      8  C   UNL     1      -0.018   1.454   0.010  0.00  0.00    +0.053 A 
ATOM      9  C   UNL     1       1.183   2.124   0.002  0.00  0.00    +0.097 A 
ATOM     10  S   UNL     1       2.392   0.816  -0.016  0.00  0.00    -0.062 S 
ATOM     11  C   UNL     1       1.300  -0.585  -0.013  0.00  0.00    +0.111 A 
ATOM     12  N   UNL     1       1.506  -1.878  -0.022  0.00  0.00    -0.239 NA
ATOM     13  C   UNL     1       0.490  -2.745  -0.017  0.00  0.00    +0.073 A 
ATOM     14  C   UNL     1       0.722  -4.132  -0.025  0.00  0.00    +0.031 A 
ATOM     15  C   UNL     1      -3.335  -2.702   0.022  0.00  0.00    +0.044 C 
ENDROOT
BRANCH   9  16
ATOM     16  C   UNL     1       1.405   3.523   0.007  0.00  0.00    +0.255 C 
ATOM     17  O   UNL     1       0.459   4.290   0.019  0.00  0.00    -0.269 OA
ATOM     18  N   UNL     1       2.664   4.006  -0.002  0.00  0.00    -0.297 N 
ATOM     19  C   UNL     1       3.891   3.197  -0.011  0.00  0.00    +0.108 C 
ATOM     20  C   UNL     1       5.085   4.175   0.005  0.00  0.00    +0.020 C 
ATOM     21  C   UNL     1       4.465   5.466   0.601  0.00  0.00    +0.020 C 
ATOM     22  C   UNL     1       3.037   5.432   0.001  0.00  0.00    +0.108 C 
ENDBRANCH   9  16
BRANCH   8  23
ATOM     23  N   UNL     1      -1.218   2.147   0.019  0.00  0.00    -0.356 N 
ATOM     24  H   UNL     1      -2.059   1.663   0.021  0.00  0.00    +0.142 HD
ATOM     25  H   UNL     1      -1.218   3.118   0.025  0.00  0.00    +0.142 HD
ENDBRANCH   8  23
TORSDOF 2
