REMARK  Name = ZINC10216848
REMARK  10 active torsions:
REMARK  status: ('A' for Active; 'I' for Inactive)
REMARK    1  A    between atoms: C_1  and  C_2
REMARK    2  A    between atoms: C_3  and  C_14
REMARK    3  A    between atoms: C_4  and  C_13
REMARK    4  A    between atoms: C_9  and  S_11
REMARK    5  A    between atoms: S_11  and  C_12
REMARK    6  A    between atoms: C_14  and  C_15
REMARK    7  A    between atoms: C_15  and  C_16
REMARK    8  A    between atoms: N_18  and  C_19
REMARK    9  A    between atoms: C_19  and  C_21
REMARK   10  A    between atoms: C_19  and  C_27
REMARK                            x       y       z     vdW  Elec       q    Type
REMARK                         _______ _______ _______ _____ _____    ______ ____
ROOT
ATOM      1  C   UNL     1       1.260  -4.210  -1.474  0.00  0.00    +0.214 C 
ATOM      2  O   UNL     1       1.279  -4.821  -0.427  0.00  0.00    -0.276 OA
ATOM      3  N   UNL     1       1.258  -4.878  -2.645  0.00  0.00    -0.302 N 
ATOM      4  H   UNL     1       1.243  -4.388  -3.482  0.00  0.00    +0.150 HD
ENDROOT
BRANCH   1   5
ATOM      5  C   UNL     1       1.237  -2.703  -1.466  0.00  0.00    +0.100 C 
BRANCH   5   6
ATOM      6  C   UNL     1       1.243  -2.200  -0.021  0.00  0.00    +0.048 C 
BRANCH   6   9
ATOM      7  C   UNL     1      -1.295  -0.772   0.011  0.00  0.00    +0.066 C 
ATOM      8  C   UNL     1       0.002  -0.004   0.002  0.00  0.00    +0.047 A 
ATOM      9  C   UNL     1       1.220  -0.693  -0.013  0.00  0.00    -0.005 A 
ATOM     10  C   UNL     1       2.381   0.012  -0.021  0.00  0.00    +0.048 A 
ATOM     11  N   UNL     1       2.329   1.369  -0.013  0.00  0.00    -0.200 N 
ATOM     12  C   UNL     1       1.123   2.012   0.002  0.00  0.00    +0.254 A 
ATOM     13  N   UNL     1      -0.016   1.310   0.009  0.00  0.00    -0.216 NA
ATOM     14  N   UNL     1       1.370   3.318   0.007  0.00  0.00    -0.183 NA
ATOM     15  C   UNL     1       2.685   3.526  -0.004  0.00  0.00    +0.211 A 
ATOM     16  N   UNL     1       3.312   2.367  -0.017  0.00  0.00    -0.137 NA
ATOM     17  C   UNL     1       3.709  -0.702  -0.038  0.00  0.00    +0.066 C 
BRANCH  15  18
ATOM     18  S   UNL     1       3.465   5.106  -0.002  0.00  0.00    -0.088 S 
ATOM     19  C   UNL     1       2.081   6.279   0.017  0.00  0.00    +0.093 C 
ENDBRANCH  15  18
ENDBRANCH   6   9
ENDBRANCH   5   6
ENDBRANCH   1   5
BRANCH   3  20
ATOM     20  C   UNL     1       1.281  -6.342  -2.652  0.00  0.00    +0.169 C 
BRANCH  20  21
ATOM     21  C   UNL     1       0.676  -6.847  -3.937  0.00  0.00    +0.131 A 
ATOM     22  C   UNL     1      -0.132  -7.912  -4.037  0.00  0.00    +0.055 A 
ATOM     23  C   UNL     1      -0.478  -8.030  -5.459  0.00  0.00    +0.020 A 
ATOM     24  C   UNL     1      -1.266  -8.908  -6.201  0.00  0.00    +0.011 A 
ATOM     25  C   UNL     1      -1.380  -8.739  -7.553  0.00  0.00    +0.001 A 
ATOM     26  C   UNL     1      -0.715  -7.701  -8.190  0.00  0.00    +0.004 A 
ATOM     27  C   UNL     1       0.069  -6.823  -7.473  0.00  0.00    +0.047 A 
ATOM     28  C   UNL     1       0.198  -6.976  -6.098  0.00  0.00    +0.135 A 
ATOM     29  O   UNL     1       0.873  -6.299  -5.148  0.00  0.00    -0.457 OA
ENDBRANCH  20  21
BRANCH  20  30
ATOM     30  C   UNL     1       2.705  -6.824  -2.545  0.00  0.00    -0.020 A 
ATOM     31  C   UNL     1       3.708  -6.174  -3.239  0.00  0.00    +0.006 A 
ATOM     32  C   UNL     1       5.015  -6.612  -3.137  0.00  0.00    +0.000 A 
ATOM     33  C   UNL     1       5.317  -7.707  -2.348  0.00  0.00    +0.000 A 
ATOM     34  C   UNL     1       4.313  -8.360  -1.658  0.00  0.00    +0.000 A 
ATOM     35  C   UNL     1       3.007  -7.918  -1.756  0.00  0.00    +0.006 A 
ENDBRANCH  20  30
ENDBRANCH   3  20
TORSDOF 7
