REMARK  Name = ZINC14015223
REMARK  6 active torsions:
REMARK  status: ('A' for Active; 'I' for Inactive)
REMARK    1  A    between atoms: C_1  and  C_2
REMARK    2  A    between atoms: C_5  and  N_8
REMARK    3  A    between atoms: C_20  and  C_22
REMARK    4  A    between atoms: C_22  and  C_23
REMARK    5  A    between atoms: N_25  and  C_26
REMARK    6  A    between atoms: C_29  and  C_32
REMARK                            x       y       z     vdW  Elec       q    Type
REMARK                         _______ _______ _______ _____ _____    ______ ____
ROOT
ATOM      1  N   UNL     1       1.281   3.556  -0.158  0.00  0.00    -0.214 N 
ATOM      2  C   UNL     1       2.140   4.281   0.610  0.00  0.00    +0.171 A 
ATOM      3  C   UNL     1       1.962   5.629   0.257  0.00  0.00    +0.103 A 
ATOM      4  C   UNL     1       0.960   5.665  -0.737  0.00  0.00    +0.150 A 
ATOM      5  N   UNL     1       0.568   4.444  -0.973  0.00  0.00    -0.172 NA
ATOM      6  C   UNL     1       2.740   6.612   0.905  0.00  0.00    +0.266 A 
ATOM      7  O   UNL     1       2.600   7.788   0.619  0.00  0.00    -0.267 OA
ATOM      8  N   UNL     1       3.656   6.240   1.857  0.00  0.00    -0.283 N 
ATOM      9  C   UNL     1       3.767   4.907   2.133  0.00  0.00    +0.174 A 
ATOM     10  N   UNL     1       3.051   3.978   1.540  0.00  0.00    -0.203 NA
ATOM     11  S   UNL     1       5.018   4.746   3.390  0.00  0.00    -0.085 S 
ATOM     12  C   UNL     1       5.455   6.511   3.603  0.00  0.00    +0.103 C 
ATOM     13  C   UNL     1       4.513   7.173   2.588  0.00  0.00    +0.112 C 
ENDROOT
BRANCH   1  18
ATOM     14  C   UNL     1       0.674  -2.085  -0.056  0.00  0.00    +0.044 C 
ATOM     15  C   UNL     1       0.835  -0.586  -0.083  0.00  0.00    -0.050 A 
ATOM     16  C   UNL     1      -0.265   0.222  -0.301  0.00  0.00    +0.005 A 
ATOM     17  C   UNL     1      -0.121   1.595  -0.327  0.00  0.00    +0.028 A 
ATOM     18  C   UNL     1       1.131   2.164  -0.132  0.00  0.00    +0.068 A 
ATOM     19  C   UNL     1       2.234   1.350   0.088  0.00  0.00    +0.028 A 
ATOM     20  C   UNL     1       2.083  -0.023   0.112  0.00  0.00    +0.005 A 
ENDBRANCH   1  18
BRANCH  13  21
ATOM     21  C   UNL     1       3.621   8.169   3.332  0.00  0.00    +0.122 C 
BRANCH  21  22
ATOM     22  C   UNL     1       4.479   9.226   3.979  0.00  0.00    +0.219 C 
ATOM     23  O   UNL     1       5.673   9.253   3.764  0.00  0.00    -0.275 OA
ATOM     24  N   UNL     1       3.920  10.141   4.795  0.00  0.00    -0.285 N 
ATOM     25  H   UNL     1       2.980  10.075   5.026  0.00  0.00    +0.155 HD
BRANCH  24  26
ATOM     26  C   UNL     1       4.696  11.184   5.311  0.00  0.00    +0.033 A 
ATOM     27  C   UNL     1       4.426  11.694   6.575  0.00  0.00    +0.024 A 
ATOM     28  C   UNL     1       5.198  12.720   7.084  0.00  0.00    +0.014 A 
ATOM     29  C   UNL     1       6.231  13.248   6.332  0.00  0.00    +0.055 A 
ATOM     30  C   UNL     1       6.499  12.748   5.071  0.00  0.00    +0.014 A 
ATOM     31  C   UNL     1       5.735  11.717   4.559  0.00  0.00    +0.024 A 
BRANCH  29  32
ATOM     32  C   UNL     1       7.067  14.372   6.888  0.00  0.00    +0.417 C 
ATOM     33  F   UNL     1       6.494  15.598   6.534  0.00  0.00    -0.166 F 
ATOM     34  F   UNL     1       7.121  14.268   8.282  0.00  0.00    -0.166 F 
ATOM     35  F   UNL     1       8.362  14.294   6.363  0.00  0.00    -0.166 F 
ENDBRANCH  29  32
ENDBRANCH  24  26
ENDBRANCH  21  22
ENDBRANCH  13  21
TORSDOF 5
