REMARK  Name = ZINC12020574
REMARK  5 active torsions:
REMARK  status: ('A' for Active; 'I' for Inactive)
REMARK    1  A    between atoms: C_5  and  N_8
REMARK    2  A    between atoms: C_10  and  C_16
REMARK    3  A    between atoms: N_18  and  C_19
REMARK    4  A    between atoms: C_19  and  C_20
REMARK    5  A    between atoms: C_20  and  N_70
REMARK                            x       y       z     vdW  Elec       q    Type
REMARK                         _______ _______ _______ _____ _____    ______ ____
ROOT
ATOM      1  C   UNL     1      -0.022   1.127  -2.477  0.00  0.00    +0.218 C 
ATOM      2  O   UNL     1       1.001   0.484  -2.370  0.00  0.00    -0.275 OA
ATOM      3  N   UNL     1      -0.420   1.564  -3.688  0.00  0.00    -0.316 N 
ATOM      4  H   UNL     1      -1.239   2.078  -3.773  0.00  0.00    +0.149 HD
ENDROOT
BRANCH   1   7
ATOM      5  N   UNL     1      -0.841   1.303   1.193  0.00  0.00    -0.298 N 
ATOM      6  C   UNL     1      -0.183   0.831  -0.018  0.00  0.00    +0.120 C 
ATOM      7  C   UNL     1      -0.849   1.436  -1.255  0.00  0.00    +0.093 C 
ATOM      8  C   UNL     1      -0.942   2.955  -1.068  0.00  0.00    +0.023 C 
ATOM      9  C   UNL     1      -1.931   3.244   0.064  0.00  0.00    +0.097 C 
ATOM     10  C   UNL     1      -1.605   2.391   1.257  0.00  0.00    +0.216 C 
ATOM     11  O   UNL     1      -2.064   2.710   2.333  0.00  0.00    -0.276 OA
BRANCH   5  16
ATOM     12  C   UNL     1      -1.740  -0.744   5.309  0.00  0.00    +0.000 C 
ATOM     13  C   UNL     1      -0.955   0.561   5.541  0.00  0.00    +0.000 C 
ATOM     14  C   UNL     1       0.307   0.628   4.724  0.00  0.00    +0.002 C 
ATOM     15  C   UNL     1       0.003   1.381   3.413  0.00  0.00    +0.022 C 
ATOM     16  C   UNL     1      -0.647   0.533   2.424  0.00  0.00    +0.076 C 
ATOM     17  C   UNL     1      -2.015   0.011   2.908  0.00  0.00    +0.022 C 
ATOM     18  C   UNL     1      -1.782  -1.160   3.826  0.00  0.00    +0.002 C 
ENDBRANCH   5  16
ENDBRANCH   1   7
BRANCH   3  19
ATOM     19  C   UNL     1       0.383   1.264  -4.875  0.00  0.00    +0.092 C 
BRANCH  19  20
ATOM     20  C   UNL     1      -0.348   1.761  -6.124  0.00  0.00    -0.050 C 
ATOM     21  C   UNL     1      -0.536   3.291  -6.053  0.00  0.00    -0.010 C 
ATOM     22  C   UNL     1      -1.933   3.531  -6.678  0.00  0.00    -0.001 C 
ATOM     23  C   UNL     1      -2.753   2.325  -6.156  0.00  0.00    -0.001 C 
ATOM     24  C   UNL     1      -1.757   1.147  -6.190  0.00  0.00    -0.010 C 
BRANCH  20  30
ATOM     25  C   UNL     1       0.473  -0.055  -7.499  0.00  0.00    -0.078 C 
ATOM     26  C   UNL     1       1.145  -0.386  -8.834  0.00  0.00    -0.019 C 
ATOM     27  C   UNL     1       2.557   0.207  -8.850  0.00  0.00    -0.004 C 
ATOM     28  C   UNL     1       2.470   1.718  -8.622  0.00  0.00    -0.019 C 
ATOM     29  C   UNL     1       1.760   1.989  -7.294  0.00  0.00    -0.078 C 
ATOM     30  N   UNL     1       0.399   1.415  -7.352  0.00  0.00    +0.384 N 
ATOM     31  H   UNL     1      -0.094   1.806  -8.163  0.00  0.00    -0.081 HD
ENDBRANCH  20  30
ENDBRANCH  19  20
ENDBRANCH   3  19
TORSDOF 5
