REMARK  Name = ZINC38556367
REMARK  7 active torsions:
REMARK  status: ('A' for Active; 'I' for Inactive)
REMARK    1  A    between atoms: C_6  and  C_7
REMARK    2  A    between atoms: C_9  and  C_13
REMARK    3  A    between atoms: C_17  and  S_21
REMARK    4  A    between atoms: N_19  and  N_20
REMARK    5  A    between atoms: S_21  and  C_22
REMARK    6  A    between atoms: C_22  and  C_23
REMARK    7  A    between atoms: C_23  and  C_25
REMARK                            x       y       z     vdW  Elec       q    Type
REMARK                         _______ _______ _______ _____ _____    ______ ____
ROOT
ATOM      1  C   UNL     1      -3.281  -3.139  -1.234  0.00  0.00    +0.244 C 
ATOM      2  N   UNL     1      -3.020  -2.337  -2.436  0.00  0.00    -0.167 NA
ATOM      3  N   UNL     1      -3.979  -2.369  -3.213  0.00  0.00    -0.159 NA
ATOM      4  C   UNL     1      -5.067  -3.200  -2.679  0.00  0.00    +0.272 C 
ATOM      5  N   UNL     1      -4.750  -3.359  -1.235  0.00  0.00    -0.183 NA
ENDROOT
BRANCH   1   8
ATOM      6  C   UNL     1      -1.271  -0.766   0.011  0.00  0.00    +0.091 C 
ATOM      7  C   UNL     1      -1.363  -2.110   0.010  0.00  0.00    +0.035 C 
ATOM      8  C   UNL     1      -2.858  -2.372   0.020  0.00  0.00    +0.195 C 
ATOM      9  N   UNL     1      -3.437  -1.018   0.026  0.00  0.00    -0.176 NA
ATOM     10  N   UNL     1      -2.509  -0.206   0.026  0.00  0.00    -0.154 NA
BRANCH   6  16
ATOM     11  C   UNL     1      -0.017   1.389   0.010  0.00  0.00    +0.011 A 
ATOM     12  C   UNL     1       1.170   2.093   0.002  0.00  0.00    +0.020 A 
ATOM     13  C   UNL     1       2.378   1.417  -0.013  0.00  0.00    +0.041 A 
ATOM     14  C   UNL     1       2.402   0.033  -0.021  0.00  0.00    +0.020 A 
ATOM     15  C   UNL     1       1.221  -0.680  -0.014  0.00  0.00    +0.011 A 
ATOM     16  C   UNL     1       0.002  -0.004   0.002  0.00  0.00    +0.002 A 
ATOM     17 CL   UNL     1       3.868   2.309  -0.022  0.00  0.00    -0.084 Cl
ENDBRANCH   6  16
ENDBRANCH   1   8
BRANCH   5  18
ATOM     18  N   UNL     1      -5.076  -4.698  -0.773  0.00  0.00    -0.263 NA
ATOM     19  H   UNL     1      -6.074  -4.848  -0.773  0.00  0.00    +0.137 HD
ATOM     20  H   UNL     1      -4.605  -5.397  -1.327  0.00  0.00    +0.137 HD
ENDBRANCH   5  18
BRANCH   4  21
ATOM     21  S   UNL     1      -6.663  -2.363  -2.890  0.00  0.00    -0.108 S 
BRANCH  21  22
ATOM     22  C   UNL     1      -6.461  -0.799  -1.994  0.00  0.00    +0.152 C 
BRANCH  22  23
ATOM     23  C   UNL     1      -7.732   0.004  -2.091  0.00  0.00    +0.173 C 
ATOM     24  O   UNL     1      -8.681  -0.436  -2.705  0.00  0.00    -0.291 OA
BRANCH  23  25
ATOM     25  C   UNL     1      -7.822   1.320  -1.442  0.00  0.00    +0.018 A 
ATOM     26  C   UNL     1      -6.728   1.833  -0.738  0.00  0.00    +0.013 A 
ATOM     27  C   UNL     1      -6.819   3.068  -0.133  0.00  0.00    +0.020 A 
ATOM     28  C   UNL     1      -7.992   3.801  -0.220  0.00  0.00    +0.041 A 
ATOM     29  C   UNL     1      -9.080   3.299  -0.915  0.00  0.00    +0.020 A 
ATOM     30  C   UNL     1      -9.001   2.068  -1.531  0.00  0.00    +0.013 A 
ATOM     31 CL   UNL     1      -8.098   5.355   0.546  0.00  0.00    -0.084 Cl
ENDBRANCH  23  25
ENDBRANCH  22  23
ENDBRANCH  21  22
ENDBRANCH   4  21
TORSDOF 7
