REMARK  Name = ZINC57623608
REMARK  11 active torsions:
REMARK  status: ('A' for Active; 'I' for Inactive)
REMARK    1  A    between atoms: C_1  and  C_2
REMARK    2  A    between atoms: C_3  and  C_14
REMARK    3  A    between atoms: C_4  and  C_13
REMARK    4  A    between atoms: N_5  and  C_7
REMARK    5  A    between atoms: C_14  and  N_15
REMARK    6  A    between atoms: N_15  and  C_16
REMARK    7  A    between atoms: N_15  and  C_17
REMARK    8  A    between atoms: C_17  and  C_18
REMARK    9  A    between atoms: C_18  and  C_19
REMARK   10  A    between atoms: C_19  and  C_20
REMARK   11  A    between atoms: C_19  and  C_21
REMARK                            x       y       z     vdW  Elec       q    Type
REMARK                         _______ _______ _______ _____ _____    ______ ____
ROOT
ATOM      1  C   UNL     1      -0.375   1.472   0.072  0.00  0.00    +0.068 C 
ATOM      2  C   UNL     1      -0.152  -0.018   0.029  0.00  0.00    +0.062 A 
ATOM      3  C   UNL     1      -0.152  -0.814  -1.121  0.00  0.00    -0.020 A 
ATOM      4  C   UNL     1       0.084  -2.092  -0.744  0.00  0.00    +0.043 A 
ATOM      5  N   UNL     1       0.229  -2.104   0.600  0.00  0.00    -0.237 N 
ATOM      6  N   UNL     1       0.082  -0.789   1.061  0.00  0.00    -0.171 NA
ATOM      7  C   UNL     1       0.169  -3.287  -1.658  0.00  0.00    +0.066 C 
ENDROOT
BRANCH   5   8
ATOM      8  C   UNL     1       0.486  -3.231   1.393  0.00  0.00    +0.066 A 
ATOM      9  C   UNL     1       1.409  -4.180   0.974  0.00  0.00    +0.028 A 
ATOM     10  C   UNL     1       1.659  -5.290   1.757  0.00  0.00    +0.002 A 
ATOM     11  C   UNL     1       0.992  -5.457   2.956  0.00  0.00    +0.000 A 
ATOM     12  C   UNL     1       0.072  -4.514   3.376  0.00  0.00    +0.002 A 
ATOM     13  C   UNL     1      -0.179  -3.399   2.600  0.00  0.00    +0.028 A 
ENDBRANCH   5   8
BRANCH   3  14
ATOM     14  C   UNL     1      -0.377  -0.333  -2.532  0.00  0.00    -0.040 C 
BRANCH  14  15
ATOM     15  N   UNL     1       0.911   0.032  -3.136  0.00  0.00    +0.381 N 
ATOM     16  C   UNL     1       1.750  -1.168  -3.263  0.00  0.00    -0.096 C 
ATOM     17  H   UNL     1       1.378   0.708  -2.550  0.00  0.00    -0.082 HD
BRANCH  15  18
ATOM     18  C   UNL     1       0.681   0.612  -4.466  0.00  0.00    -0.079 C 
BRANCH  18  19
ATOM     19  C   UNL     1       2.010   1.106  -5.043  0.00  0.00    -0.016 C 
BRANCH  19  20
ATOM     20  C   UNL     1       1.770   1.710  -6.428  0.00  0.00    -0.019 C 
ATOM     21  C   UNL     1       3.074   2.316  -6.953  0.00  0.00    +0.007 C 
ATOM     22  C   UNL     1       1.294   0.616  -7.386  0.00  0.00    +0.007 C 
ENDBRANCH  19  20
ENDBRANCH  18  19
ENDBRANCH  15  18
ENDBRANCH  14  15
ENDBRANCH   3  14
TORSDOF 6
