REMARK  Name = ZINC39604250
REMARK  9 active torsions:
REMARK  status: ('A' for Active; 'I' for Inactive)
REMARK    1  A    between atoms: C_1  and  C_2
REMARK    2  A    between atoms: C_2  and  O_3
REMARK    3  A    between atoms: O_3  and  C_4
REMARK    4  A    between atoms: C_4  and  C_6
REMARK    5  A    between atoms: C_6  and  C_7
REMARK    6  A    between atoms: C_7  and  N_8
REMARK    7  A    between atoms: C_9  and  C_11
REMARK    8  A    between atoms: C_22  and  C_24
REMARK    9  A    between atoms: C_27  and  C_29
REMARK                            x       y       z     vdW  Elec       q    Type
REMARK                         _______ _______ _______ _____ _____    ______ ____
ROOT
ATOM      1  C   UNL     1      -5.669  -6.465   0.021  0.00  0.00    +0.100 C 
ATOM      2  C   UNL     1      -6.478  -5.965  -1.196  0.00  0.00    +0.121 C 
ATOM      3  N   UNL     1      -6.303  -7.020  -2.221  0.00  0.00    -0.294 N 
ATOM      4  C   UNL     1      -6.361  -8.289  -1.458  0.00  0.00    +0.115 C 
ATOM      5  C   UNL     1      -5.597  -7.991  -0.152  0.00  0.00    -0.004 C 
ATOM      6  C   UNL     1      -6.272  -8.689   1.025  0.00  0.00    -0.010 C 
ATOM      7  C   UNL     1      -6.136 -10.206   0.859  0.00  0.00    -0.082 C 
ATOM      8  N   UNL     1      -4.715 -10.568   0.798  0.00  0.00    +0.379 N 
ATOM      9  C   UNL     1      -4.096  -9.967  -0.389  0.00  0.00    -0.082 C 
ATOM     10  C   UNL     1      -4.145  -8.441  -0.277  0.00  0.00    -0.010 C 
ATOM     11  C   UNL     1      -6.130  -6.861  -3.549  0.00  0.00    +0.282 C 
ATOM     12  O   UNL     1      -5.999  -7.836  -4.266  0.00  0.00    -0.267 OA
ATOM     13  H   UNL     1      -4.247 -10.231   1.627  0.00  0.00    -0.086 HD
ATOM     14  H   UNL     1      -4.627 -11.572   0.750  0.00  0.00    -0.086 HD
ENDROOT
BRANCH  11  15
ATOM     15  C   UNL     1      -6.099  -5.516  -4.128  0.00  0.00    +0.190 A 
ATOM     16  C   UNL     1      -5.936  -5.213  -5.462  0.00  0.00    +0.055 A 
ATOM     17  C   UNL     1      -5.969  -3.819  -5.566  0.00  0.00    +0.050 A 
ATOM     18  C   UNL     1      -6.149  -3.326  -4.306  0.00  0.00    +0.136 A 
ATOM     19  O   UNL     1      -6.232  -4.357  -3.448  0.00  0.00    -0.450 OA
BRANCH  18  20
ATOM     20  C   UNL     1      -6.243  -1.897  -3.945  0.00  0.00    +0.017 A 
ATOM     21  C   UNL     1      -6.152  -0.917  -4.936  0.00  0.00    +0.014 A 
ATOM     22  C   UNL     1      -6.241   0.415  -4.594  0.00  0.00    +0.039 A 
ATOM     23  C   UNL     1      -6.420   0.783  -3.269  0.00  0.00    +0.123 A 
ATOM     24  C   UNL     1      -6.510  -0.185  -2.282  0.00  0.00    +0.039 A 
ATOM     25  C   UNL     1      -6.428  -1.521  -2.613  0.00  0.00    +0.014 A 
ATOM     26  F   UNL     1      -6.506   2.090  -2.940  0.00  0.00    -0.205 F 
ENDBRANCH  18  20
ENDBRANCH  11  15
BRANCH   1  28
ATOM     27  N   UNL     1      -3.624  -5.681   1.171  0.00  0.00    -0.314 N 
ATOM     28  C   UNL     1      -4.285  -5.870   0.011  0.00  0.00    +0.218 C 
ATOM     29  O   UNL     1      -3.765  -5.561  -1.040  0.00  0.00    -0.275 OA
ATOM     30  H   UNL     1      -4.039  -5.928   2.012  0.00  0.00    +0.149 HD
BRANCH  27  31
ATOM     31  C   UNL     1      -2.278  -5.103   1.161  0.00  0.00    +0.115 C 
BRANCH  31  32
ATOM     32  C   UNL     1      -1.758  -4.997   2.596  0.00  0.00    +0.139 C 
BRANCH  32  33
ATOM     33  C   UNL     1      -0.373  -4.402   2.586  0.00  0.00    +0.309 C 
ATOM     34  O   UNL     1       0.144  -4.095   1.539  0.00  0.00    -0.251 OA
BRANCH  33  35
ATOM     35  O   UNL     1       0.285  -4.214   3.741  0.00  0.00    -0.465 OA
BRANCH  35  37
ATOM     36  C   UNL     1       2.181  -3.509   5.063  0.00  0.00    +0.048 C 
ATOM     37  C   UNL     1       1.593  -3.646   3.657  0.00  0.00    +0.229 C 
ENDBRANCH  35  37
ENDBRANCH  33  35
ENDBRANCH  32  33
ENDBRANCH  31  32
ENDBRANCH  27  31
ENDBRANCH   1  28
TORSDOF 8
