REMARK  Name = ZINC18526867
REMARK  12 active torsions:
REMARK  status: ('A' for Active; 'I' for Inactive)
REMARK    1  A    between atoms: C_1  and  C_2
REMARK    2  A    between atoms: C_2  and  O_3
REMARK    3  A    between atoms: O_3  and  C_4
REMARK    4  A    between atoms: C_4  and  C_6
REMARK    5  A    between atoms: C_7  and  C_30
REMARK    6  A    between atoms: C_9  and  N_14
REMARK    7  A    between atoms: C_10  and  C_11
REMARK    8  A    between atoms: C_15  and  C_17
REMARK    9  A    between atoms: C_17  and  S_18
REMARK   10  A    between atoms: S_18  and  C_19
REMARK   11  A    between atoms: C_22  and  C_25
REMARK   12  A    between atoms: N_23  and  N_24
REMARK                            x       y       z     vdW  Elec       q    Type
REMARK                         _______ _______ _______ _____ _____    ______ ____
ROOT
ATOM      1  N   UNL     1       3.356  11.976   0.035  0.00  0.00    -0.255 N 
ATOM      2  C   UNL     1       3.734  10.697   0.235  0.00  0.00    +0.230 C 
ATOM      3  O   UNL     1       4.881  10.444   0.535  0.00  0.00    -0.274 OA
ATOM      4  H   UNL     1       2.439  12.178  -0.205  0.00  0.00    +0.158 HD
ENDROOT
BRANCH   1   8
ATOM      5  C   UNL     1       5.312  15.023   0.253  0.00  0.00    +0.114 A 
ATOM      6  C   UNL     1       6.195  14.033   0.550  0.00  0.00    +0.119 A 
ATOM      7  O   UNL     1       5.568  12.851   0.498  0.00  0.00    -0.445 OA
ATOM      8  C   UNL     1       4.276  12.998   0.172  0.00  0.00    +0.206 A 
ATOM      9  C   UNL     1       4.022  14.344  -0.009  0.00  0.00    +0.111 A 
ATOM     10  C   UNL     1       7.650  14.233   0.886  0.00  0.00    +0.087 C 
BRANCH   9  11
ATOM     11  C   UNL     1       2.748  14.967  -0.379  0.00  0.00    +0.247 C 
ATOM     12  O   UNL     1       1.967  15.316   0.487  0.00  0.00    -0.270 OA
ATOM     13  N   UNL     1       2.441  15.154  -1.678  0.00  0.00    -0.325 N 
ATOM     14  H   UNL     1       3.063  14.876  -2.368  0.00  0.00    +0.145 HD
ATOM     15  H   UNL     1       1.598  15.566  -1.923  0.00  0.00    +0.145 HD
ENDBRANCH   9  11
BRANCH   5  16
ATOM     16  C   UNL     1       5.584  16.468   0.198  0.00  0.00    +0.343 C 
ATOM     17  O   UNL     1       5.943  16.980  -0.845  0.00  0.00    -0.245 OA
BRANCH  16  18
ATOM     18  O   UNL     1       5.434  17.224   1.303  0.00  0.00    -0.461 OA
BRANCH  18  20
ATOM     19  C   UNL     1       5.494  19.331   2.523  0.00  0.00    +0.048 C 
ATOM     20  C   UNL     1       5.719  18.642   1.175  0.00  0.00    +0.229 C 
ENDBRANCH  18  20
ENDBRANCH  16  18
ENDBRANCH   5  16
ENDBRANCH   1   8
BRANCH   2  21
ATOM     21  C   UNL     1       2.731   9.583   0.085  0.00  0.00    +0.173 C 
BRANCH  21  22
ATOM     22  S   UNL     1       3.538   7.997   0.415  0.00  0.00    -0.075 S 
BRANCH  22  23
ATOM     23  C   UNL     1       2.175   6.905   0.176  0.00  0.00    +0.209 A 
ATOM     24  N   UNL     1       0.950   7.248  -0.151  0.00  0.00    -0.121 NA
ATOM     25  N   UNL     1       0.209   6.203  -0.249  0.00  0.00    -0.126 NA
ATOM     26  C   UNL     1       0.914   5.126   0.019  0.00  0.00    +0.188 A 
ATOM     27  N   UNL     1       2.197   5.543   0.297  0.00  0.00    -0.223 N 
BRANCH  26  28
ATOM     28  C   UNL     1       0.426   3.737   0.017  0.00  0.00    +0.058 A 
ATOM     29  C   UNL     1      -0.866   3.275   0.026  0.00  0.00    +0.019 A 
ATOM     30  C   UNL     1      -1.081   1.915   0.017  0.00  0.00    +0.008 A 
ATOM     31  C   UNL     1      -0.013   1.076   0.008  0.00  0.00    +0.046 A 
ATOM     32  S   UNL     1       1.361   2.216   0.001  0.00  0.00    -0.093 S 
ENDBRANCH  26  28
BRANCH  27  33
ATOM     33  N   UNL     1       3.267   4.760   0.623  0.00  0.00    -0.295 N 
ATOM     34  H   UNL     1       3.773   4.476  -0.203  0.00  0.00    +0.163 HD
ATOM     35  H   UNL     1       3.876   5.232   1.275  0.00  0.00    +0.163 HD
ENDBRANCH  27  33
ENDBRANCH  22  23
ENDBRANCH  21  22
ENDBRANCH   2  21
TORSDOF 10
