REMARK  Name = ZINC41091108
REMARK  5 active torsions:
REMARK  status: ('A' for Active; 'I' for Inactive)
REMARK    1  A    between atoms: C_5  and  N_32
REMARK    2  A    between atoms: N_13  and  O_16
REMARK    3  A    between atoms: O_16  and  S_17
REMARK    4  A    between atoms: S_17  and  C_20
REMARK    5  A    between atoms: C_23  and  C_26
REMARK                            x       y       z     vdW  Elec       q    Type
REMARK                         _______ _______ _______ _____ _____    ______ ____
ROOT
ATOM      1  C   UNL     1      -0.017   1.385   0.010  0.00  0.00    +0.001 A 
ATOM      2  C   UNL     1       1.137   2.117   0.003  0.00  0.00    +0.008 A 
ATOM      3  C   UNL     1       2.382   1.466  -0.013  0.00  0.00    -0.014 A 
ATOM      4  C   UNL     1       3.597   2.174  -0.021  0.00  0.00    +0.041 A 
ATOM      5  C   UNL     1       4.782   1.497  -0.036  0.00  0.00    +0.128 A 
ATOM      6  C   UNL     1       4.828   0.107  -0.044  0.00  0.00    +0.046 A 
ATOM      7  C   UNL     1       3.652  -0.628  -0.037  0.00  0.00    +0.050 A 
ATOM      8  C   UNL     1       2.415   0.056  -0.021  0.00  0.00    +0.007 A 
ATOM      9  C   UNL     1       1.211  -0.684  -0.013  0.00  0.00    +0.048 A 
ATOM     10  C   UNL     1       0.002  -0.004   0.002  0.00  0.00    +0.014 A 
ATOM     11  C   UNL     1       1.285  -2.153  -0.022  0.00  0.00    +0.279 C 
ATOM     12  O   UNL     1       0.262  -2.810  -0.016  0.00  0.00    -0.267 OA
ATOM     13  N   UNL     1       2.480  -2.774  -0.037  0.00  0.00    -0.079 N 
ATOM     14  C   UNL     1       3.645  -2.098  -0.046  0.00  0.00    +0.279 C 
ATOM     15  O   UNL     1       4.697  -2.708  -0.060  0.00  0.00    -0.267 OA
ENDROOT
BRANCH   5  16
ATOM     16  N   UNL     1       6.050   2.260  -0.045  0.00  0.00    +0.056 N 
ATOM     17  O   UNL     1       6.028   3.469  -0.039  0.00  0.00    -0.126 OA
ATOM     18  O   UNL     1       7.108   1.675  -0.059  0.00  0.00    -0.126 OA
ENDBRANCH   5  16
BRANCH  13  19
ATOM     19  O   UNL     1       2.513  -4.189  -0.045  0.00  0.00    -0.109 OA
BRANCH  19  20
ATOM     20  S   UNL     1       2.513  -4.801  -1.440  0.00  0.00    +0.131 S 
ATOM     21  O   UNL     1       2.337  -6.200  -1.269  0.00  0.00    -0.140 OA
ATOM     22  O   UNL     1       1.633  -4.012  -2.229  0.00  0.00    -0.140 OA
BRANCH  20  23
ATOM     23  C   UNL     1       4.128  -4.573  -2.107  0.00  0.00    +0.119 A 
ATOM     24  C   UNL     1       4.425  -3.430  -2.825  0.00  0.00    +0.030 A 
ATOM     25  C   UNL     1       5.691  -3.252  -3.349  0.00  0.00    +0.006 A 
ATOM     26  C   UNL     1       6.662  -4.217  -3.154  0.00  0.00    -0.044 A 
ATOM     27  C   UNL     1       6.366  -5.359  -2.435  0.00  0.00    +0.006 A 
ATOM     28  C   UNL     1       5.100  -5.536  -1.908  0.00  0.00    +0.030 A 
BRANCH  26  29
ATOM     29  C   UNL     1       8.043  -4.023  -3.726  0.00  0.00    +0.019 C 
ATOM     30  C   UNL     1       8.357  -5.163  -4.697  0.00  0.00    +0.008 C 
ATOM     31  C   UNL     1       9.759  -4.966  -5.277  0.00  0.00    +0.001 C 
ATOM     32  C   UNL     1      10.785  -4.965  -4.143  0.00  0.00    +0.000 C 
ATOM     33  C   UNL     1      10.471  -3.825  -3.172  0.00  0.00    +0.001 C 
ATOM     34  C   UNL     1       9.069  -4.021  -2.591  0.00  0.00    +0.008 C 
ENDBRANCH  26  29
ENDBRANCH  20  23
ENDBRANCH  19  20
ENDBRANCH  13  19
TORSDOF 5
