REMARK  Name = ZINC12440102
REMARK  5 active torsions:
REMARK  status: ('A' for Active; 'I' for Inactive)
REMARK    1  A    between atoms: C_4  and  N_10
REMARK    2  A    between atoms: C_5  and  C_7
REMARK    3  A    between atoms: C_11  and  C_13
REMARK    4  A    between atoms: C_13  and  C_14
REMARK    5  A    between atoms: C_20  and  C_22
REMARK                            x       y       z     vdW  Elec       q    Type
REMARK                         _______ _______ _______ _____ _____    ______ ____
ROOT
ATOM      1  C   UNL     1       1.366  -0.244   0.022  0.00  0.00    +0.059 A 
ATOM      2  C   UNL     1       0.031  -0.013   0.055  0.00  0.00    +0.072 A 
ATOM      3  S   UNL     1       0.003   1.774   0.061  0.00  0.00    -0.060 S 
ATOM      4  C   UNL     1       1.721   2.027   0.020  0.00  0.00    +0.165 A 
ATOM      5  N   UNL     1       2.183   0.791   0.005  0.00  0.00    -0.229 NA
ATOM      6  N   UNL     1       2.426   3.223   0.006  0.00  0.00    -0.261 N 
ATOM      7  C   UNL     1       1.764   4.396   0.025  0.00  0.00    +0.251 C 
ATOM      8  O   UNL     1       0.548   4.408   0.055  0.00  0.00    -0.270 OA
ATOM      9  H   UNL     1       3.396   3.214  -0.018  0.00  0.00    +0.157 HD
ENDROOT
BRANCH   7  10
ATOM     10  C   UNL     1       2.513   5.666   0.009  0.00  0.00    +0.053 A 
ATOM     11  C   UNL     1       3.929   5.659  -0.025  0.00  0.00    +0.020 A 
ATOM     12  C   UNL     1       4.594   6.845  -0.039  0.00  0.00    +0.071 A 
ATOM     13  C   UNL     1       3.865   8.049  -0.018  0.00  0.00    +0.249 A 
ATOM     14  O   UNL     1       4.457   9.115  -0.030  0.00  0.00    -0.268 OA
ATOM     15  N   UNL     1       2.520   8.032   0.015  0.00  0.00    -0.328 N 
ATOM     16  H   UNL     1       2.033   8.871   0.029  0.00  0.00    +0.168 HD
ATOM     17  C   UNL     1       1.840   6.871   0.023  0.00  0.00    +0.099 A 
ENDBRANCH   7  10
BRANCH   1  18
ATOM     18  C   UNL     1       1.905  -1.651   0.004  0.00  0.00    +0.152 C 
BRANCH  18  20
ATOM     19  N   UNL     1       3.418  -3.011  -1.403  0.00  0.00    -0.285 N 
ATOM     20  C   UNL     1       2.817  -1.825  -1.183  0.00  0.00    +0.223 C 
ATOM     21  O   UNL     1       3.011  -0.897  -1.940  0.00  0.00    -0.275 OA
ATOM     22  H   UNL     1       3.315  -3.733  -0.763  0.00  0.00    +0.155 HD
BRANCH  19  26
ATOM     23  C   UNL     1       5.719  -3.575  -4.834  0.00  0.00    +0.001 A 
ATOM     24  C   UNL     1       5.705  -2.345  -4.197  0.00  0.00    +0.002 A 
ATOM     25  C   UNL     1       4.941  -2.154  -3.064  0.00  0.00    +0.024 A 
ATOM     26  C   UNL     1       4.187  -3.200  -2.549  0.00  0.00    +0.046 A 
ATOM     27  C   UNL     1       4.198  -4.447  -3.192  0.00  0.00    +0.058 A 
ATOM     28  C   UNL     1       4.973  -4.623  -4.341  0.00  0.00    +0.015 A 
BRANCH  27  29
ATOM     29  C   UNL     1       3.397  -5.564  -2.658  0.00  0.00    +0.243 C 
ATOM     30  O   UNL     1       2.648  -5.381  -1.718  0.00  0.00    -0.270 OA
ATOM     31  N   UNL     1       3.495  -6.789  -3.213  0.00  0.00    -0.325 N 
ATOM     32  H   UNL     1       4.092  -6.935  -3.963  0.00  0.00    +0.145 HD
ATOM     33  H   UNL     1       2.967  -7.524  -2.862  0.00  0.00    +0.145 HD
ENDBRANCH  27  29
ENDBRANCH  19  26
ENDBRANCH  18  20
ENDBRANCH   1  18
TORSDOF 5
