REMARK  Name = ZINC06443210
REMARK  9 active torsions:
REMARK  status: ('A' for Active; 'I' for Inactive)
REMARK    1  A    between atoms: C_1  and  C_2
REMARK    2  A    between atoms: C_6  and  N_9
REMARK    3  A    between atoms: C_7  and  C_8
REMARK    4  A    between atoms: C_10  and  C_12
REMARK    5  A    between atoms: C_12  and  S_13
REMARK    6  A    between atoms: S_13  and  C_14
REMARK    7  A    between atoms: C_17  and  C_25
REMARK    8  A    between atoms: N_18  and  C_19
REMARK    9  A    between atoms: C_28  and  O_31
REMARK                            x       y       z     vdW  Elec       q    Type
REMARK                         _______ _______ _______ _____ _____    ______ ____
ROOT
ATOM      1  C   UNL     1      -0.334  -7.412   4.943  0.00  0.00    +0.197 A 
ATOM      2  N   UNL     1      -0.344  -6.778   6.093  0.00  0.00    -0.122 NA
ATOM      3  N   UNL     1      -0.432  -7.619   7.061  0.00  0.00    -0.128 NA
ATOM      4  C   UNL     1      -0.484  -8.843   6.590  0.00  0.00    +0.169 A 
ATOM      5  N   UNL     1      -0.427  -8.750   5.217  0.00  0.00    -0.270 N 
ENDROOT
BRANCH   5   6
ATOM      6  C   UNL     1      -0.458  -9.804   4.294  0.00  0.00    +0.051 A 
ATOM      7  C   UNL     1      -1.597 -10.589   4.171  0.00  0.00    +0.026 A 
ATOM      8  C   UNL     1      -1.623 -11.627   3.260  0.00  0.00    +0.002 A 
ATOM      9  C   UNL     1      -0.518 -11.885   2.471  0.00  0.00    +0.000 A 
ATOM     10  C   UNL     1       0.618 -11.105   2.591  0.00  0.00    +0.002 A 
ATOM     11  C   UNL     1       0.649 -10.062   3.496  0.00  0.00    +0.026 A 
ENDBRANCH   5   6
BRANCH   4  12
ATOM     12  C   UNL     1      -0.588 -10.086   7.383  0.00  0.00    +0.020 A 
ATOM     13  C   UNL     1      -0.315 -11.320   6.790  0.00  0.00    +0.015 A 
ATOM     14  C   UNL     1      -0.413 -12.477   7.533  0.00  0.00    +0.046 A 
ATOM     15  C   UNL     1      -0.783 -12.416   8.870  0.00  0.00    +0.117 A 
ATOM     16  C   UNL     1      -1.056 -11.191   9.464  0.00  0.00    +0.046 A 
ATOM     17  C   UNL     1      -0.954 -10.029   8.729  0.00  0.00    +0.015 A 
BRANCH  15  18
ATOM     18  O   UNL     1      -0.879 -13.559   9.599  0.00  0.00    -0.507 OA
ATOM     19  H   UNL     1      -0.058 -13.813  10.041  0.00  0.00    +0.292 HD
ENDBRANCH  15  18
ENDBRANCH   4  12
BRANCH   1  20
ATOM     20  S   UNL     1      -0.226  -6.677   3.345  0.00  0.00    -0.076 S 
BRANCH  20  21
ATOM     21  C   UNL     1      -0.129  -4.898   3.686  0.00  0.00    +0.173 C 
BRANCH  21  23
ATOM     22  N   UNL     1       0.052  -2.797   2.393  0.00  0.00    -0.285 N 
ATOM     23  C   UNL     1      -0.031  -4.143   2.385  0.00  0.00    +0.227 C 
ATOM     24  O   UNL     1      -0.028  -4.745   1.333  0.00  0.00    -0.275 OA
ATOM     25  H   UNL     1       0.130  -2.321   3.234  0.00  0.00    +0.155 HD
BRANCH  22  31
ATOM     26  C   UNL     1       1.206   1.236  -0.172  0.00  0.00    +0.044 C 
ATOM     27  C   UNL     1       0.577  -0.131  -0.084  0.00  0.00    -0.046 A 
ATOM     28  C   UNL     1      -0.027  -0.686  -1.198  0.00  0.00    +0.004 A 
ATOM     29  C   UNL     1      -0.605  -1.940  -1.122  0.00  0.00    +0.002 A 
ATOM     30  C   UNL     1      -0.580  -2.642   0.067  0.00  0.00    +0.023 A 
ATOM     31  C   UNL     1       0.026  -2.088   1.187  0.00  0.00    +0.037 A 
ATOM     32  C   UNL     1       0.610  -0.831   1.106  0.00  0.00    -0.026 A 
ATOM     33  C   UNL     1       1.274  -0.228   2.317  0.00  0.00    +0.046 C 
ENDBRANCH  22  31
ENDBRANCH  21  23
ENDBRANCH  20  21
ENDBRANCH   1  20
TORSDOF 7
