REMARK  Name = ZINC12489978
REMARK  12 active torsions:
REMARK  status: ('A' for Active; 'I' for Inactive)
REMARK    1  A    between atoms: C_1  and  C_2
REMARK    2  A    between atoms: C_2  and  O_3
REMARK    3  A    between atoms: O_3  and  C_4
REMARK    4  A    between atoms: C_8  and  N_10
REMARK    5  A    between atoms: N_10  and  C_11
REMARK    6  A    between atoms: C_11  and  C_13
REMARK    7  A    between atoms: C_11  and  C_19
REMARK    8  A    between atoms: N_21  and  C_22
REMARK    9  A    between atoms: C_22  and  C_23
REMARK   10  A    between atoms: C_29  and  C_31
REMARK   11  A    between atoms: C_31  and  N_32
REMARK   12  A    between atoms: C_33  and  C_35
REMARK                            x       y       z     vdW  Elec       q    Type
REMARK                         _______ _______ _______ _____ _____    ______ ____
ROOT
ATOM      1  N   UNL     1      -0.523   0.096   0.024  0.00  0.00    -0.254 N 
ATOM      2  C   UNL     1      -1.235  -0.230   1.120  0.00  0.00    +0.238 C 
ATOM      3  O   UNL     1      -1.141   0.441   2.126  0.00  0.00    -0.274 OA
ENDROOT
BRANCH   1   8
ATOM      4  C   UNL     1       0.007  -2.794  -2.192  0.00  0.00    +0.122 A 
ATOM      5  C   UNL     1      -0.633  -2.360  -3.344  0.00  0.00    +0.046 A 
ATOM      6  C   UNL     1      -1.233  -1.115  -3.376  0.00  0.00    +0.005 A 
ATOM      7  C   UNL     1      -1.202  -0.302  -2.259  0.00  0.00    +0.024 A 
ATOM      8  C   UNL     1      -0.558  -0.730  -1.105  0.00  0.00    +0.041 A 
ATOM      9  C   UNL     1       0.044  -1.979  -1.071  0.00  0.00    +0.069 A 
BRANCH   4  10
ATOM     10  O   UNL     1       0.596  -4.019  -2.161  0.00  0.00    -0.492 OA
BRANCH  10  12
ATOM     11  C   UNL     1       1.232  -6.140  -3.129  0.00  0.00    +0.048 C 
ATOM     12  C   UNL     1       0.518  -4.805  -3.352  0.00  0.00    +0.225 C 
ENDBRANCH  10  12
ENDBRANCH   4  10
ENDBRANCH   1   8
BRANCH   1  13
ATOM     13  C   UNL     1       0.288   1.316   0.013  0.00  0.00    +0.197 C 
BRANCH  13  14
ATOM     14  C   UNL     1       0.843   1.539  -1.370  0.00  0.00    -0.018 A 
ATOM     15  C   UNL     1       1.605   0.557  -1.976  0.00  0.00    +0.006 A 
ATOM     16  C   UNL     1       2.109   0.760  -3.247  0.00  0.00    +0.000 A 
ATOM     17  C   UNL     1       1.861   1.949  -3.908  0.00  0.00    +0.000 A 
ATOM     18  C   UNL     1       1.104   2.933  -3.299  0.00  0.00    +0.000 A 
ATOM     19  C   UNL     1       0.595   2.728  -2.031  0.00  0.00    +0.006 A 
ENDBRANCH  13  14
BRANCH  13  20
ATOM     20  C   UNL     1       1.425   1.172   0.993  0.00  0.00    +0.239 C 
ATOM     21  O   UNL     1       1.545   0.150   1.636  0.00  0.00    -0.273 OA
ATOM     22  N   UNL     1       2.307   2.178   1.154  0.00  0.00    -0.311 N 
ATOM     23  H   UNL     1       2.211   2.994   0.640  0.00  0.00    +0.149 HD
BRANCH  22  24
ATOM     24  C   UNL     1       3.412   2.037   2.106  0.00  0.00    +0.135 C 
BRANCH  24  25
ATOM     25  C   UNL     1       4.259   3.311   2.096  0.00  0.00    +0.135 C 
ATOM     26  C   UNL     1       5.425   3.174   3.095  0.00  0.00    +0.035 C 
ATOM     27  C   UNL     1       6.693   3.362   2.227  0.00  0.00    +0.031 C 
ATOM     28  C   UNL     1       6.131   4.108   0.989  0.00  0.00    +0.160 C 
ATOM     29  O   UNL     1       4.834   3.505   0.792  0.00  0.00    -0.375 OA
ENDBRANCH  24  25
ENDBRANCH  22  24
ENDBRANCH  13  20
ENDBRANCH   1  13
BRANCH   2  30
ATOM     30  C   UNL     1      -2.147  -1.429   1.097  0.00  0.00    +0.201 C 
BRANCH  30  31
ATOM     31  N   UNL     1      -2.898  -1.497   2.353  0.00  0.00    -0.302 N 
ATOM     32  C   UNL     1      -3.781  -2.494   2.558  0.00  0.00    +0.251 C 
ATOM     33  O   UNL     1      -3.956  -3.338   1.699  0.00  0.00    -0.270 OA
ATOM     34  H   UNL     1      -2.759  -0.824   3.038  0.00  0.00    +0.150 HD
BRANCH  32  35
ATOM     35  C   UNL     1      -4.532  -2.561   3.815  0.00  0.00    +0.074 A 
ATOM     36  C   UNL     1      -5.476  -3.492   4.220  0.00  0.00    +0.021 A 
ATOM     37  C   UNL     1      -6.032  -3.318   5.463  0.00  0.00    +0.008 A 
ATOM     38  C   UNL     1      -5.639  -2.263   6.223  0.00  0.00    +0.046 A 
ATOM     39  S   UNL     1      -4.464  -1.471   5.225  0.00  0.00    -0.092 S 
ENDBRANCH  32  35
ENDBRANCH  30  31
ENDBRANCH   2  30
TORSDOF 11
