REMARK  Name = ZINC07236977
REMARK  8 active torsions:
REMARK  status: ('A' for Active; 'I' for Inactive)
REMARK    1  A    between atoms: C_1  and  C_2
REMARK    2  A    between atoms: C_8  and  N_10
REMARK    3  A    between atoms: C_14  and  C_16
REMARK    4  A    between atoms: C_16  and  S_17
REMARK    5  A    between atoms: S_17  and  C_18
REMARK    6  A    between atoms: N_28  and  C_29
REMARK    7  A    between atoms: C_29  and  C_30
REMARK    8  A    between atoms: C_29  and  C_31
REMARK                            x       y       z     vdW  Elec       q    Type
REMARK                         _______ _______ _______ _____ _____    ______ ____
ROOT
ATOM      1  C   UNL     1       1.789  -0.294  -0.017  0.00  0.00    +0.173 C 
ENDROOT
BRANCH   1   6
ATOM      2  N   UNL     1       4.833  -4.014  -0.066  0.00  0.00    -0.296 N 
ATOM      3  C   UNL     1       3.565  -3.559  -0.051  0.00  0.00    +0.306 C 
ATOM      4  O   UNL     1       2.637  -4.344  -0.046  0.00  0.00    -0.252 OA
ATOM      5  N   UNL     1       3.325  -2.232  -0.042  0.00  0.00    -0.239 N 
ATOM      6  C   UNL     1       2.057  -1.777  -0.027  0.00  0.00    +0.231 C 
ATOM      7  O   UNL     1       1.131  -2.560  -0.022  0.00  0.00    -0.274 OA
ATOM      8  H   UNL     1       5.574  -3.387  -0.069  0.00  0.00    +0.151 HD
ATOM      9  H   UNL     1       4.065  -1.606  -0.045  0.00  0.00    +0.159 HD
BRANCH   2  16
ATOM     10  C   UNL     1       6.524  -5.212   1.958  0.00  0.00    +0.009 C 
ATOM     11  C   UNL     1       6.477  -5.728   0.519  0.00  0.00    +0.006 C 
ATOM     12  C   UNL     1       6.749  -7.234   0.508  0.00  0.00    +0.005 C 
ATOM     13  C   UNL     1       6.702  -7.750  -0.931  0.00  0.00    +0.000 C 
ATOM     14  C   UNL     1       5.319  -7.478  -1.526  0.00  0.00    +0.002 C 
ATOM     15  C   UNL     1       5.047  -5.972  -1.515  0.00  0.00    +0.022 C 
ATOM     16  C   UNL     1       5.094  -5.456  -0.076  0.00  0.00    +0.077 C 
ENDBRANCH   2  16
ENDBRANCH   1   6
BRANCH   1  17
ATOM     17  S   UNL     1       0.002  -0.004   0.002  0.00  0.00    -0.078 S 
BRANCH  17  18
ATOM     18  C   UNL     1      -0.022   1.758   0.012  0.00  0.00    +0.173 A 
ATOM     19  N   UNL     1       1.121   2.398   0.004  0.00  0.00    -0.223 NA
ATOM     20  C   UNL     1       1.177   3.745   0.011  0.00  0.00    +0.079 A 
ATOM     21  C   UNL     1       2.397   4.428   0.002  0.00  0.00    +0.028 A 
ATOM     22  C   UNL     1       2.407   5.794   0.008  0.00  0.00    +0.002 A 
ATOM     23  C   UNL     1       1.221   6.518   0.023  0.00  0.00    +0.001 A 
ATOM     24  C   UNL     1       0.012   5.878   0.032  0.00  0.00    +0.015 A 
ATOM     25  C   UNL     1      -0.027   4.484   0.025  0.00  0.00    +0.065 A 
ATOM     26  C   UNL     1      -1.296   3.744   0.034  0.00  0.00    +0.263 A 
ATOM     27  O   UNL     1      -2.366   4.325   0.047  0.00  0.00    -0.267 OA
ATOM     28  N   UNL     1      -1.231   2.392   0.021  0.00  0.00    -0.285 N 
BRANCH  28  29
ATOM     29  C   UNL     1      -2.466   1.604   0.023  0.00  0.00    +0.087 C 
ATOM     30  C   UNL     1      -3.278   1.932   1.278  0.00  0.00    +0.031 C 
ATOM     31  C   UNL     1      -3.290   1.944  -1.220  0.00  0.00    +0.031 C 
ENDBRANCH  28  29
ENDBRANCH  17  18
ENDBRANCH   1  17
TORSDOF 5
