REMARK  Name = ZINC58764827
REMARK  7 active torsions:
REMARK  status: ('A' for Active; 'I' for Inactive)
REMARK    1  A    between atoms: C_1  and  C_2
REMARK    2  A    between atoms: C_2  and  N_3
REMARK    3  A    between atoms: C_7  and  C_9
REMARK    4  A    between atoms: C_9  and  N_10
REMARK    5  A    between atoms: N_10  and  C_11
REMARK    6  A    between atoms: C_11  and  C_12
REMARK    7  A    between atoms: C_11  and  C_13
REMARK                            x       y       z     vdW  Elec       q    Type
REMARK                         _______ _______ _______ _____ _____    ______ ____
ROOT
ATOM      1  N   UNL     1      -4.487  -5.625   0.015  0.00  0.00    -0.302 NA
ATOM      2  H   UNL     1      -3.964  -5.975  -0.774  0.00  0.00    +0.123 HD
ENDROOT
BRANCH   1   3
ATOM      3  C   UNL     1      -5.851  -6.170   0.025  0.00  0.00    +0.083 C 
ATOM      4  C   UNL     1      -6.358  -6.250   1.466  0.00  0.00    +0.029 C 
BRANCH   3   5
ATOM      5  C   UNL     1      -5.846  -7.549  -0.583  0.00  0.00    -0.012 A 
ATOM      6  C   UNL     1      -4.691  -8.308  -0.563  0.00  0.00    +0.008 A 
ATOM      7  C   UNL     1      -4.685  -9.573  -1.120  0.00  0.00    +0.020 A 
ATOM      8  C   UNL     1      -5.835 -10.080  -1.698  0.00  0.00    +0.042 A 
ATOM      9  C   UNL     1      -6.991  -9.320  -1.719  0.00  0.00    +0.040 A 
ATOM     10  C   UNL     1      -6.998  -8.056  -1.156  0.00  0.00    +0.047 A 
ATOM     11 CL   UNL     1      -8.450  -7.105  -1.176  0.00  0.00    -0.083 Cl
ATOM     12 CL   UNL     1      -5.828 -11.668  -2.399  0.00  0.00    -0.083 Cl
ENDBRANCH   3   5
ENDBRANCH   1   3
BRANCH   1  13
ATOM     13  C   UNL     1      -4.507  -4.156   0.023  0.00  0.00    +0.178 C 
BRANCH  13  18
ATOM     14  N   UNL     1      -1.372  -0.511   0.012  0.00  0.00    -0.299 N 
ATOM     15  C   UNL     1      -1.601  -1.839   0.007  0.00  0.00    +0.306 C 
ATOM     16  O   UNL     1      -0.666  -2.617  -0.006  0.00  0.00    -0.252 OA
ATOM     17  N   UNL     1      -2.865  -2.306   0.017  0.00  0.00    -0.239 N 
ATOM     18  C   UNL     1      -3.093  -3.634   0.012  0.00  0.00    +0.234 C 
ATOM     19  O   UNL     1      -2.161  -4.409  -0.001  0.00  0.00    -0.274 OA
ATOM     20  H   UNL     1      -2.118   0.109   0.023  0.00  0.00    +0.150 HD
ATOM     21  H   UNL     1      -3.611  -1.686   0.028  0.00  0.00    +0.159 HD
BRANCH  14  23
ATOM     22  C   UNL     1      -0.019   1.526   0.010  0.00  0.00    +0.024 C 
ATOM     23  C   UNL     1       0.002  -0.004   0.002  0.00  0.00    +0.102 C 
ENDBRANCH  14  23
ENDBRANCH  13  18
ENDBRANCH   1  13
TORSDOF 5
