REMARK  Name = ZINC14992541
REMARK  9 active torsions:
REMARK  status: ('A' for Active; 'I' for Inactive)
REMARK    1  A    between atoms: C_1  and  O_2
REMARK    2  A    between atoms: O_2  and  C_3
REMARK    3  A    between atoms: C_7  and  C_11
REMARK    4  A    between atoms: C_8  and  O_9
REMARK    5  A    between atoms: O_9  and  C_10
REMARK    6  A    between atoms: C_11  and  N_69
REMARK    7  A    between atoms: C_18  and  C_22
REMARK    8  A    between atoms: C_22  and  O_35
REMARK    9  A    between atoms: N_25  and  C_28
REMARK                            x       y       z     vdW  Elec       q    Type
REMARK                         _______ _______ _______ _____ _____    ______ ____
ROOT
ATOM      1  C   UNL     1     -10.369   4.296   0.133  0.00  0.00    -0.036 C 
ATOM      2  C   UNL     1      -9.474   5.304  -0.554  0.00  0.00    +0.210 C 
ATOM      3  O   UNL     1      -8.540   5.870   0.374  0.00  0.00    -0.494 OA
ATOM      4  C   UNL     1      -7.396   5.156   0.557  0.00  0.00    +0.122 A 
ATOM      5  C   UNL     1      -6.187   5.640   0.078  0.00  0.00    +0.046 A 
ATOM      6  C   UNL     1      -5.040   4.885   0.229  0.00  0.00    +0.010 A 
ATOM      7  C   UNL     1      -5.095   3.653   0.854  0.00  0.00    -0.016 A 
ATOM      8  C   UNL     1      -6.300   3.171   1.333  0.00  0.00    +0.011 A 
ATOM      9  C   UNL     1      -7.443   3.930   1.194  0.00  0.00    -0.022 A 
ATOM     10  C   UNL     1      -8.764   3.429   1.745  0.00  0.00    -0.039 C 
ATOM     11  N   UNL     1      -9.639   3.097   0.595  0.00  0.00    +0.387 N 
ATOM     12  H   UNL     1      -9.054   2.750  -0.174  0.00  0.00    -0.081 HD
ENDROOT
BRANCH   7  13
ATOM     13  C   UNL     1      -3.841   2.830   1.008  0.00  0.00    +0.094 C 
ATOM     14  C   UNL     1      -2.629   3.760   1.117  0.00  0.00    +0.058 C 
ATOM     15  C   UNL     1      -1.354   2.920   1.212  0.00  0.00    +0.108 C 
ATOM     16  N   UNL     1      -1.236   2.071   0.019  0.00  0.00    -0.327 N 
ATOM     17  C   UNL     1      -2.365   1.137  -0.081  0.00  0.00    +0.108 C 
ATOM     18  C   UNL     1      -3.670   1.924  -0.214  0.00  0.00    +0.058 C 
BRANCH  16  19
ATOM     19  C   UNL     1      -0.017   1.387   0.010  0.00  0.00    +0.065 A 
ATOM     20  C   UNL     1       1.178   2.094   0.002  0.00  0.00    +0.026 A 
ATOM     21  C   UNL     1       2.381   1.415  -0.013  0.00  0.00    +0.002 A 
ATOM     22  C   UNL     1       2.397   0.032  -0.021  0.00  0.00    +0.003 A 
ATOM     23  C   UNL     1       1.210  -0.677  -0.013  0.00  0.00    +0.040 A 
ATOM     24  C   UNL     1       0.002  -0.004   0.002  0.00  0.00    +0.144 A 
ATOM     25  F   UNL     1      -1.158  -0.697   0.009  0.00  0.00    -0.204 F 
ENDBRANCH  16  19
BRANCH  13  26
ATOM     26  O   UNL     1      -3.937   2.030   2.188  0.00  0.00    -0.384 OA
ATOM     27  H   UNL     1      -4.683   1.416   2.187  0.00  0.00    +0.211 HD
ENDBRANCH  13  26
ENDBRANCH   7  13
BRANCH  11  28
ATOM     28  C   UNL     1     -10.595   2.046   0.978  0.00  0.00    -0.039 C 
BRANCH  28  33
ATOM     29  C   UNL     1     -12.336   1.129  -2.256  0.00  0.00    +0.162 A 
ATOM     30  C   UNL     1     -13.584   1.700  -2.063  0.00  0.00    +0.049 A 
ATOM     31  C   UNL     1     -13.860   2.379  -0.891  0.00  0.00    +0.004 A 
ATOM     32  C   UNL     1     -12.895   2.485   0.093  0.00  0.00    +0.005 A 
ATOM     33  C   UNL     1     -11.646   1.923  -0.095  0.00  0.00    -0.019 A 
ATOM     34  C   UNL     1     -11.363   1.241  -1.268  0.00  0.00    +0.163 A 
BRANCH  29  36
ATOM     35  C   UNL     1     -13.110   0.387  -4.379  0.00  0.00    +0.277 C 
ATOM     36  O   UNL     1     -12.063   0.462  -3.409  0.00  0.00    -0.491 OA
ENDBRANCH  29  36
BRANCH  34  37
ATOM     37  O   UNL     1     -10.137   0.682  -1.452  0.00  0.00    -0.491 OA
ATOM     38  C   UNL     1      -9.966  -0.667  -1.011  0.00  0.00    +0.277 C 
ENDBRANCH  34  37
ENDBRANCH  28  33
ENDBRANCH  11  28
TORSDOF 7
