REMARK  Name = ZINC36603059
REMARK  18 active torsions:
REMARK  status: ('A' for Active; 'I' for Inactive)
REMARK    1  A    between atoms: C_1  and  C_2
REMARK    2  A    between atoms: C_5  and  C_7
REMARK    3  A    between atoms: C_7  and  N_8
REMARK    4  A    between atoms: N_8  and  C_9
REMARK    5  A    between atoms: C_9  and  C_11
REMARK    6  A    between atoms: C_9  and  C_20
REMARK    7  A    between atoms: C_11  and  C_13
REMARK    8  A    between atoms: C_11  and  C_14
REMARK    9  A    between atoms: N_22  and  C_23
REMARK   10  A    between atoms: C_23  and  C_24
REMARK   11  A    between atoms: C_23  and  C_25
REMARK   12  A    between atoms: C_23  and  C_26
REMARK   13  A    between atoms: C_26  and  C_27
REMARK   14  A    between atoms: C_27  and  C_28
REMARK   15  A    between atoms: C_27  and  C_29
REMARK   16  A    between atoms: C_27  and  C_30
REMARK   17  A    between atoms: C_31  and  C_33
REMARK   18  A    between atoms: C_36  and  N_39
REMARK                            x       y       z     vdW  Elec       q    Type
REMARK                         _______ _______ _______ _____ _____    ______ ____
ROOT
ATOM      1  C   UNL     1       2.463  -0.443  -2.721  0.00  0.00    +0.170 C 
ENDROOT
BRANCH   1   2
ATOM      2  C   UNL     1       3.566  -0.975  -1.842  0.00  0.00    +0.235 C 
ATOM      3  O   UNL     1       3.452  -2.062  -1.317  0.00  0.00    -0.274 OA
ATOM      4  N   UNL     1       4.678  -0.242  -1.639  0.00  0.00    -0.309 N 
ATOM      5  H   UNL     1       4.754   0.643  -2.028  0.00  0.00    +0.149 HD
BRANCH   4   6
ATOM      6  C   UNL     1       5.774  -0.783  -0.831  0.00  0.00    +0.030 C 
ATOM      7  C   UNL     1       5.223  -1.288   0.504  0.00  0.00    +0.031 C 
ATOM      8  C   UNL     1       6.437  -1.941  -1.580  0.00  0.00    +0.031 C 
BRANCH   6   9
ATOM      9  C   UNL     1       6.808   0.316  -0.573  0.00  0.00    +0.031 C 
BRANCH   9  10
ATOM     10  C   UNL     1       7.468   0.715  -1.894  0.00  0.00    -0.036 C 
ATOM     11  C   UNL     1       6.415   0.739  -3.004  0.00  0.00    +0.010 C 
ATOM     12  C   UNL     1       8.093   2.104  -1.753  0.00  0.00    +0.010 C 
ATOM     13  C   UNL     1       8.558  -0.300  -2.247  0.00  0.00    +0.010 C 
ENDBRANCH   9  10
ENDBRANCH   6   9
ENDBRANCH   4   6
ENDBRANCH   1   2
BRANCH   1  14
ATOM     14  N   UNL     1       1.420  -1.462  -2.866  0.00  0.00    -0.278 N 
ATOM     15  C   UNL     1       1.519  -2.395  -3.832  0.00  0.00    +0.248 C 
ATOM     16  O   UNL     1       0.785  -3.364  -3.819  0.00  0.00    -0.270 OA
BRANCH  15  17
ATOM     17  C   UNL     1       2.521  -2.241  -4.909  0.00  0.00    +0.037 A 
ATOM     18  C   UNL     1       3.741  -1.615  -4.646  0.00  0.00    +0.015 A 
ATOM     19  C   UNL     1       4.672  -1.475  -5.655  0.00  0.00    +0.033 A 
ATOM     20  C   UNL     1       4.398  -1.954  -6.924  0.00  0.00    +0.126 A 
ATOM     21  C   UNL     1       3.191  -2.575  -7.191  0.00  0.00    +0.033 A 
ATOM     22  C   UNL     1       2.254  -2.727  -6.189  0.00  0.00    +0.015 A 
BRANCH  20  23
ATOM     23  N   UNL     1       5.402  -1.800  -8.001  0.00  0.00    +0.056 N 
ATOM     24  O   UNL     1       6.457  -1.257  -7.771  0.00  0.00    -0.126 OA
ATOM     25  O   UNL     1       5.165  -2.217  -9.111  0.00  0.00    -0.126 OA
ENDBRANCH  20  23
ENDBRANCH  15  17
BRANCH  14  26
ATOM     26  C   UNL     1       0.269  -1.465  -1.960  0.00  0.00    +0.183 C 
BRANCH  26  31
ATOM     27  C   UNL     1      -0.322  -6.042   0.076  0.00  0.00    +0.086 C 
ATOM     28  C   UNL     1       0.126  -4.616  -0.121  0.00  0.00    +0.102 A 
ATOM     29  C   UNL     1       0.911  -3.915   0.717  0.00  0.00    +0.045 A 
ATOM     30  C   UNL     1       1.076  -2.632   0.147  0.00  0.00    +0.046 A 
ATOM     31  C   UNL     1       0.383  -2.626  -1.006  0.00  0.00    +0.122 A 
ATOM     32  O   UNL     1      -0.186  -3.832  -1.166  0.00  0.00    -0.463 OA
ENDBRANCH  26  31
ENDBRANCH  14  26
ENDBRANCH   1  14
BRANCH   1  33
ATOM     33  C   UNL     1       1.865   0.813  -2.084  0.00  0.00    +0.045 C 
ATOM     34  C   UNL     1       0.766   1.371  -2.992  0.00  0.00    +0.015 C 
BRANCH  33  35
ATOM     35  C   UNL     1       2.944   1.849  -1.907  0.00  0.00    -0.042 A 
ATOM     36  C   UNL     1       3.471   2.494  -3.011  0.00  0.00    +0.004 A 
ATOM     37  C   UNL     1       4.461   3.445  -2.848  0.00  0.00    +0.000 A 
ATOM     38  C   UNL     1       4.925   3.751  -1.582  0.00  0.00    +0.000 A 
ATOM     39  C   UNL     1       4.397   3.106  -0.479  0.00  0.00    +0.000 A 
ATOM     40  C   UNL     1       3.404   2.159  -0.641  0.00  0.00    +0.004 A 
ENDBRANCH  33  35
ENDBRANCH   1  33
TORSDOF 11
