REMARK  Name = ZINC14160292
REMARK  7 active torsions:
REMARK  status: ('A' for Active; 'I' for Inactive)
REMARK    1  A    between atoms: C_1  and  C_2
REMARK    2  A    between atoms: C_7  and  N_8
REMARK    3  A    between atoms: N_8  and  C_9
REMARK    4  A    between atoms: C_9  and  N_11
REMARK    5  A    between atoms: C_16  and  C_21
REMARK    6  A    between atoms: C_18  and  C_20
REMARK    7  A    between atoms: C_26  and  C_29
REMARK                            x       y       z     vdW  Elec       q    Type
REMARK                         _______ _______ _______ _____ _____    ______ ____
ROOT
ATOM      1  N   UNL     1       0.421   4.101   6.597  0.00  0.00    -0.163 NA
ATOM      2  C   UNL     1      -0.497   3.727   5.723  0.00  0.00    +0.180 C 
ATOM      3  N   UNL     1      -0.144   2.958   4.646  0.00  0.00    -0.258 N 
ATOM      4  C   UNL     1      -1.096   2.169   4.014  0.00  0.00    +0.222 A 
ATOM      5  N   UNL     1      -2.309   2.079   4.536  0.00  0.00    -0.219 NA
ATOM      6  C   UNL     1      -3.240   1.336   3.960  0.00  0.00    +0.044 A 
ATOM      7  C   UNL     1      -2.933   0.653   2.793  0.00  0.00    +0.046 A 
ATOM      8  C   UNL     1      -1.651   0.765   2.278  0.00  0.00    +0.044 A 
ATOM      9  N   UNL     1      -0.768   1.526   2.905  0.00  0.00    -0.219 NA
ATOM     10  C   UNL     1      -1.270   0.036   1.015  0.00  0.00    +0.066 C 
ATOM     11  C   UNL     1      -4.618   1.238   4.561  0.00  0.00    +0.066 C 
ATOM     12  N   UNL     1      -1.797   4.107   5.893  0.00  0.00    -0.305 N 
ATOM     13  C   UNL     1      -2.652   4.389   4.732  0.00  0.00    +0.107 C 
ATOM     14  C   UNL     1      -3.264   5.784   4.899  0.00  0.00    +0.019 C 
ATOM     15  C   UNL     1      -3.986   5.862   6.246  0.00  0.00    +0.006 C 
ATOM     16  C   UNL     1      -2.982   5.637   7.379  0.00  0.00    +0.003 C 
ATOM     17  C   UNL     1      -2.369   4.235   7.240  0.00  0.00    +0.110 C 
ATOM     18  C   UNL     1      -3.699   5.748   8.726  0.00  0.00    +0.009 C 
ATOM     19  H   UNL     1       0.894   2.965   4.282  0.00  0.00    +0.157 HD
ENDROOT
BRANCH   1  20
ATOM     20  C   UNL     1       1.715   3.833   6.367  0.00  0.00    +0.161 C 
ATOM     21  S   UNL     1       2.516   4.560   5.040  0.00  0.00    -0.016 S 
BRANCH  20  22
ATOM     22  N   UNL     1       2.384   2.993   7.180  0.00  0.00    -0.295 N 
ATOM     23  H   UNL     1       1.845   2.437   7.962  0.00  0.00    +0.154 HD
BRANCH  22  30
ATOM     24  C   UNL     1       4.003   3.039   9.520  0.00  0.00    +0.045 C 
ATOM     25  C   UNL     1       4.592   2.842   8.146  0.00  0.00    -0.029 A 
ATOM     26  C   UNL     1       5.955   2.673   7.996  0.00  0.00    +0.005 A 
ATOM     27  C   UNL     1       6.496   2.498   6.736  0.00  0.00    +0.000 A 
ATOM     28  C   UNL     1       5.676   2.488   5.622  0.00  0.00    +0.002 A 
ATOM     29  C   UNL     1       4.312   2.651   5.766  0.00  0.00    +0.023 A 
ATOM     30  C   UNL     1       3.765   2.827   7.031  0.00  0.00    +0.036 A 
ENDBRANCH  22  30
ENDBRANCH  20  22
ENDBRANCH   1  20
TORSDOF 3
