REMARK  Name = ZINC29680404
REMARK  8 active torsions:
REMARK  status: ('A' for Active; 'I' for Inactive)
REMARK    1  A    between atoms: C_1  and  C_2
REMARK    2  A    between atoms: C_5  and  N_11
REMARK    3  A    between atoms: C_7  and  N_8
REMARK    4  A    between atoms: C_12  and  C_14
REMARK    5  A    between atoms: C_14  and  C_16
REMARK    6  A    between atoms: C_14  and  N_17
REMARK    7  A    between atoms: N_17  and  C_18
REMARK    8  A    between atoms: C_22  and  N_24
REMARK                            x       y       z     vdW  Elec       q    Type
REMARK                         _______ _______ _______ _____ _____    ______ ____
ROOT
ATOM      1  C   UNL     1       2.647   4.127   0.097  0.00  0.00    +0.154 C 
ATOM      2  C   UNL     1       2.532   4.277  -1.421  0.00  0.00    +0.038 C 
ENDROOT
BRANCH   1   4
ATOM      3  N   UNL     1       3.261   6.495   0.463  0.00  0.00    -0.284 N 
ATOM      4  C   UNL     1       2.437   5.468   0.752  0.00  0.00    +0.237 C 
ATOM      5  O   UNL     1       1.528   5.623   1.539  0.00  0.00    -0.273 OA
ATOM      6  H   UNL     1       4.045   6.374  -0.299  0.00  0.00    +0.155 HD
BRANCH   3  11
ATOM      7  C   UNL     1       2.679  11.444   3.174  0.00  0.00    +0.046 C 
ATOM      8  C   UNL     1       2.834  10.130   2.454  0.00  0.00    -0.020 A 
ATOM      9  C   UNL     1       1.717   9.368   2.161  0.00  0.00    +0.007 A 
ATOM     10  C   UNL     1       1.855   8.165   1.497  0.00  0.00    +0.024 A 
ATOM     11  C   UNL     1       3.117   7.716   1.131  0.00  0.00    +0.036 A 
ATOM     12  C   UNL     1       4.236   8.483   1.426  0.00  0.00    +0.056 A 
ATOM     13  C   UNL     1       4.091   9.688   2.086  0.00  0.00    +0.131 A 
BRANCH  13  14
ATOM     14  N   UNL     1       5.284  10.506   2.401  0.00  0.00    +0.057 N 
ATOM     15  O   UNL     1       6.399  10.061   2.198  0.00  0.00    -0.126 OA
ATOM     16  O   UNL     1       5.150  11.625   2.864  0.00  0.00    -0.126 OA
ENDBRANCH  13  14
ENDBRANCH   3  11
ENDBRANCH   1   4
BRANCH   1  17
ATOM     17  N   UNL     1       1.630   3.186   0.573  0.00  0.00    -0.333 N 
ATOM     18  H   UNL     1       0.666   3.561   0.947  0.00  0.00    +0.147 HD
BRANCH  17  19
ATOM     19  C   UNL     1       1.885   1.813   0.552  0.00  0.00    +0.029 A 
ATOM     20  C   UNL     1       3.102   1.338   0.080  0.00  0.00    +0.023 A 
ATOM     21  C   UNL     1       3.354  -0.020   0.059  0.00  0.00    +0.004 A 
ATOM     22  C   UNL     1       2.397  -0.910   0.507  0.00  0.00    +0.023 A 
ATOM     23  C   UNL     1       1.178  -0.442   0.980  0.00  0.00    +0.038 A 
ATOM     24  C   UNL     1       0.922   0.921   1.003  0.00  0.00    +0.046 A 
BRANCH  23  25
ATOM     25  N   UNL     1       0.209  -1.345   1.434  0.00  0.00    -0.271 N 
ATOM     26  C   UNL     1      -1.056  -0.953   2.066  0.00  0.00    +0.114 C 
ATOM     27  C   UNL     1      -1.573  -2.225   2.774  0.00  0.00    +0.029 C 
ATOM     28  C   UNL     1      -0.905  -3.343   1.942  0.00  0.00    +0.098 C 
ATOM     29  C   UNL     1       0.316  -2.681   1.340  0.00  0.00    +0.220 C 
ATOM     30  O   UNL     1       1.254  -3.271   0.848  0.00  0.00    -0.275 OA
ENDBRANCH  23  25
ENDBRANCH  17  19
ENDBRANCH   1  17
TORSDOF 6
