REMARK  Name = ZINC35842741
REMARK  19 active torsions:
REMARK  status: ('A' for Active; 'I' for Inactive)
REMARK    1  A    between atoms: C_1  and  C_2
REMARK    2  A    between atoms: C_2  and  C_3
REMARK    3  A    between atoms: C_2  and  C_4
REMARK    4  A    between atoms: C_2  and  C_5
REMARK    5  A    between atoms: C_8  and  C_11
REMARK    6  A    between atoms: C_11  and  N_12
REMARK    7  A    between atoms: N_12  and  C_13
REMARK    8  A    between atoms: C_13  and  C_14
REMARK    9  A    between atoms: C_14  and  C_15
REMARK   10  A    between atoms: C_25  and  C_27
REMARK   11  A    between atoms: C_27  and  N_28
REMARK   12  A    between atoms: N_28  and  C_29
REMARK   13  A    between atoms: N_28  and  C_34
REMARK   14  A    between atoms: C_29  and  C_30
REMARK   15  A    between atoms: C_30  and  C_31
REMARK   16  A    between atoms: C_31  and  O_32
REMARK   17  A    between atoms: O_32  and  C_33
REMARK   18  A    between atoms: C_34  and  C_35
REMARK   19  A    between atoms: C_40  and  O_41
REMARK                            x       y       z     vdW  Elec       q    Type
REMARK                         _______ _______ _______ _____ _____    ______ ____
ROOT
ATOM      1  N   UNL     1       2.250  -1.663  -5.836  0.00  0.00    -0.298 N 
ATOM      2  C   UNL     1       1.196  -1.524  -6.665  0.00  0.00    +0.199 C 
ATOM      3  O   UNL     1       0.190  -2.176  -6.480  0.00  0.00    -0.278 OA
ENDROOT
BRANCH   1   4
ATOM      4  C   UNL     1       2.181  -2.600  -4.713  0.00  0.00    +0.142 C 
BRANCH   4   8
ATOM      5  C   UNL     1       0.649  -0.589  -1.269  0.00  0.00    -0.042 A 
ATOM      6  C   UNL     1      -0.217  -1.214  -2.146  0.00  0.00    +0.004 A 
ATOM      7  C   UNL     1       0.279  -1.865  -3.261  0.00  0.00    +0.005 A 
ATOM      8  C   UNL     1       1.640  -1.890  -3.498  0.00  0.00    -0.030 A 
ATOM      9  C   UNL     1       2.506  -1.264  -2.621  0.00  0.00    +0.005 A 
ATOM     10  C   UNL     1       2.011  -0.609  -1.509  0.00  0.00    +0.004 A 
BRANCH   5  12
ATOM     11  C   UNL     1       0.496   1.600  -0.113  0.00  0.00    +0.015 C 
ATOM     12  C   UNL     1       0.109   0.121  -0.054  0.00  0.00    -0.013 C 
ATOM     13  C   UNL     1       0.698  -0.511   1.209  0.00  0.00    +0.015 C 
ATOM     14  C   UNL     1      -1.415  -0.007  -0.025  0.00  0.00    +0.015 C 
ENDBRANCH   5  12
ENDBRANCH   4   8
ENDBRANCH   1   4
BRANCH   1  15
ATOM     15  C   UNL     1       3.465  -0.875  -6.059  0.00  0.00    +0.113 C 
BRANCH  15  16
ATOM     16  C   UNL     1       4.412  -1.648  -6.979  0.00  0.00    +0.056 C 
BRANCH  16  17
ATOM     17  C   UNL     1       5.662  -0.838  -7.208  0.00  0.00    -0.021 A 
ATOM     18  C   UNL     1       5.900  -0.012  -8.239  0.00  0.00    +0.087 A 
ATOM     19  N   UNL     1       7.141   0.549  -8.110  0.00  0.00    -0.360 N 
ATOM     20  H   UNL     1       7.535   1.180  -8.733  0.00  0.00    +0.165 HD
ATOM     21  C   UNL     1       7.748   0.087  -6.964  0.00  0.00    +0.047 A 
ATOM     22  C   UNL     1       6.845  -0.798  -6.345  0.00  0.00    +0.003 A 
ATOM     23  C   UNL     1       7.193  -1.423  -5.146  0.00  0.00    +0.010 A 
ATOM     24  C   UNL     1       8.409  -1.168  -4.577  0.00  0.00    +0.001 A 
ATOM     25  C   UNL     1       9.301  -0.293  -5.181  0.00  0.00    +0.002 A 
ATOM     26  C   UNL     1       8.982   0.327  -6.369  0.00  0.00    +0.026 A 
ENDBRANCH  16  17
ENDBRANCH  15  16
ENDBRANCH   1  15
BRANCH   2  27
ATOM     27  C   UNL     1       1.267  -0.560  -7.820  0.00  0.00    +0.019 C 
BRANCH  27  28
ATOM     28  N   UNL     1       0.002  -0.595  -8.566  0.00  0.00    +0.388 N 
ATOM     29  H   UNL     1      -0.198  -1.543  -8.845  0.00  0.00    -0.081 HD
BRANCH  28  30
ATOM     30  C   UNL     1      -1.084  -0.097  -7.710  0.00  0.00    -0.075 C 
BRANCH  30  31
ATOM     31  C   UNL     1      -2.422  -0.266  -8.434  0.00  0.00    +0.009 C 
BRANCH  31  32
ATOM     32  C   UNL     1      -3.563   0.125  -7.493  0.00  0.00    +0.157 C 
BRANCH  32  33
ATOM     33  O   UNL     1      -4.812  -0.033  -8.169  0.00  0.00    -0.383 OA
ATOM     34  C   UNL     1      -5.950   0.307  -7.374  0.00  0.00    +0.193 C 
ENDBRANCH  32  33
ENDBRANCH  31  32
ENDBRANCH  30  31
ENDBRANCH  28  30
BRANCH  28  35
ATOM     35  C   UNL     1       0.113   0.254  -9.759  0.00  0.00    -0.039 C 
BRANCH  35  36
ATOM     36  C   UNL     1       1.143  -0.326 -10.694  0.00  0.00    -0.022 A 
ATOM     37  C   UNL     1       2.379   0.279 -10.822  0.00  0.00    +0.005 A 
ATOM     38  C   UNL     1       3.324  -0.252 -11.679  0.00  0.00    +0.000 A 
ATOM     39  C   UNL     1       3.037  -1.390 -12.410  0.00  0.00    +0.004 A 
ATOM     40  C   UNL     1       1.803  -1.999 -12.285  0.00  0.00    +0.045 A 
ATOM     41  C   UNL     1       0.854  -1.471 -11.421  0.00  0.00    +0.118 A 
BRANCH  41  42
ATOM     42  O   UNL     1      -0.358  -2.071 -11.293  0.00  0.00    -0.507 OA
ATOM     43  H   UNL     1      -1.025  -1.747 -11.913  0.00  0.00    +0.292 HD
ENDBRANCH  41  42
ENDBRANCH  35  36
ENDBRANCH  28  35
ENDBRANCH  27  28
ENDBRANCH   2  27
TORSDOF 15
