REMARK  Name = ZINC06195275
REMARK  11 active torsions:
REMARK  status: ('A' for Active; 'I' for Inactive)
REMARK    1  A    between atoms: C_1  and  C_2
REMARK    2  A    between atoms: C_5  and  N_9
REMARK    3  A    between atoms: C_6  and  C_8
REMARK    4  A    between atoms: N_9  and  C_10
REMARK    5  A    between atoms: C_10  and  C_12
REMARK    6  A    between atoms: C_10  and  C_18
REMARK    7  A    between atoms: N_20  and  C_21
REMARK    8  A    between atoms: C_21  and  C_22
REMARK    9  A    between atoms: C_28  and  C_30
REMARK   10  A    between atoms: C_31  and  N_38
REMARK   11  A    between atoms: C_32  and  C_35
REMARK                            x       y       z     vdW  Elec       q    Type
REMARK                         _______ _______ _______ _____ _____    ______ ____
ROOT
ATOM      1  N   UNL     1      -0.241  -3.996   0.549  0.00  0.00    -0.251 N 
ATOM      2  C   UNL     1      -1.269  -4.864   0.631  0.00  0.00    +0.262 C 
ATOM      3  O   UNL     1      -1.151  -5.990   0.183  0.00  0.00    -0.269 OA
ENDROOT
BRANCH   1   8
ATOM      4  C   UNL     1      -0.789   1.250   2.635  0.00  0.00    +0.044 C 
ATOM      5  C   UNL     1      -0.643  -0.143   2.081  0.00  0.00    -0.050 A 
ATOM      6  C   UNL     1      -0.977  -0.401   0.763  0.00  0.00    +0.005 A 
ATOM      7  C   UNL     1      -0.845  -1.677   0.253  0.00  0.00    +0.024 A 
ATOM      8  C   UNL     1      -0.375  -2.703   1.063  0.00  0.00    +0.041 A 
ATOM      9  C   UNL     1      -0.041  -2.441   2.385  0.00  0.00    -0.029 A 
ATOM     10  C   UNL     1      -0.171  -1.161   2.889  0.00  0.00    +0.008 A 
ATOM     11  C   UNL     1       0.468  -3.551   3.269  0.00  0.00    +0.045 C 
ENDBRANCH   1   8
BRANCH   2  12
ATOM     12  C   UNL     1      -2.526  -4.452   1.257  0.00  0.00    +0.116 A 
ATOM     13  C   UNL     1      -3.699  -5.184   1.449  0.00  0.00    +0.076 A 
ATOM     14  C   UNL     1      -4.705  -4.462   2.089  0.00  0.00    +0.155 A 
ATOM     15  N   UNL     1      -4.481  -3.214   2.443  0.00  0.00    -0.203 NA
ATOM     16  S   UNL     1      -2.965  -2.887   1.985  0.00  0.00    +0.019 S 
BRANCH  14  17
ATOM     17  C   UNL     1      -6.009  -5.091   2.366  0.00  0.00    +0.262 C 
ATOM     18  O   UNL     1      -6.174  -6.274   2.138  0.00  0.00    -0.269 OA
ATOM     19  N   UNL     1      -7.018  -4.355   2.873  0.00  0.00    -0.324 N 
ATOM     20  H   UNL     1      -6.886  -3.411   3.054  0.00  0.00    +0.145 HD
ATOM     21  H   UNL     1      -7.876  -4.769   3.055  0.00  0.00    +0.145 HD
ENDBRANCH  14  17
BRANCH  13  22
ATOM     22  N   UNL     1      -3.850  -6.503   1.041  0.00  0.00    -0.355 N 
ATOM     23  H   UNL     1      -3.087  -6.995   0.700  0.00  0.00    +0.142 HD
ATOM     24  H   UNL     1      -4.718  -6.931   1.098  0.00  0.00    +0.142 HD
ENDBRANCH  13  22
ENDBRANCH   2  12
BRANCH   1  25
ATOM     25  C   UNL     1       1.018  -4.408  -0.077  0.00  0.00    +0.198 C 
BRANCH  25  26
ATOM     26  C   UNL     1       2.050  -3.326   0.109  0.00  0.00    -0.015 A 
ATOM     27  C   UNL     1       1.900  -2.089  -0.500  0.00  0.00    +0.025 A 
ATOM     28  C   UNL     1       2.866  -1.121  -0.306  0.00  0.00    +0.111 A 
ATOM     29  N   UNL     1       3.921  -1.363   0.447  0.00  0.00    -0.263 NA
ATOM     30  C   UNL     1       4.097  -2.526   1.042  0.00  0.00    +0.111 A 
ATOM     31  C   UNL     1       3.169  -3.541   0.899  0.00  0.00    +0.025 A 
ENDBRANCH  25  26
BRANCH  25  32
ATOM     32  C   UNL     1       0.794  -4.640  -1.549  0.00  0.00    +0.239 C 
ATOM     33  O   UNL     1      -0.309  -4.477  -2.028  0.00  0.00    -0.273 OA
ATOM     34  N   UNL     1       1.818  -5.028  -2.334  0.00  0.00    -0.309 N 
ATOM     35  H   UNL     1       2.700  -5.158  -1.952  0.00  0.00    +0.149 HD
BRANCH  34  36
ATOM     36  C   UNL     1       1.600  -5.254  -3.765  0.00  0.00    +0.139 C 
BRANCH  36  37
ATOM     37  C   UNL     1       2.895  -5.678  -4.410  0.00  0.00    -0.030 A 
ATOM     38  C   UNL     1       3.756  -4.725  -4.921  0.00  0.00    +0.005 A 
ATOM     39  C   UNL     1       4.944  -5.114  -5.513  0.00  0.00    +0.000 A 
ATOM     40  C   UNL     1       5.270  -6.455  -5.592  0.00  0.00    +0.000 A 
ATOM     41  C   UNL     1       4.409  -7.407  -5.080  0.00  0.00    +0.000 A 
ATOM     42  C   UNL     1       3.224  -7.018  -4.484  0.00  0.00    +0.005 A 
ENDBRANCH  36  37
ENDBRANCH  34  36
ENDBRANCH  25  32
ENDBRANCH   1  25
TORSDOF 9
