REMARK  Name = ZINC15280264
REMARK  13 active torsions:
REMARK  status: ('A' for Active; 'I' for Inactive)
REMARK    1  A    between atoms: C_1  and  C_2
REMARK    2  A    between atoms: C_2  and  N_3
REMARK    3  A    between atoms: C_7  and  S_26
REMARK    4  A    between atoms: C_11  and  S_12
REMARK    5  A    between atoms: S_12  and  C_13
REMARK    6  A    between atoms: C_13  and  C_14
REMARK    7  A    between atoms: N_16  and  C_17
REMARK    8  A    between atoms: N_16  and  C_18
REMARK    9  A    between atoms: S_26  and  N_29
REMARK   10  A    between atoms: N_29  and  C_30
REMARK   11  A    between atoms: N_29  and  C_32
REMARK   12  A    between atoms: C_30  and  C_31
REMARK   13  A    between atoms: C_32  and  C_33
REMARK                            x       y       z     vdW  Elec       q    Type
REMARK                         _______ _______ _______ _____ _____    ______ ____
ROOT
ATOM      1  N   UNL     1      -1.372  -0.511   0.012  0.00  0.00    -0.319 N 
ATOM      2  C   UNL     1      -2.135  -0.796   1.134  0.00  0.00    +0.070 A 
ATOM      3  C   UNL     1      -1.904  -0.716   2.498  0.00  0.00    +0.030 A 
ATOM      4  C   UNL     1      -2.895  -1.085   3.385  0.00  0.00    +0.030 A 
ATOM      5  C   UNL     1      -4.121  -1.536   2.921  0.00  0.00    +0.108 A 
ATOM      6  C   UNL     1      -4.367  -1.623   1.569  0.00  0.00    +0.058 A 
ATOM      7  C   UNL     1      -3.375  -1.252   0.657  0.00  0.00    +0.092 A 
ATOM      8  N   UNL     1      -3.317  -1.226  -0.700  0.00  0.00    -0.222 NA
ATOM      9  C   UNL     1      -2.143  -0.785  -1.082  0.00  0.00    +0.170 A 
ENDROOT
BRANCH   5  10
ATOM     10  S   UNL     1      -5.373  -2.003   4.069  0.00  0.00    +0.061 S 
ATOM     11  O   UNL     1      -6.234  -2.905   3.387  0.00  0.00    -0.153 OA
ATOM     12  O   UNL     1      -4.708  -2.349   5.276  0.00  0.00    -0.153 OA
BRANCH  10  13
ATOM     13  N   UNL     1      -6.269  -0.649   4.394  0.00  0.00    -0.177 NA
BRANCH  13  14
ATOM     14  C   UNL     1      -7.443  -0.333   3.575  0.00  0.00    +0.106 C 
ATOM     15  C   UNL     1      -8.700  -0.882   4.252  0.00  0.00    +0.022 C 
ENDBRANCH  13  14
BRANCH  13  16
ATOM     16  C   UNL     1      -5.889   0.234   5.499  0.00  0.00    +0.106 C 
ATOM     17  C   UNL     1      -5.026   1.378   4.965  0.00  0.00    +0.022 C 
ENDBRANCH  13  16
ENDBRANCH  10  13
ENDBRANCH   5  10
BRANCH   1  19
ATOM     18  C   UNL     1      -0.019   1.526   0.010  0.00  0.00    +0.027 C 
ATOM     19  C   UNL     1       0.002  -0.004   0.002  0.00  0.00    +0.121 C 
ENDBRANCH   1  19
BRANCH   9  20
ATOM     20  S   UNL     1      -1.634  -0.582  -2.756  0.00  0.00    -0.078 S 
BRANCH  20  21
ATOM     21  C   UNL     1      -3.078  -1.105  -3.721  0.00  0.00    +0.173 C 
BRANCH  21  22
ATOM     22  C   UNL     1      -2.773  -0.979  -5.191  0.00  0.00    +0.226 C 
ATOM     23  O   UNL     1      -1.688  -0.575  -5.553  0.00  0.00    -0.275 OA
ATOM     24  N   UNL     1      -3.705  -1.315  -6.105  0.00  0.00    -0.299 N 
ATOM     25  C   UNL     1      -5.016  -1.802  -5.668  0.00  0.00    +0.132 C 
BRANCH  24  26
ATOM     26  C   UNL     1      -3.409  -1.192  -7.534  0.00  0.00    +0.098 C 
ATOM     27  C   UNL     1      -4.421  -0.242  -8.195  0.00  0.00    +0.046 C 
ATOM     28  C   UNL     1      -4.321  -0.353  -9.735  0.00  0.00    +0.168 C 
ATOM     29  S   UNL     1      -3.730  -2.077  -9.978  0.00  0.00    -0.029 S 
ATOM     30  O   UNL     1      -2.451  -2.045 -10.596  0.00  0.00    -0.174 OA
ATOM     31  O   UNL     1      -4.771  -2.844 -10.567  0.00  0.00    -0.174 OA
ATOM     32  C   UNL     1      -3.533  -2.583  -8.218  0.00  0.00    +0.188 C 
ENDBRANCH  24  26
ENDBRANCH  21  22
ENDBRANCH  20  21
ENDBRANCH   9  20
TORSDOF 9
