REMARK  Name = ZINC15218452
REMARK  3 active torsions:
REMARK  status: ('A' for Active; 'I' for Inactive)
REMARK    1  A    between atoms: C_2  and  O_28
REMARK    2  A    between atoms: C_5  and  N_8
REMARK    3  A    between atoms: C_18  and  C_21
REMARK                            x       y       z     vdW  Elec       q    Type
REMARK                         _______ _______ _______ _____ _____    ______ ____
ROOT
ATOM      1  C   UNL     1       2.547   2.161  -4.030  0.00  0.00    +0.069 A 
ATOM      2  C   UNL     1       2.132   3.320  -3.399  0.00  0.00    +0.139 A 
ATOM      3  C   UNL     1       1.692   3.281  -2.072  0.00  0.00    +0.075 A 
ATOM      4  C   UNL     1       1.674   2.082  -1.388  0.00  0.00    +0.016 A 
ATOM      5  C   UNL     1       2.093   0.923  -2.031  0.00  0.00    +0.150 A 
ATOM      6  C   UNL     1       2.526   0.960  -3.341  0.00  0.00    +0.075 A 
ATOM      7 CL   UNL     1       3.044  -0.499  -4.126  0.00  0.00    -0.081 Cl
ATOM      8  C   UNL     1       1.217   1.960   0.041  0.00  0.00    +0.051 C 
ATOM      9  C   UNL     1      -0.024   1.082   0.065  0.00  0.00    -0.023 C 
ATOM     10  C   UNL     1      -1.107   1.816   0.064  0.00  0.00    -0.030 C 
ATOM     11  C   UNL     1      -0.750   3.291   0.048  0.00  0.00    +0.033 C 
ATOM     12  C   UNL     1       0.703   3.310   0.583  0.00  0.00    +0.024 C 
ATOM     13  C   UNL     1       1.479   4.463  -0.032  0.00  0.00    +0.078 C 
ATOM     14  N   UNL     1       1.282   4.481  -1.482  0.00  0.00    -0.337 N 
ATOM     15  H   UNL     1       0.856   5.371  -1.969  0.00  0.00    +0.146 HD
ENDROOT
BRANCH  13  16
ATOM     16  C   UNL     1       2.968   4.295   0.276  0.00  0.00    +0.014 C 
ATOM     17  C   UNL     1       3.198   4.410   1.789  0.00  0.00    +0.010 C 
ATOM     18  C   UNL     1       4.659   4.067   2.084  0.00  0.00    +0.027 C 
ATOM     19  C   UNL     1       5.569   4.833   1.169  0.00  0.00    -0.031 C 
ATOM     20  C   UNL     1       5.181   5.407   0.075  0.00  0.00    -0.031 C 
ATOM     21  C   UNL     1       3.766   5.396  -0.424  0.00  0.00    +0.032 C 
ENDBRANCH  13  16
BRANCH   5  22
ATOM     22  N   UNL     1       2.075  -0.365  -1.302  0.00  0.00    +0.058 N 
ATOM     23  O   UNL     1       3.054  -0.723  -0.672  0.00  0.00    -0.126 OA
ATOM     24  O   UNL     1       1.081  -1.069  -1.333  0.00  0.00    -0.126 OA
ENDBRANCH   5  22
BRANCH   2  25
ATOM     25  O   UNL     1       2.151   4.501  -4.072  0.00  0.00    -0.505 OA
ATOM     26  H   UNL     1       1.822   5.424  -3.573  0.00  0.00    +0.292 HD
ENDBRANCH   2  25
TORSDOF 3
