REMARK  Name = ZINC08680816
REMARK  12 active torsions:
REMARK  status: ('A' for Active; 'I' for Inactive)
REMARK    1  A    between atoms: C_1  and  C_2
REMARK    2  A    between atoms: C_2  and  C_3
REMARK    3  A    between atoms: C_3  and  C_4
REMARK    4  A    between atoms: C_4  and  C_35
REMARK    5  A    between atoms: C_9  and  C_11
REMARK    6  A    between atoms: C_14  and  N_17
REMARK    7  A    between atoms: N_17  and  C_18
REMARK    8  A    between atoms: N_17  and  C_19
REMARK    9  A    between atoms: N_22  and  C_25
REMARK   10  A    between atoms: C_35  and  O_37
REMARK   11  A    between atoms: O_37  and  C_38
REMARK   12  A    between atoms: C_38  and  C_39
REMARK                            x       y       z     vdW  Elec       q    Type
REMARK                         _______ _______ _______ _____ _____    ______ ____
ROOT
ATOM      1  C   UNL     1       1.387   1.574  -0.015  0.00  0.00    +0.044 C 
ATOM      2  C   UNL     1       1.221   2.867  -0.808  0.00  0.00    +0.086 C 
ATOM      3  C   UNL     1       0.302   2.279  -1.946  0.00  0.00    +0.077 C 
ATOM      4  C   UNL     1      -0.723   1.536  -1.199  0.00  0.00    -0.027 C 
ATOM      5  C   UNL     1       0.404   3.302  -2.961  0.00  0.00    +0.229 C 
ATOM      6  O   UNL     1      -0.455   3.659  -3.739  0.00  0.00    -0.275 OA
ATOM      7  N   UNL     1       1.685   3.782  -2.852  0.00  0.00    -0.210 N 
ATOM      8  C   UNL     1       2.306   3.374  -1.704  0.00  0.00    +0.229 C 
ATOM      9  O   UNL     1       3.493   3.414  -1.462  0.00  0.00    -0.275 OA
ATOM     10  N   UNL     1       0.002   1.023   0.001  0.00  0.00    +0.395 N 
ATOM     11  H   UNL     1      -0.482   1.326   0.854  0.00  0.00    -0.083 HD
ATOM     12  H   UNL     1       0.036  -0.003  -0.028  0.00  0.00    -0.083 HD
ENDROOT
BRANCH   7  13
ATOM     13  C   UNL     1       2.293   4.603  -3.814  0.00  0.00    +0.048 A 
ATOM     14  C   UNL     1       3.593   5.051  -3.624  0.00  0.00    +0.028 A 
ATOM     15  C   UNL     1       4.192   5.856  -4.572  0.00  0.00    +0.051 A 
ATOM     16  C   UNL     1       3.495   6.229  -5.712  0.00  0.00    +0.162 A 
ATOM     17  C   UNL     1       2.192   5.784  -5.904  0.00  0.00    +0.164 A 
ATOM     18  C   UNL     1       1.592   4.973  -4.953  0.00  0.00    +0.073 A 
ATOM     19  O   UNL     1       1.494   6.132  -7.019  0.00  0.00    -0.485 OA
ATOM     20  C   UNL     1       1.992   7.245  -7.769  0.00  0.00    +0.270 C 
ATOM     21  C   UNL     1       3.508   7.073  -7.935  0.00  0.00    +0.270 C 
ATOM     22  O   UNL     1       4.099   7.030  -6.632  0.00  0.00    -0.485 OA
ENDBRANCH   7  13
BRANCH   4  23
ATOM     23  C   UNL     1      -1.844   2.456  -0.788  0.00  0.00    -0.060 A 
ATOM     24  C   UNL     1      -1.671   3.320   0.278  0.00  0.00    +0.004 A 
ATOM     25  C   UNL     1      -2.694   4.168   0.654  0.00  0.00    +0.023 A 
ATOM     26  C   UNL     1      -3.902   4.144  -0.033  0.00  0.00    +0.029 A 
ATOM     27  C   UNL     1      -4.073   3.271  -1.099  0.00  0.00    +0.023 A 
ATOM     28  C   UNL     1      -3.044   2.429  -1.474  0.00  0.00    +0.004 A 
BRANCH  26  29
ATOM     29  N   UNL     1      -4.941   4.996   0.348  0.00  0.00    -0.336 N 
ATOM     30  C   UNL     1      -6.166   5.060  -0.452  0.00  0.00    +0.129 C 
ATOM     31  C   UNL     1      -4.805   5.826   1.548  0.00  0.00    +0.129 C 
ENDBRANCH  26  29
ENDBRANCH   4  23
BRANCH   1  32
ATOM     32  C   UNL     1       2.329   0.631  -0.718  0.00  0.00    +0.297 C 
ATOM     33  O   UNL     1       3.220   1.069  -1.408  0.00  0.00    -0.252 OA
BRANCH  32  34
ATOM     34  O   UNL     1       2.179  -0.696  -0.578  0.00  0.00    -0.466 OA
BRANCH  34  35
ATOM     35  C   UNL     1       3.122  -1.544  -1.284  0.00  0.00    +0.228 C 
ATOM     36  C   UNL     1       2.795  -3.012  -1.006  0.00  0.00    +0.048 C 
ENDBRANCH  34  35
ENDBRANCH  32  34
ENDBRANCH   1  32
BRANCH   1  37
ATOM     37  C   UNL     1       1.878   1.869   1.404  0.00  0.00    -0.001 C 
BRANCH  37  39
ATOM     38  C   UNL     1       2.406   0.864   3.629  0.00  0.00    +0.004 C 
ATOM     39  C   UNL     1       1.916   0.569   2.211  0.00  0.00    -0.004 C 
ENDBRANCH  37  39
ENDBRANCH   1  37
TORSDOF 8
