REMARK  Name = ZINC60248772
REMARK  10 active torsions:
REMARK  status: ('A' for Active; 'I' for Inactive)
REMARK    1  A    between atoms: C_1  and  C_2
REMARK    2  A    between atoms: C_5  and  C_26
REMARK    3  A    between atoms: C_8  and  C_25
REMARK    4  A    between atoms: C_9  and  C_11
REMARK    5  A    between atoms: N_13  and  C_14
REMARK    6  A    between atoms: C_14  and  C_15
REMARK    7  A    between atoms: C_16  and  C_24
REMARK    8  A    between atoms: C_17  and  O_22
REMARK    9  A    between atoms: C_18  and  C_21
REMARK   10  A    between atoms: O_22  and  C_23
REMARK                            x       y       z     vdW  Elec       q    Type
REMARK                         _______ _______ _______ _____ _____    ______ ____
ROOT
ATOM      1  C   UNL     1       0.068  -1.578   4.791  0.00  0.00    +0.280 C 
ATOM      2  O   UNL     1       0.061  -0.566   5.466  0.00  0.00    -0.267 OA
ATOM      3  N   UNL     1       0.090  -2.786   5.388  0.00  0.00    -0.303 N 
ATOM      4  H   UNL     1       0.096  -3.593   4.850  0.00  0.00    +0.149 HD
ENDROOT
BRANCH   1  13
ATOM      5  C   UNL     1      -0.018   1.503   0.010  0.00  0.00    +0.044 C 
ATOM      6  C   UNL     1       0.002  -0.004   0.002  0.00  0.00    -0.039 A 
ATOM      7  C   UNL     1       0.006  -0.684  -1.183  0.00  0.00    +0.004 A 
ATOM      8  C   UNL     1       0.025  -2.072  -1.198  0.00  0.00    +0.007 A 
ATOM      9  C   UNL     1       0.041  -2.789  -0.021  0.00  0.00    -0.008 A 
ATOM     10  C   UNL     1       0.037  -2.119   1.197  0.00  0.00    +0.139 A 
ATOM     11  C   UNL     1       0.023  -0.712   1.206  0.00  0.00    +0.027 A 
ATOM     12  C   UNL     1       0.030  -0.325   2.616  0.00  0.00    +0.008 A 
ATOM     13  C   UNL     1       0.053  -1.483   3.324  0.00  0.00    +0.193 A 
ATOM     14  O   UNL     1       0.049  -2.535   2.478  0.00  0.00    -0.450 OA
ATOM     15  C   UNL     1       0.016   1.076   3.171  0.00  0.00    +0.048 C 
ATOM     16  C   UNL     1       0.061  -4.295  -0.055  0.00  0.00    +0.047 C 
ENDBRANCH   1  13
BRANCH   3  17
ATOM     17  C   UNL     1       0.105  -2.880   6.850  0.00  0.00    +0.158 C 
BRANCH  17  18
ATOM     18  C   UNL     1       0.129  -4.330   7.260  0.00  0.00    +0.040 A 
ATOM     19  C   UNL     1       1.321  -5.025   7.238  0.00  0.00    +0.012 A 
ATOM     20  C   UNL     1       1.331  -6.364   7.619  0.00  0.00    +0.129 A 
ATOM     21  C   UNL     1       0.128  -6.950   8.007  0.00  0.00    +0.007 A 
ATOM     22  C   UNL     1      -1.022  -6.187   8.001  0.00  0.00    +0.089 A 
ATOM     23  N   UNL     1      -0.990  -4.918   7.639  0.00  0.00    -0.362 N 
ATOM     24  C   UNL     1       0.083  -8.396   8.428  0.00  0.00    +0.049 C 
ATOM     25  C   UNL     1       2.595  -4.344   6.809  0.00  0.00    +0.049 C 
ATOM     26  H   UNL     1      -1.812  -4.405   7.648  0.00  0.00    +0.165 HD
BRANCH  20  27
ATOM     27  O   UNL     1       2.483  -7.082   7.611  0.00  0.00    -0.494 OA
ATOM     28  C   UNL     1       3.256  -7.080   8.813  0.00  0.00    +0.277 C 
ENDBRANCH  20  27
ENDBRANCH  17  18
ENDBRANCH   3  17
TORSDOF 4
