REMARK  Name = ZINC35041225
REMARK  11 active torsions:
REMARK  status: ('A' for Active; 'I' for Inactive)
REMARK    1  A    between atoms: C_1  and  C_2
REMARK    2  A    between atoms: C_2  and  C_3
REMARK    3  A    between atoms: C_3  and  C_4
REMARK    4  A    between atoms: C_4  and  N_5
REMARK    5  A    between atoms: N_5  and  C_6
REMARK    6  A    between atoms: C_6  and  C_8
REMARK    7  A    between atoms: C_6  and  C_9
REMARK    8  A    between atoms: N_19  and  C_20
REMARK    9  A    between atoms: C_23  and  O_26
REMARK   10  A    between atoms: O_26  and  C_27
REMARK   11  A    between atoms: N_30  and  C_31
REMARK                            x       y       z     vdW  Elec       q    Type
REMARK                         _______ _______ _______ _____ _____    ______ ____
ROOT
ATOM      1  C   UNL     1       1.318  -2.332   3.265  0.00  0.00    +0.141 C 
ATOM      2  C   UNL     1       0.635  -3.588   2.719  0.00  0.00    +0.036 C 
ENDROOT
BRANCH   1   3
ATOM      3  C   UNL     1       0.295  -1.460   3.947  0.00  0.00    +0.138 A 
ATOM      4  N   UNL     1      -0.771  -1.129   3.285  0.00  0.00    -0.231 NA
ATOM      5  C   UNL     1      -1.735  -0.347   3.834  0.00  0.00    +0.078 A 
ATOM      6  C   UNL     1      -2.882   0.009   3.123  0.00  0.00    +0.028 A 
ATOM      7  C   UNL     1      -3.835   0.804   3.719  0.00  0.00    +0.002 A 
ATOM      8  C   UNL     1      -3.669   1.258   5.022  0.00  0.00    +0.001 A 
ATOM      9  C   UNL     1      -2.546   0.919   5.744  0.00  0.00    +0.015 A 
ATOM     10  C   UNL     1      -1.570   0.116   5.158  0.00  0.00    +0.065 A 
ATOM     11  C   UNL     1      -0.351  -0.278   5.880  0.00  0.00    +0.266 A 
ATOM     12  O   UNL     1      -0.148   0.087   7.024  0.00  0.00    -0.267 OA
ATOM     13  N   UNL     1       0.534  -1.065   5.226  0.00  0.00    -0.263 N 
BRANCH  13  14
ATOM     14  C   UNL     1       1.710  -1.473   5.871  0.00  0.00    +0.051 A 
ATOM     15  C   UNL     1       2.732  -0.560   6.096  0.00  0.00    +0.030 A 
ATOM     16  C   UNL     1       3.889  -0.962   6.731  0.00  0.00    +0.047 A 
ATOM     17  C   UNL     1       4.032  -2.279   7.145  0.00  0.00    +0.120 A 
ATOM     18  C   UNL     1       3.012  -3.192   6.920  0.00  0.00    +0.047 A 
ATOM     19  C   UNL     1       1.851  -2.789   6.291  0.00  0.00    +0.030 A 
BRANCH  17  20
ATOM     20  O   UNL     1       5.173  -2.675   7.770  0.00  0.00    -0.495 OA
ATOM     21  C   UNL     1       5.252  -4.045   8.168  0.00  0.00    +0.277 C 
ENDBRANCH  17  20
ENDBRANCH  13  14
ENDBRANCH   1   3
BRANCH   1  22
ATOM     22  N   UNL     1       1.933  -1.591   2.161  0.00  0.00    -0.276 N 
ATOM     23  C   UNL     1       3.273  -1.463   2.099  0.00  0.00    +0.303 C 
ATOM     24  O   UNL     1       3.972  -1.962   2.960  0.00  0.00    -0.253 OA
ATOM     25  N   UNL     1       3.839  -0.781   1.083  0.00  0.00    -0.294 N 
ATOM     26  H   UNL     1       3.281  -0.384   0.396  0.00  0.00    +0.151 HD
BRANCH  25  27
ATOM     27  C   UNL     1       5.295  -0.642   1.016  0.00  0.00    +0.037 C 
ATOM     28  C   UNL     1       5.797   0.079   2.269  0.00  0.00    +0.029 C 
ATOM     29  C   UNL     1       7.318   0.225   2.199  0.00  0.00    -0.008 C 
ATOM     30  C   UNL     1       7.696   1.036   0.959  0.00  0.00    +0.007 C 
ATOM     31  C   UNL     1       7.195   0.316  -0.294  0.00  0.00    -0.008 C 
ATOM     32  C   UNL     1       5.674   0.170  -0.225  0.00  0.00    +0.029 C 
ATOM     33  C   UNL     1       7.837  -1.071  -0.376  0.00  0.00    +0.007 C 
ATOM     34  C   UNL     1       7.459  -1.882   0.864  0.00  0.00    -0.008 C 
ATOM     35  C   UNL     1       7.960  -1.161   2.117  0.00  0.00    +0.007 C 
ATOM     36  C   UNL     1       5.938  -2.028   0.934  0.00  0.00    +0.029 C 
ENDBRANCH  25  27
BRANCH  22  37
ATOM     37  C   UNL     1       1.091  -0.991   1.123  0.00  0.00    +0.110 C 
BRANCH  37  38
ATOM     38  C   UNL     1       0.842   0.481   1.458  0.00  0.00    +0.019 C 
BRANCH  38  40
ATOM     39  C   UNL     1      -0.193   2.609   0.655  0.00  0.00    +0.004 C 
ATOM     40  C   UNL     1       0.056   1.137   0.321  0.00  0.00    -0.002 C 
ENDBRANCH  38  40
ENDBRANCH  37  38
ENDBRANCH  22  37
ENDBRANCH   1  22
TORSDOF 8
