REMARK  Name = ZINC37112669
REMARK  10 active torsions:
REMARK  status: ('A' for Active; 'I' for Inactive)
REMARK    1  A    between atoms: C_1  and  C_2
REMARK    2  A    between atoms: C_2  and  C_3
REMARK    3  A    between atoms: C_3  and  C_5
REMARK    4  A    between atoms: C_3  and  N_6
REMARK    5  A    between atoms: N_6  and  C_7
REMARK    6  A    between atoms: N_6  and  C_9
REMARK    7  A    between atoms: C_7  and  C_8
REMARK    8  A    between atoms: C_9  and  C_11
REMARK    9  A    between atoms: C_9  and  C_13
REMARK   10  A    between atoms: C_11  and  N_12
REMARK                            x       y       z     vdW  Elec       q    Type
REMARK                         _______ _______ _______ _____ _____    ______ ____
ROOT
ATOM      1  C   UNL     1      -1.710   1.262   0.544  0.00  0.00    -0.055 C 
ENDROOT
BRANCH   1   2
ATOM      2  C   UNL     1      -0.404   1.352  -0.203  0.00  0.00    -0.058 A 
ATOM      3  C   UNL     1      -0.334   2.066  -1.386  0.00  0.00    +0.051 A 
ATOM      4  C   UNL     1       0.865   2.151  -2.074  0.00  0.00    +0.168 A 
ATOM      5  C   UNL     1       1.999   1.516  -1.573  0.00  0.00    +0.180 A 
ATOM      6  C   UNL     1       1.921   0.802  -0.388  0.00  0.00    +0.063 A 
ATOM      7  C   UNL     1       0.722   0.727   0.298  0.00  0.00    +0.021 A 
ATOM      8 BR   UNL     1       3.457  -0.062   0.297  0.00  0.00    -0.046 Br
ATOM      9  O   UNL     1       3.041   1.747  -2.424  0.00  0.00    -0.451 OA
ATOM     10  C   UNL     1       2.440   2.185  -3.657  0.00  0.00    +0.466 C 
ATOM     11  O   UNL     1       1.197   2.780  -3.240  0.00  0.00    -0.453 OA
ENDBRANCH   1   2
BRANCH   1  12
ATOM     12  N   UNL     1      -1.806  -0.046   1.205  0.00  0.00    +0.385 N 
ATOM     13  H   UNL     1      -1.304  -0.734   0.664  0.00  0.00    -0.081 HD
BRANCH  12  14
ATOM     14  C   UNL     1      -3.217  -0.440   1.310  0.00  0.00    -0.071 C 
ATOM     15  C   UNL     1      -3.309  -1.886   1.800  0.00  0.00    -0.013 C 
BRANCH  14  17
ATOM     16  C   UNL     1      -4.451   1.087  -0.236  0.00  0.00    +0.002 C 
ATOM     17  C   UNL     1      -3.882  -0.323  -0.063  0.00  0.00    -0.019 C 
ENDBRANCH  14  17
ENDBRANCH  12  14
BRANCH  12  18
ATOM     18  C   UNL     1      -1.221   0.041   2.550  0.00  0.00    -0.081 C 
ATOM     19  C   UNL     1      -0.531  -1.281   2.893  0.00  0.00    -0.017 C 
ENDBRANCH  12  18
ENDBRANCH   1  12
BRANCH   1  20
ATOM     20  C   UNL     1      -1.774   2.371   1.595  0.00  0.00    -0.098 C 
BRANCH  20  21
ATOM     21  N   UNL     1      -2.975   2.193   2.422  0.00  0.00    +0.377 N 
ATOM     22  H   UNL     1      -2.998   2.903   3.139  0.00  0.00    -0.090 HD
ATOM     23  H   UNL     1      -3.797   2.274   1.843  0.00  0.00    -0.090 HD
ATOM     24  H   UNL     1      -2.954   1.281   2.853  0.00  0.00    -0.090 HD
ENDBRANCH  20  21
ENDBRANCH   1  20
TORSDOF 7
