REMARK  Name = ZINC40125741
REMARK  7 active torsions:
REMARK  status: ('A' for Active; 'I' for Inactive)
REMARK    1  A    between atoms: C_1  and  C_2
REMARK    2  A    between atoms: C_2  and  C_3
REMARK    3  A    between atoms: C_3  and  O_4
REMARK    4  A    between atoms: O_4  and  C_5
REMARK    5  A    between atoms: C_9  and  C_11
REMARK    6  A    between atoms: C_11  and  C_13
REMARK    7  A    between atoms: C_18  and  C_20
REMARK                            x       y       z     vdW  Elec       q    Type
REMARK                         _______ _______ _______ _____ _____    ______ ____
ROOT
ATOM      1  C   UNL     1      -5.270  -6.789   0.139  0.00  0.00    +0.076 C 
ATOM      2  C   UNL     1      -5.790  -7.710  -0.707  0.00  0.00    +0.249 C 
ATOM      3  C   UNL     1      -7.120  -8.127  -0.214  0.00  0.00    +0.285 C 
ATOM      4  O   UNL     1      -7.840  -8.942  -0.754  0.00  0.00    -0.267 OA
ATOM      5  N   UNL     1      -7.414  -7.470   0.923  0.00  0.00    -0.298 N 
ATOM      6  C   UNL     1      -6.285  -6.587   1.240  0.00  0.00    +0.142 C 
ATOM      7  O   UNL     1      -5.188  -8.173  -1.826  0.00  0.00    -0.282 OA
ATOM      8  H   UNL     1      -8.227  -7.565   1.443  0.00  0.00    +0.150 HD
ENDROOT
BRANCH   6   9
ATOM      9  C   UNL     1      -5.687  -6.964   2.571  0.00  0.00    -0.023 A 
ATOM     10  C   UNL     1      -5.503  -8.295   2.894  0.00  0.00    +0.007 A 
ATOM     11  C   UNL     1      -4.954  -8.641   4.114  0.00  0.00    +0.015 A 
ATOM     12  C   UNL     1      -4.589  -7.655   5.013  0.00  0.00    +0.018 A 
ATOM     13  C   UNL     1      -4.774  -6.323   4.690  0.00  0.00    +0.015 A 
ATOM     14  C   UNL     1      -5.318  -5.978   3.467  0.00  0.00    +0.007 A 
ATOM     15 BR   UNL     1      -3.839  -8.127   6.683  0.00  0.00    -0.050 Br
ENDBRANCH   6   9
BRANCH   1  16
ATOM     16  C   UNL     1      -3.971  -6.122   0.014  0.00  0.00    +0.195 C 
ATOM     17  O   UNL     1      -2.944  -6.766   0.113  0.00  0.00    -0.287 OA
BRANCH  16  22
ATOM     18  C   UNL     1      -2.625  -2.650  -0.507  0.00  0.00    +0.121 A 
ATOM     19  C   UNL     1      -3.799  -1.933  -0.694  0.00  0.00    +0.046 A 
ATOM     20  C   UNL     1      -5.023  -2.576  -0.651  0.00  0.00    +0.004 A 
ATOM     21  C   UNL     1      -5.085  -3.936  -0.422  0.00  0.00    +0.012 A 
ATOM     22  C   UNL     1      -3.909  -4.665  -0.232  0.00  0.00    +0.026 A 
ATOM     23  C   UNL     1      -2.675  -4.015  -0.281  0.00  0.00    +0.057 A 
BRANCH  18  24
ATOM     24  O   UNL     1      -1.425  -2.012  -0.549  0.00  0.00    -0.492 OA
BRANCH  24  25
ATOM     25  C   UNL     1      -1.448  -0.603  -0.786  0.00  0.00    +0.229 C 
BRANCH  25  27
ATOM     26  C   UNL     1      -0.040   1.444  -1.053  0.00  0.00    +0.007 C 
ATOM     27  C   UNL     1      -0.016  -0.065  -0.800  0.00  0.00    +0.038 C 
ENDBRANCH  25  27
ENDBRANCH  24  25
ENDBRANCH  18  24
ENDBRANCH  16  22
ENDBRANCH   1  16
TORSDOF 6
