REMARK  Name = ZINC35052796
REMARK  7 active torsions:
REMARK  status: ('A' for Active; 'I' for Inactive)
REMARK    1  A    between atoms: C_1  and  C_2
REMARK    2  A    between atoms: C_4  and  O_5
REMARK    3  A    between atoms: C_14  and  C_16
REMARK    4  A    between atoms: C_28  and  C_30
REMARK    5  A    between atoms: C_28  and  C_31
REMARK    6  A    between atoms: C_33  and  C_35
REMARK    7  A    between atoms: C_33  and  C_36
REMARK                            x       y       z     vdW  Elec       q    Type
REMARK                         _______ _______ _______ _____ _____    ______ ____
ROOT
ATOM      1  C   UNL     1       0.805   1.617  -0.068  0.00  0.00    +0.045 C 
ATOM      2  C   UNL     1       0.340   0.184  -0.065  0.00  0.00    -0.033 A 
ATOM      3  C   UNL     1      -0.073  -0.426  -1.233  0.00  0.00    +0.091 A 
ATOM      4  C   UNL     1      -0.498  -1.746  -1.211  0.00  0.00    +0.285 A 
ATOM      5  O   UNL     1      -0.519  -2.453  -0.076  0.00  0.00    -0.425 OA
ATOM      6  C   UNL     1      -0.126  -1.906   1.093  0.00  0.00    +0.141 A 
ATOM      7  C   UNL     1       0.322  -0.566   1.129  0.00  0.00    +0.021 A 
ATOM      8  C   UNL     1       0.737   0.005   2.345  0.00  0.00    +0.013 A 
ATOM      9  C   UNL     1       0.712  -0.733   3.486  0.00  0.00    +0.024 A 
ATOM     10  C   UNL     1       0.273  -2.069   3.458  0.00  0.00    +0.037 A 
ATOM     11  C   UNL     1      -0.153  -2.647   2.261  0.00  0.00    +0.070 A 
ATOM     12  N   UNL     1       0.253  -2.798   4.607  0.00  0.00    -0.283 N 
ATOM     13  C   UNL     1       0.146  -4.112   4.553  0.00  0.00    +0.249 C 
ATOM     14  O   UNL     1       0.188  -4.682   3.477  0.00  0.00    -0.273 OA
ATOM     15  H   UNL     1       0.317  -2.352   5.466  0.00  0.00    +0.155 HD
ENDROOT
BRANCH  13  16
ATOM     16  C   UNL     1      -0.027  -4.907   5.821  0.00  0.00    +0.238 C 
ATOM     17  C   UNL     1       1.204  -4.723   6.680  0.00  0.00    +0.191 C 
ATOM     18  C   UNL     1       1.318  -5.752   7.833  0.00  0.00    +0.187 C 
ATOM     19  C   UNL     1       1.021  -7.127   7.256  0.00  0.00    +0.209 C 
ATOM     20  C   UNL     1      -0.401  -7.069   6.634  0.00  0.00    +0.286 C 
ATOM     21  O   UNL     1      -0.277  -6.277   5.475  0.00  0.00    -0.333 OA
ATOM     22  O   UNL     1      -0.704  -8.447   6.461  0.00  0.00    -0.318 OA
ATOM     23  C   UNL     1       0.035  -9.145   7.489  0.00  0.00    +0.168 C 
ATOM     24  O   UNL     1       0.870  -8.187   8.205  0.00  0.00    -0.338 OA
ATOM     25  C   UNL     1       0.936 -10.202   6.847  0.00  0.00    +0.074 C 
ATOM     26  C   UNL     1      -0.940  -9.820   8.456  0.00  0.00    +0.074 C 
ATOM     27  O   UNL     1       2.741  -5.677   8.123  0.00  0.00    -0.341 OA
ATOM     28  C   UNL     1       3.365  -5.509   6.838  0.00  0.00    +0.166 C 
ATOM     29  O   UNL     1       2.417  -4.928   5.943  0.00  0.00    -0.340 OA
ATOM     30  C   UNL     1       3.801  -6.871   6.296  0.00  0.00    +0.074 C 
ATOM     31  C   UNL     1       4.587  -4.598   6.975  0.00  0.00    +0.074 C 
ENDBRANCH  13  16
BRANCH   4  32
ATOM     32  O   UNL     1      -0.898  -2.329  -2.357  0.00  0.00    -0.480 OA
ATOM     33  H   UNL     1      -1.178  -3.249  -2.254  0.00  0.00    +0.295 HD
ENDBRANCH   4  32
TORSDOF 2
