REMARK  Name = ZINC35472522
REMARK  7 active torsions:
REMARK  status: ('A' for Active; 'I' for Inactive)
REMARK    1  A    between atoms: C_1  and  C_2
REMARK    2  A    between atoms: C_3  and  C_8
REMARK    3  A    between atoms: C_8  and  N_9
REMARK    4  A    between atoms: N_9  and  C_10
REMARK    5  A    between atoms: C_10  and  C_11
REMARK    6  A    between atoms: C_14  and  C_17
REMARK    7  A    between atoms: C_23  and  C_25
REMARK                            x       y       z     vdW  Elec       q    Type
REMARK                         _______ _______ _______ _____ _____    ______ ____
ROOT
ATOM      1  N   UNL     1       0.765   0.882  -2.959  0.00  0.00    -0.288 N 
ATOM      2  C   UNL     1       1.366   0.571  -1.793  0.00  0.00    +0.247 C 
ATOM      3  O   UNL     1       1.727   1.455  -1.039  0.00  0.00    -0.270 OA
ENDROOT
BRANCH   2   4
ATOM      4  C   UNL     1       1.585  -0.830  -1.435  0.00  0.00    +0.052 C 
ATOM      5  C   UNL     1       0.939  -1.370  -0.373  0.00  0.00    +0.023 C 
ATOM      6  C   UNL     1       1.211  -2.778  -0.045  0.00  0.00    +0.017 A 
ATOM      7  C   UNL     1       0.371  -3.506   0.797  0.00  0.00    +0.011 A 
ATOM      8  C   UNL     1       0.665  -4.824   1.076  0.00  0.00    +0.001 A 
ATOM      9  C   UNL     1       1.786  -5.423   0.526  0.00  0.00    +0.004 A 
ATOM     10  C   UNL     1       2.626  -4.712  -0.311  0.00  0.00    +0.046 A 
ATOM     11  C   UNL     1       2.348  -3.388  -0.602  0.00  0.00    +0.128 A 
ATOM     12  O   UNL     1       3.152  -2.663  -1.418  0.00  0.00    -0.487 OA
ATOM     13  C   UNL     1       2.525  -1.681  -2.249  0.00  0.00    +0.269 C 
ENDBRANCH   2   4
BRANCH   1  14
ATOM     14  C   UNL     1       0.583   2.286  -3.336  0.00  0.00    +0.163 C 
BRANCH  14  17
ATOM     15  C   UNL     1      -0.402   2.916  -0.432  0.00  0.00    +0.065 C 
ATOM     16  C   UNL     1      -1.226   3.011  -1.690  0.00  0.00    +0.035 A 
ATOM     17  C   UNL     1      -0.799   2.738  -2.938  0.00  0.00    +0.054 A 
ATOM     18  N   UNL     1      -1.861   2.951  -3.776  0.00  0.00    -0.348 N 
ATOM     19  H   UNL     1      -1.865   2.839  -4.739  0.00  0.00    +0.166 HD
ATOM     20  C   UNL     1      -2.900   3.347  -3.010  0.00  0.00    +0.171 A 
ATOM     21  N   UNL     1      -2.515   3.375  -1.763  0.00  0.00    -0.350 N 
ATOM     22  H   UNL     1      -3.072   3.623  -1.009  0.00  0.00    +0.166 HD
ENDBRANCH  14  17
ENDBRANCH   1  14
BRANCH   1  23
ATOM     23  C   UNL     1       0.293  -0.182  -3.847  0.00  0.00    +0.143 C 
BRANCH  23  24
ATOM     24  C   UNL     1      -0.342   0.428  -5.070  0.00  0.00    -0.030 A 
ATOM     25  C   UNL     1      -1.715   0.585  -5.127  0.00  0.00    +0.006 A 
ATOM     26  C   UNL     1      -2.302   1.144  -6.245  0.00  0.00    +0.009 A 
ATOM     27  C   UNL     1      -1.509   1.550  -7.316  0.00  0.00    -0.018 A 
ATOM     28  C   UNL     1      -0.126   1.389  -7.253  0.00  0.00    +0.009 A 
ATOM     29  C   UNL     1       0.451   0.834  -6.128  0.00  0.00    +0.006 A 
BRANCH  27  30
ATOM     30  C   UNL     1      -2.134   2.150  -8.520  0.00  0.00    -0.018 A 
ATOM     31  C   UNL     1      -3.517   2.316  -8.581  0.00  0.00    +0.008 A 
ATOM     32  C   UNL     1      -4.093   2.876  -9.703  0.00  0.00    +0.001 A 
ATOM     33  C   UNL     1      -3.301   3.271 -10.766  0.00  0.00    +0.000 A 
ATOM     34  C   UNL     1      -1.929   3.109 -10.711  0.00  0.00    +0.001 A 
ATOM     35  C   UNL     1      -1.341   2.556  -9.591  0.00  0.00    +0.008 A 
ENDBRANCH  27  30
ENDBRANCH  23  24
ENDBRANCH   1  23
TORSDOF 6
