REMARK  Name = ZINC39674826
REMARK  7 active torsions:
REMARK  status: ('A' for Active; 'I' for Inactive)
REMARK    1  A    between atoms: C_1  and  C_2
REMARK    2  A    between atoms: C_4  and  C_14
REMARK    3  A    between atoms: C_7  and  C_12
REMARK    4  A    between atoms: C_14  and  C_15
REMARK    5  A    between atoms: C_15  and  N_16
REMARK    6  A    between atoms: C_17  and  C_19
REMARK    7  A    between atoms: C_30  and  C_32
REMARK                            x       y       z     vdW  Elec       q    Type
REMARK                         _______ _______ _______ _____ _____    ______ ____
ROOT
ATOM      1  C   UNL     1      -6.469  -1.589  -1.822  0.00  0.00    +0.100 C 
ATOM      2  C   UNL     1      -6.447  -1.796  -3.353  0.00  0.00    +0.121 C 
ATOM      3  N   UNL     1      -6.995  -3.158  -3.554  0.00  0.00    -0.300 N 
ATOM      4  C   UNL     1      -8.094  -3.264  -2.565  0.00  0.00    +0.115 C 
ATOM      5  C   UNL     1      -7.554  -2.551  -1.309  0.00  0.00    -0.004 C 
ATOM      6  C   UNL     1      -8.671  -1.771  -0.623  0.00  0.00    -0.010 C 
ATOM      7  C   UNL     1      -9.709  -2.752  -0.071  0.00  0.00    -0.082 C 
ATOM      8  N   UNL     1      -9.064  -3.663   0.883  0.00  0.00    +0.379 N 
ATOM      9  C   UNL     1      -8.054  -4.476   0.195  0.00  0.00    -0.082 C 
ATOM     10  C   UNL     1      -6.947  -3.567  -0.347  0.00  0.00    -0.010 C 
ATOM     11  C   UNL     1      -6.586  -4.091  -4.438  0.00  0.00    +0.219 C 
ATOM     12  O   UNL     1      -5.616  -3.882  -5.135  0.00  0.00    -0.275 OA
ATOM     13  H   UNL     1      -8.620  -3.125   1.613  0.00  0.00    -0.086 HD
ATOM     14  H   UNL     1      -9.760  -4.268   1.291  0.00  0.00    -0.086 HD
ENDROOT
BRANCH  11  15
ATOM     15  C   UNL     1      -7.336  -5.392  -4.560  0.00  0.00    +0.079 C 
ATOM     16  C   UNL     1      -6.397  -6.479  -5.098  0.00  0.00    +0.017 C 
ATOM     17  C   UNL     1      -7.129  -7.822  -5.044  0.00  0.00    +0.027 C 
ATOM     18  C   UNL     1      -8.490  -7.694  -5.664  0.00  0.00    -0.031 C 
ATOM     19  C   UNL     1      -9.087  -6.566  -5.877  0.00  0.00    -0.030 C 
ATOM     20  C   UNL     1      -8.501  -5.225  -5.538  0.00  0.00    +0.039 C 
ENDBRANCH  11  15
BRANCH   1  22
ATOM     21  N   UNL     1      -4.715  -1.332  -0.097  0.00  0.00    -0.315 N 
ATOM     22  C   UNL     1      -5.131  -1.941  -1.225  0.00  0.00    +0.218 C 
ATOM     23  O   UNL     1      -4.428  -2.772  -1.760  0.00  0.00    -0.275 OA
ATOM     24  H   UNL     1      -5.277  -0.668   0.331  0.00  0.00    +0.149 HD
BRANCH  21  25
ATOM     25  C   UNL     1      -3.414  -1.675   0.484  0.00  0.00    +0.108 C 
BRANCH  25  26
ATOM     26  C   UNL     1      -3.187  -0.847   1.750  0.00  0.00    +0.052 C 
BRANCH  26  29
ATOM     27  C   UNL     1      -2.119  -0.909   4.809  0.00  0.00    +0.035 C 
ATOM     28  C   UNL     1      -1.230  -0.618   3.599  0.00  0.00    +0.103 C 
ATOM     29  C   UNL     1      -1.849  -1.199   2.347  0.00  0.00    -0.037 C 
ATOM     30  C   UNL     1      -0.954  -2.102   1.870  0.00  0.00    +0.000 A 
ATOM     31  C   UNL     1      -0.981  -2.952   0.734  0.00  0.00    +0.028 A 
ATOM     32  C   UNL     1       0.078  -3.790   0.474  0.00  0.00    +0.052 A 
ATOM     33  C   UNL     1       1.246  -3.828   1.347  0.00  0.00    +0.021 A 
ATOM     34  C   UNL     1       1.327  -3.043   2.441  0.00  0.00    +0.027 A 
ATOM     35  C   UNL     1       0.224  -2.131   2.765  0.00  0.00    +0.043 A 
ATOM     36  N   UNL     1       0.068  -1.282   3.753  0.00  0.00    -0.378 N 
ATOM     37  H   UNL     1       0.704  -1.121   4.468  0.00  0.00    +0.160 HD
BRANCH  32  38
ATOM     38  C   UNL     1       0.034  -4.641  -0.677  0.00  0.00    +0.099 C 
ATOM     39  N   UNL     1      -0.001  -5.316  -1.590  0.00  0.00    -0.191 NA
ENDBRANCH  32  38
ENDBRANCH  26  29
ENDBRANCH  25  26
ENDBRANCH  21  25
ENDBRANCH   1  22
TORSDOF 6
