REMARK  Name = ZINC22535776
REMARK  11 active torsions:
REMARK  status: ('A' for Active; 'I' for Inactive)
REMARK    1  A    between atoms: C_1  and  C_2
REMARK    2  A    between atoms: C_3  and  N_15
REMARK    3  A    between atoms: N_6  and  C_9
REMARK    4  A    between atoms: N_7  and  C_8
REMARK    5  A    between atoms: C_16  and  C_18
REMARK    6  A    between atoms: C_18  and  C_20
REMARK    7  A    between atoms: C_18  and  O_21
REMARK    8  A    between atoms: O_21  and  C_22
REMARK    9  A    between atoms: C_22  and  C_24
REMARK   10  A    between atoms: C_24  and  S_25
REMARK   11  A    between atoms: S_25  and  C_26
REMARK                            x       y       z     vdW  Elec       q    Type
REMARK                         _______ _______ _______ _____ _____    ______ ____
ROOT
ATOM      1  N   UNL     1      -5.710  -6.069  -1.091  0.00  0.00    -0.277 N 
ATOM      2  C   UNL     1      -4.880  -5.019  -0.937  0.00  0.00    +0.258 C 
ATOM      3  O   UNL     1      -3.723  -5.102  -1.294  0.00  0.00    -0.271 OA
ATOM      4  H   UNL     1      -6.735  -6.024  -0.694  0.00  0.00    +0.155 HD
ENDROOT
BRANCH   1   7
ATOM      5  C   UNL     1      -5.705  -8.893   0.110  0.00  0.00    +0.067 C 
ATOM      6  C   UNL     1      -5.248  -8.483  -1.267  0.00  0.00    +0.059 A 
ATOM      7  C   UNL     1      -5.266  -7.226  -1.762  0.00  0.00    +0.121 A 
ATOM      8  C   UNL     1      -4.743  -7.290  -3.128  0.00  0.00    +0.293 A 
ATOM      9  O   UNL     1      -4.611  -6.357  -3.898  0.00  0.00    -0.264 OA
ATOM     10  N   UNL     1      -4.433  -8.581  -3.369  0.00  0.00    -0.216 N 
ATOM     11  N   UNL     1      -4.746  -9.324  -2.225  0.00  0.00    -0.282 N 
ATOM     12  C   UNL     1      -4.565 -10.770  -2.076  0.00  0.00    +0.171 C 
BRANCH  10  13
ATOM     13  C   UNL     1      -3.899  -9.089  -4.558  0.00  0.00    +0.067 A 
ATOM     14  C   UNL     1      -2.804  -9.943  -4.520  0.00  0.00    +0.028 A 
ATOM     15  C   UNL     1      -2.282 -10.447  -5.695  0.00  0.00    +0.002 A 
ATOM     16  C   UNL     1      -2.842 -10.093  -6.909  0.00  0.00    +0.000 A 
ATOM     17  C   UNL     1      -3.929  -9.240  -6.951  0.00  0.00    +0.002 A 
ATOM     18  C   UNL     1      -4.459  -8.737  -5.779  0.00  0.00    +0.028 A 
ENDBRANCH  10  13
ENDBRANCH   1   7
BRANCH   2  19
ATOM     19  C   UNL     1      -5.388  -3.741  -0.321  0.00  0.00    +0.259 C 
ATOM     20  C   UNL     1      -5.779  -3.997   1.136  0.00  0.00    +0.062 C 
BRANCH  19  21
ATOM     21  O   UNL     1      -4.346  -2.731  -0.373  0.00  0.00    -0.452 OA
BRANCH  21  22
ATOM     22  C   UNL     1      -4.742  -1.452  -0.467  0.00  0.00    +0.318 C 
ATOM     23  O   UNL     1      -5.920  -1.185  -0.505  0.00  0.00    -0.250 OA
BRANCH  22  24
ATOM     24  C   UNL     1      -3.717  -0.348  -0.525  0.00  0.00    +0.194 C 
BRANCH  24  25
ATOM     25  S   UNL     1      -4.559   1.253  -0.650  0.00  0.00    -0.114 S 
BRANCH  25  26
ATOM     26  C   UNL     1      -3.243   2.424  -0.708  0.00  0.00    +0.009 A 
ATOM     27  C   UNL     1      -1.923   1.992  -0.656  0.00  0.00    +0.015 A 
ATOM     28  C   UNL     1      -0.897   2.912  -0.707  0.00  0.00    +0.005 A 
ATOM     29  C   UNL     1      -1.176   4.266  -0.805  0.00  0.00    -0.044 A 
ATOM     30  C   UNL     1      -2.488   4.700  -0.851  0.00  0.00    -0.043 A 
ATOM     31  C   UNL     1      -3.521   3.781  -0.799  0.00  0.00    +0.018 A 
ATOM     32  C   UNL     1      -2.525   6.210  -0.957  0.00  0.00    +0.036 C 
ATOM     33  C   UNL     1      -1.107   6.617  -1.410  0.00  0.00    +0.009 C 
ATOM     34  C   UNL     1      -0.242   5.455  -0.877  0.00  0.00    +0.036 C 
ENDBRANCH  25  26
ENDBRANCH  24  25
ENDBRANCH  22  24
ENDBRANCH  21  22
ENDBRANCH  19  21
ENDBRANCH   2  19
TORSDOF 8
