REMARK  Name = ZINC03841428
REMARK  7 active torsions:
REMARK  status: ('A' for Active; 'I' for Inactive)
REMARK    1  A    between atoms: C_1  and  N_2
REMARK    2  A    between atoms: N_2  and  C_3
REMARK    3  A    between atoms: N_2  and  C_4
REMARK    4  A    between atoms: C_13  and  S_14
REMARK    5  A    between atoms: S_14  and  N_17
REMARK    6  A    between atoms: N_17  and  C_18
REMARK    7  A    between atoms: C_33  and  N_71
REMARK                            x       y       z     vdW  Elec       q    Type
REMARK                         _______ _______ _______ _____ _____    ______ ____
ROOT
ATOM      1  C   UNL     1       0.918   2.503   0.274  0.00  0.00    +0.112 A 
ATOM      2  C   UNL     1       2.209   2.060   0.177  0.00  0.00    +0.031 A 
ATOM      3  C   UNL     1       3.251   2.990   0.275  0.00  0.00    +0.023 A 
ATOM      4  C   UNL     1       2.986   4.306   0.484  0.00  0.00    +0.023 A 
ATOM      5  N   UNL     1       1.713   4.735   0.666  0.00  0.00    -0.310 N 
ATOM      6  C   UNL     1       0.680   3.871   0.506  0.00  0.00    +0.274 A 
ATOM      7  O   UNL     1      -0.467   4.284   0.565  0.00  0.00    -0.266 OA
ATOM      8  C   UNL     1       1.379   6.101   1.070  0.00  0.00    +0.127 C 
ATOM      9  C   UNL     1       2.515   7.076   0.814  0.00  0.00    -0.007 C 
ATOM     10  C   UNL     1       3.826   6.480   1.337  0.00  0.00    +0.011 C 
ATOM     11  C   UNL     1       4.159   5.262   0.469  0.00  0.00    +0.020 C 
ATOM     12  C   UNL     1       4.342   5.745  -0.979  0.00  0.00    -0.069 C 
ATOM     13  C   UNL     1       2.635   7.433  -0.660  0.00  0.00    -0.073 C 
ATOM     14  N   UNL     1       3.033   6.250  -1.449  0.00  0.00    +0.382 N 
ATOM     15  H   UNL     1       2.327   5.514  -1.325  0.00  0.00    -0.081 HD
ENDROOT
BRANCH  14  16
ATOM     16  C   UNL     1       3.111   6.602  -2.881  0.00  0.00    -0.064 C 
ATOM     17  C   UNL     1       1.702   6.925  -3.390  0.00  0.00    +0.013 C 
ATOM     18  C   UNL     1       1.761   7.189  -4.897  0.00  0.00    +0.158 C 
ATOM     19  O   UNL     1       2.313   6.049  -5.559  0.00  0.00    -0.380 OA
ATOM     20  C   UNL     1       3.647   5.731  -5.158  0.00  0.00    +0.158 C 
ATOM     21  C   UNL     1       3.664   5.406  -3.662  0.00  0.00    +0.013 C 
ENDBRANCH  14  16
BRANCH   1  22
ATOM     22  N   UNL     1      -0.151   1.607   0.148  0.00  0.00    -0.211 N 
ATOM     23  H   UNL     1      -1.063   1.938   0.148  0.00  0.00    +0.174 HD
BRANCH  22  24
ATOM     24  S   UNL     1       0.142  -0.015  -0.005  0.00  0.00    +0.073 S 
ATOM     25  O   UNL     1      -1.126  -0.658  -0.012  0.00  0.00    -0.150 OA
ATOM     26  O   UNL     1       1.075  -0.161  -1.066  0.00  0.00    -0.150 OA
BRANCH  24  36
ATOM     27  C   UNL     1       0.326  -0.813   5.121  0.00  0.00    +0.037 A 
ATOM     28  C   UNL     1      -0.964  -0.328   5.176  0.00  0.00    +0.024 A 
ATOM     29  C   UNL     1      -1.618   0.087   4.021  0.00  0.00    +0.002 A 
ATOM     30  C   UNL     1      -1.007   0.026   2.806  0.00  0.00    +0.010 A 
ATOM     31  C   UNL     1       0.307  -0.463   2.705  0.00  0.00    +0.010 A 
ATOM     32  C   UNL     1       0.984  -0.888   3.874  0.00  0.00    +0.005 A 
ATOM     33  C   UNL     1       2.296  -1.375   3.772  0.00  0.00    +0.010 A 
ATOM     34  C   UNL     1       2.901  -1.433   2.554  0.00  0.00    +0.003 A 
ATOM     35  C   UNL     1       2.234  -1.021   1.402  0.00  0.00    +0.029 A 
ATOM     36  C   UNL     1       0.963  -0.538   1.464  0.00  0.00    +0.116 A 
BRANCH  27  38
ATOM     37  C   UNL     1       1.081  -0.121   7.246  0.00  0.00    +0.129 C 
ATOM     38  N   UNL     1       0.973  -1.226   6.284  0.00  0.00    -0.336 N 
ATOM     39  C   UNL     1       0.292  -2.381   6.883  0.00  0.00    +0.129 C 
ENDBRANCH  27  38
ENDBRANCH  24  36
ENDBRANCH  22  24
ENDBRANCH   1  22
TORSDOF 5
