REMARK  Name = ZINC13976378
REMARK  11 active torsions:
REMARK  status: ('A' for Active; 'I' for Inactive)
REMARK    1  A    between atoms: C_1  and  C_2
REMARK    2  A    between atoms: C_2  and  C_3
REMARK    3  A    between atoms: C_2  and  C_4
REMARK    4  A    between atoms: C_2  and  C_5
REMARK    5  A    between atoms: C_8  and  O_11
REMARK    6  A    between atoms: O_11  and  C_12
REMARK    7  A    between atoms: C_12  and  C_13
REMARK    8  A    between atoms: N_15  and  C_16
REMARK    9  A    between atoms: C_16  and  N_18
REMARK   10  A    between atoms: N_18  and  N_19
REMARK   11  A    between atoms: C_20  and  C_22
REMARK                            x       y       z     vdW  Elec       q    Type
REMARK                         _______ _______ _______ _____ _____    ______ ____
ROOT
ATOM      1  C   UNL     1       3.563  -0.981  -0.037  0.00  0.00    +0.256 C 
ATOM      2  O   UNL     1       4.605  -0.360  -0.044  0.00  0.00    -0.272 OA
ATOM      3  N   UNL     1       2.387  -0.323  -0.022  0.00  0.00    -0.264 N 
ATOM      4  H   UNL     1       1.554  -0.819  -0.017  0.00  0.00    +0.157 HD
ENDROOT
BRANCH   3   5
ATOM      5  C   UNL     1       2.369   1.025  -0.015  0.00  0.00    +0.153 C 
ATOM      6  S   UNL     1       3.840   1.901  -0.024  0.00  0.00    -0.017 S 
BRANCH   5   7
ATOM      7  N   UNL     1       1.193   1.683  -0.000  0.00  0.00    -0.245 N 
ATOM      8  H   UNL     1       1.179   2.653   0.005  0.00  0.00    +0.172 HD
BRANCH   7   9
ATOM      9  N   UNL     1      -0.011   0.966   0.007  0.00  0.00    -0.231 N 
ATOM     10  C   UNL     1      -1.187   1.624   0.017  0.00  0.00    +0.262 C 
ATOM     11  O   UNL     1      -1.204   2.839   0.023  0.00  0.00    -0.269 OA
ATOM     12  H   UNL     1       0.002  -0.004   0.002  0.00  0.00    +0.173 HD
BRANCH  10  13
ATOM     13  C   UNL     1      -2.456   0.868   0.018  0.00  0.00    +0.057 A 
ATOM     14  C   UNL     1      -2.441  -0.529   0.011  0.00  0.00    +0.016 A 
ATOM     15  C   UNL     1      -3.628  -1.228   0.013  0.00  0.00    +0.021 A 
ATOM     16  C   UNL     1      -4.837  -0.550   0.023  0.00  0.00    +0.042 A 
ATOM     17  C   UNL     1      -4.860   0.834   0.031  0.00  0.00    +0.040 A 
ATOM     18  C   UNL     1      -3.678   1.547   0.034  0.00  0.00    +0.054 A 
ATOM     19 CL   UNL     1      -3.708   3.283   0.051  0.00  0.00    -0.083 Cl
ATOM     20 CL   UNL     1      -6.327  -1.440   0.025  0.00  0.00    -0.083 Cl
ENDBRANCH  10  13
ENDBRANCH   7   9
ENDBRANCH   5   7
ENDBRANCH   3   5
BRANCH   1  21
ATOM     21  C   UNL     1       3.584  -2.487  -0.045  0.00  0.00    +0.324 C 
BRANCH  21  22
ATOM     22  O   UNL     1       4.937  -2.946  -0.061  0.00  0.00    -0.483 OA
BRANCH  22  26
ATOM     23  C   UNL     1       5.533  -7.027  -0.089  0.00  0.00    -0.042 A 
ATOM     24  C   UNL     1       6.619  -6.171  -0.094  0.00  0.00    +0.008 A 
ATOM     25  C   UNL     1       6.422  -4.804  -0.085  0.00  0.00    +0.046 A 
ATOM     26  C   UNL     1       5.133  -4.290  -0.070  0.00  0.00    +0.121 A 
ATOM     27  C   UNL     1       4.046  -5.151  -0.059  0.00  0.00    +0.046 A 
ATOM     28  C   UNL     1       4.248  -6.518  -0.074  0.00  0.00    +0.008 A 
BRANCH  23  30
ATOM     29  C   UNL     1       6.550  -8.926   1.141  0.00  0.00    +0.015 C 
ATOM     30  C   UNL     1       5.751  -8.519  -0.099  0.00  0.00    -0.013 C 
ATOM     31  C   UNL     1       4.397  -9.232  -0.090  0.00  0.00    +0.015 C 
ATOM     32  C   UNL     1       6.526  -8.912  -1.358  0.00  0.00    +0.015 C 
ENDBRANCH  23  30
ENDBRANCH  22  26
ENDBRANCH  21  22
ENDBRANCH   1  21
TORSDOF 8
