REMARK  Name = ZINC16533902
REMARK  14 active torsions:
REMARK  status: ('A' for Active; 'I' for Inactive)
REMARK    1  A    between atoms: C_1  and  C_2
REMARK    2  A    between atoms: C_2  and  C_3
REMARK    3  A    between atoms: C_3  and  N_4
REMARK    4  A    between atoms: N_4  and  C_5
REMARK    5  A    between atoms: C_5  and  C_6
REMARK    6  A    between atoms: N_10  and  C_11
REMARK    7  A    between atoms: C_11  and  C_12
REMARK    8  A    between atoms: C_15  and  C_17
REMARK    9  A    between atoms: N_19  and  C_20
REMARK   10  A    between atoms: C_20  and  C_21
REMARK   11  A    between atoms: C_21  and  C_22
REMARK   12  A    between atoms: C_22  and  N_80
REMARK   13  A    between atoms: C_27  and  C_29
REMARK   14  A    between atoms: C_30  and  C_32
REMARK                            x       y       z     vdW  Elec       q    Type
REMARK                         _______ _______ _______ _____ _____    ______ ____
ROOT
ATOM      1  C   UNL     1     -11.229   4.574   0.274  0.00  0.00    +0.126 A 
ATOM      2  C   UNL     1     -11.783   5.514  -0.523  0.00  0.00    +0.047 A 
ATOM      3  C   UNL     1     -10.735   6.131  -1.224  0.00  0.00    +0.055 A 
ATOM      4  C   UNL     1      -9.581   5.528  -0.814  0.00  0.00    +0.189 A 
ATOM      5  O   UNL     1      -9.902   4.582   0.091  0.00  0.00    -0.453 OA
ENDROOT
BRANCH   4   6
ATOM      6  C   UNL     1      -8.228   5.849  -1.282  0.00  0.00    +0.279 C 
ATOM      7  O   UNL     1      -8.052   6.785  -2.040  0.00  0.00    -0.267 OA
ATOM      8  N   UNL     1      -7.179   5.109  -0.871  0.00  0.00    -0.309 N 
ATOM      9  H   UNL     1      -7.327   4.320  -0.326  0.00  0.00    +0.149 HD
BRANCH   8  10
ATOM     10  C   UNL     1      -5.817   5.494  -1.248  0.00  0.00    +0.103 C 
BRANCH  10  11
ATOM     11  C   UNL     1      -4.815   4.568  -0.557  0.00  0.00    +0.000 C 
BRANCH  11  12
ATOM     12  C   UNL     1      -3.392   5.046  -0.851  0.00  0.00    -0.077 C 
BRANCH  12  19
ATOM     13  C   UNL     1      -2.492   2.801  -0.748  0.00  0.00    -0.078 C 
ATOM     14  C   UNL     1      -1.585   1.871   0.060  0.00  0.00    -0.019 C 
ATOM     15  C   UNL     1      -0.148   2.398   0.012  0.00  0.00    -0.003 C 
ATOM     16  C   UNL     1      -0.119   3.828   0.557  0.00  0.00    -0.016 C 
ATOM     17  C   UNL     1      -1.068   4.702  -0.266  0.00  0.00    -0.072 C 
ATOM     18  C   UNL     1      -1.057   6.128   0.287  0.00  0.00    -0.013 C 
ATOM     19  N   UNL     1      -2.438   4.156  -0.159  0.00  0.00    +0.381 N 
ATOM     20  H   UNL     1      -2.696   4.097   0.833  0.00  0.00    -0.081 HD
ENDBRANCH  12  19
ENDBRANCH  11  12
ENDBRANCH  10  11
ENDBRANCH   8  10
ENDBRANCH   4   6
BRANCH   1  21
ATOM     21  C   UNL     1     -11.981   3.662   1.208  0.00  0.00    +0.195 C 
BRANCH  21  26
ATOM     22  C   UNL     1     -13.002   1.367   1.039  0.00  0.00    +0.036 A 
ATOM     23  C   UNL     1     -13.018   0.369   0.132  0.00  0.00    +0.024 A 
ATOM     24  C   UNL     1     -12.239   0.784  -0.966  0.00  0.00    +0.019 A 
ATOM     25  C   UNL     1     -11.781   2.023  -0.691  0.00  0.00    +0.086 A 
ATOM     26  N   UNL     1     -12.249   2.387   0.537  0.00  0.00    -0.342 N 
BRANCH  22  27
ATOM     27  C   UNL     1     -13.698   1.359   2.375  0.00  0.00    +0.161 C 
BRANCH  27  28
ATOM     28  N   UNL     1     -12.749   0.964   3.419  0.00  0.00    -0.296 N 
ATOM     29  C   UNL     1     -12.107   1.907   4.137  0.00  0.00    +0.219 C 
ATOM     30  O   UNL     1     -12.380   3.078   3.982  0.00  0.00    -0.275 OA
BRANCH  29  31
ATOM     31  C   UNL     1     -11.050   1.506   5.133  0.00  0.00    +0.075 C 
ATOM     32  C   UNL     1     -11.711   0.916   6.396  0.00  0.00    +0.013 C 
ATOM     33  C   UNL     1     -10.826   1.425   7.561  0.00  0.00    +0.001 C 
ATOM     34  C   UNL     1     -10.466   2.863   7.113  0.00  0.00    +0.001 C 
ATOM     35  C   UNL     1     -10.258   2.744   5.589  0.00  0.00    +0.013 C 
ENDBRANCH  29  31
BRANCH  28  36
ATOM     36  C   UNL     1     -12.497  -0.455   3.681  0.00  0.00    +0.108 C 
BRANCH  36  38
ATOM     37  C   UNL     1     -11.094  -2.426   3.061  0.00  0.00    +0.005 C 
ATOM     38  C   UNL     1     -11.357  -0.944   2.786  0.00  0.00    +0.016 C 
ENDBRANCH  36  38
ENDBRANCH  28  36
ENDBRANCH  27  28
ENDBRANCH  22  27
ENDBRANCH  21  26
ENDBRANCH   1  21
TORSDOF 12
