REMARK  Name = ZINC15675588
REMARK  7 active torsions:
REMARK  status: ('A' for Active; 'I' for Inactive)
REMARK    1  A    between atoms: C_1  and  C_2
REMARK    2  A    between atoms: C_5  and  C_8
REMARK    3  A    between atoms: C_8  and  N_9
REMARK    4  A    between atoms: C_18  and  C_20
REMARK    5  A    between atoms: C_22  and  C_25
REMARK    6  A    between atoms: C_28  and  O_31
REMARK    7  A    between atoms: O_31  and  C_32
REMARK                            x       y       z     vdW  Elec       q    Type
REMARK                         _______ _______ _______ _____ _____    ______ ____
ROOT
ATOM      1  N   UNL     1       2.854   3.251   0.973  0.00  0.00    -0.281 NA
ATOM      2  C   UNL     1       3.216   4.659   1.211  0.00  0.00    +0.140 C 
ATOM      3  C   UNL     1       3.445   5.321  -0.125  0.00  0.00    +0.051 A 
ATOM      4  C   UNL     1       3.021   4.795  -1.297  0.00  0.00    +0.040 A 
ATOM      5  N   UNL     1       3.401   5.650  -2.281  0.00  0.00    -0.349 N 
ATOM      6  H   UNL     1       3.161   5.422  -3.330  0.00  0.00    +0.166 HD
ATOM      7  C   UNL     1       4.046   6.679  -1.683  0.00  0.00    +0.171 A 
ATOM      8  N   UNL     1       4.066   6.471  -0.392  0.00  0.00    -0.349 N 
ATOM      9  C   UNL     1       2.271   3.492  -1.400  0.00  0.00    +0.083 C 
ATOM     10  C   UNL     1       1.758   3.132   0.002  0.00  0.00    +0.152 C 
ATOM     11  H   UNL     1       4.492   7.069   0.427  0.00  0.00    +0.166 HD
ENDROOT
BRANCH  10  12
ATOM     12  C   UNL     1       1.240   1.717  -0.001  0.00  0.00    +0.245 A 
ATOM     13  N   UNL     1      -0.016   1.348   0.009  0.00  0.00    -0.190 NA
ATOM     14  C   UNL     1       0.002  -0.004   0.002  0.00  0.00    +0.202 A 
ATOM     15  N   UNL     1       1.257  -0.373  -0.012  0.00  0.00    -0.056 NA
ATOM     16  O   UNL     1       1.978   0.602  -0.014  0.00  0.00    -0.336 OA
BRANCH  14  17
ATOM     17  C   UNL     1      -1.179  -0.901   0.009  0.00  0.00    +0.023 A 
ATOM     18  C   UNL     1      -2.465  -0.362   0.030  0.00  0.00    +0.015 A 
ATOM     19  C   UNL     1      -3.561  -1.198   0.032  0.00  0.00    +0.046 A 
ATOM     20  C   UNL     1      -3.386  -2.576   0.023  0.00  0.00    +0.130 A 
ATOM     21  C   UNL     1      -2.107  -3.115   0.007  0.00  0.00    +0.046 A 
ATOM     22  C   UNL     1      -1.006  -2.284  -0.000  0.00  0.00    +0.015 A 
BRANCH  20  23
ATOM     23  O   UNL     1      -4.468  -3.397   0.029  0.00  0.00    -0.406 OA
BRANCH  23  24
ATOM     24  C   UNL     1      -5.754  -2.775   0.046  0.00  0.00    +0.575 C 
ATOM     25  F   UNL     1      -5.899  -1.972  -1.091  0.00  0.00    -0.133 F 
ATOM     26  F   UNL     1      -6.748  -3.759   0.050  0.00  0.00    -0.133 F 
ATOM     27  F   UNL     1      -5.875  -1.985   1.194  0.00  0.00    -0.133 F 
ENDBRANCH  23  24
ENDBRANCH  20  23
ENDBRANCH  14  17
ENDBRANCH  10  12
BRANCH   1  28
ATOM     28  C   UNL     1       2.518   2.574   2.232  0.00  0.00    +0.120 C 
BRANCH  28  33
ATOM     29  C   UNL     1       6.459   3.899   6.245  0.00  0.00    +0.044 C 
ATOM     30  C   UNL     1       5.431   3.554   5.199  0.00  0.00    -0.050 A 
ATOM     31  C   UNL     1       4.304   4.340   5.051  0.00  0.00    +0.003 A 
ATOM     32  C   UNL     1       3.361   4.023   4.091  0.00  0.00    +0.005 A 
ATOM     33  C   UNL     1       3.546   2.920   3.279  0.00  0.00    -0.033 A 
ATOM     34  C   UNL     1       4.671   2.131   3.430  0.00  0.00    +0.005 A 
ATOM     35  C   UNL     1       5.616   2.450   4.387  0.00  0.00    +0.003 A 
ENDBRANCH  28  33
ENDBRANCH   1  28
TORSDOF 6
