REMARK  Name = ZINC35834599
REMARK  6 active torsions:
REMARK  status: ('A' for Active; 'I' for Inactive)
REMARK    1  A    between atoms: C_2  and  C_3
REMARK    2  A    between atoms: C_3  and  N_4
REMARK    3  A    between atoms: C_7  and  C_12
REMARK    4  A    between atoms: C_15  and  C_18
REMARK    5  A    between atoms: N_24  and  C_26
REMARK    6  A    between atoms: C_26  and  C_27
REMARK                            x       y       z     vdW  Elec       q    Type
REMARK                         _______ _______ _______ _____ _____    ______ ____
ROOT
ATOM      1  N   UNL     1       1.367  -1.676   1.111  0.00  0.00    -0.253 N 
ATOM      2  C   UNL     1       1.872  -1.230   2.300  0.00  0.00    +0.043 C 
ATOM      3  C   UNL     1       1.946  -2.039   3.375  0.00  0.00    +0.058 C 
ATOM      4  C   UNL     1       1.450  -3.463   3.221  0.00  0.00    +0.142 C 
ATOM      5  N   UNL     1       0.924  -3.846   1.900  0.00  0.00    -0.288 N 
ATOM      6  C   UNL     1       0.911  -2.920   0.921  0.00  0.00    +0.307 C 
ATOM      7  O   UNL     1       0.474  -3.226  -0.172  0.00  0.00    -0.252 OA
ATOM      8  C   UNL     1       2.501  -1.348   4.472  0.00  0.00    +0.247 C 
ATOM      9  O   UNL     1       2.685  -1.837   5.572  0.00  0.00    -0.270 OA
ATOM     10  N   UNL     1       2.802  -0.078   4.144  0.00  0.00    -0.288 N 
ATOM     11  C   UNL     1       2.428   0.108   2.734  0.00  0.00    +0.160 C 
ATOM     12  H   UNL     1       0.592  -4.743   1.740  0.00  0.00    +0.151 HD
ENDROOT
BRANCH   4  13
ATOM     13  C   UNL     1       0.360  -3.687   4.238  0.00  0.00    -0.023 A 
ATOM     14  C   UNL     1      -0.922  -3.235   3.987  0.00  0.00    +0.006 A 
ATOM     15  C   UNL     1      -1.922  -3.441   4.920  0.00  0.00    +0.013 A 
ATOM     16  C   UNL     1      -1.640  -4.099   6.102  0.00  0.00    +0.055 A 
ATOM     17  C   UNL     1      -0.358  -4.552   6.352  0.00  0.00    +0.013 A 
ATOM     18  C   UNL     1       0.641  -4.350   5.418  0.00  0.00    +0.006 A 
BRANCH  16  19
ATOM     19  C   UNL     1      -2.729  -4.323   7.119  0.00  0.00    +0.417 C 
ATOM     20  F   UNL     1      -3.363  -5.543   6.862  0.00  0.00    -0.166 F 
ATOM     21  F   UNL     1      -2.172  -4.346   8.402  0.00  0.00    -0.166 F 
ATOM     22  F   UNL     1      -3.665  -3.286   7.035  0.00  0.00    -0.166 F 
ENDBRANCH  16  19
ENDBRANCH   4  13
BRANCH   1  23
ATOM     23  C   UNL     1       1.317  -0.740  -0.015  0.00  0.00    +0.141 C 
BRANCH  23  25
ATOM     24  C   UNL     1      -0.016   1.306   0.009  0.00  0.00    +0.005 C 
ATOM     25  C   UNL     1       0.002  -0.004   0.002  0.00  0.00    -0.015 C 
ENDBRANCH  23  25
ENDBRANCH   1  23
BRANCH  10  26
ATOM     26  C   UNL     1       3.391   0.931   5.028  0.00  0.00    +0.143 C 
BRANCH  26  27
ATOM     27  C   UNL     1       4.894   0.866   4.932  0.00  0.00    -0.030 A 
ATOM     28  C   UNL     1       5.605   0.036   5.778  0.00  0.00    +0.008 A 
ATOM     29  C   UNL     1       6.983  -0.024   5.691  0.00  0.00    +0.038 A 
ATOM     30  C   UNL     1       7.651   0.748   4.755  0.00  0.00    +0.123 A 
ATOM     31  C   UNL     1       6.938   1.578   3.908  0.00  0.00    +0.038 A 
ATOM     32  C   UNL     1       5.560   1.633   3.994  0.00  0.00    +0.008 A 
ATOM     33  F   UNL     1       8.998   0.690   4.669  0.00  0.00    -0.205 F 
ENDBRANCH  26  27
ENDBRANCH  10  26
TORSDOF 6
