REMARK  Name = ZINC35009872
REMARK  4 active torsions:
REMARK  status: ('A' for Active; 'I' for Inactive)
REMARK    1  A    between atoms: C_1  and  C_2
REMARK    2  A    between atoms: C_2  and  C_4
REMARK    3  A    between atoms: C_2  and  N_11
REMARK    4  A    between atoms: N_11  and  C_12
REMARK                            x       y       z     vdW  Elec       q    Type
REMARK                         _______ _______ _______ _____ _____    ______ ____
ROOT
ATOM      1  N   UNL     1      -1.376  -0.512   0.012  0.00  0.00    +0.386 N 
ATOM      2  H   UNL     1      -1.888  -0.113  -0.760  0.00  0.00    -0.085 HD
ATOM      3  H   UNL     1      -1.364  -1.518  -0.076  0.00  0.00    -0.085 HD
ENDROOT
BRANCH   1   4
ATOM      4  C   UNL     1      -2.026  -0.140   1.276  0.00  0.00    -0.065 C 
ATOM      5  C   UNL     1      -1.325  -0.846   2.438  0.00  0.00    -0.024 C 
ATOM      6  C   UNL     1      -2.002  -0.458   3.754  0.00  0.00    +0.005 C 
ATOM      7  C   UNL     1      -3.473  -0.878   3.714  0.00  0.00    -0.010 C 
ATOM      8  C   UNL     1      -3.566  -2.393   3.521  0.00  0.00    +0.007 C 
ATOM      9  C   UNL     1      -2.889  -2.781   2.205  0.00  0.00    -0.010 C 
ATOM     10  C   UNL     1      -1.418  -2.361   2.244  0.00  0.00    +0.005 C 
ATOM     11  C   UNL     1      -3.590  -2.074   1.043  0.00  0.00    +0.005 C 
ATOM     12  C   UNL     1      -3.497  -0.559   1.236  0.00  0.00    -0.024 C 
ATOM     13  C   UNL     1      -4.174  -0.171   2.552  0.00  0.00    +0.005 C 
ENDBRANCH   1   4
BRANCH   1  15
ATOM     14  C   UNL     1      -0.019   1.526   0.010  0.00  0.00    -0.009 C 
ATOM     15  C   UNL     1       0.002  -0.004   0.002  0.00  0.00    -0.044 C 
BRANCH  15  16
ATOM     16  C   UNL     1       0.707  -0.490  -1.238  0.00  0.00    -0.062 A 
ATOM     17  C   UNL     1       0.037  -0.521  -2.447  0.00  0.00    +0.003 A 
ATOM     18  C   UNL     1       0.684  -0.967  -3.584  0.00  0.00    +0.015 A 
ATOM     19  C   UNL     1       2.002  -1.381  -3.513  0.00  0.00    +0.018 A 
ATOM     20  C   UNL     1       2.672  -1.349  -2.303  0.00  0.00    +0.015 A 
ATOM     21  C   UNL     1       2.026  -0.899  -1.167  0.00  0.00    +0.003 A 
ATOM     22 BR   UNL     1       2.887  -1.991  -5.069  0.00  0.00    -0.050 Br
ENDBRANCH  15  16
ENDBRANCH   1  15
TORSDOF 3
