REMARK  Name = ZINC37444314
REMARK  11 active torsions:
REMARK  status: ('A' for Active; 'I' for Inactive)
REMARK    1  A    between atoms: C_1  and  C_2
REMARK    2  A    between atoms: C_7  and  N_12
REMARK    3  A    between atoms: C_9  and  C_11
REMARK    4  A    between atoms: C_13  and  C_15
REMARK    5  A    between atoms: C_15  and  C_35
REMARK    6  A    between atoms: C_18  and  C_30
REMARK    7  A    between atoms: N_24  and  C_25
REMARK    8  A    between atoms: C_25  and  C_26
REMARK    9  A    between atoms: C_26  and  C_27
REMARK   10  A    between atoms: C_27  and  C_28
REMARK   11  A    between atoms: C_27  and  C_29
REMARK                            x       y       z     vdW  Elec       q    Type
REMARK                         _______ _______ _______ _____ _____    ______ ____
ROOT
ATOM      1  C   UNL     1       1.936  -4.254   4.128  0.00  0.00    +0.128 C 
ATOM      2  C   UNL     1       1.167  -3.818   5.375  0.00  0.00    +0.157 C 
ATOM      3  N   UNL     1       1.369  -2.382   5.589  0.00  0.00    -0.331 N 
ATOM      4  C   UNL     1       0.558  -1.464   6.168  0.00  0.00    +0.085 A 
ATOM      5  C   UNL     1       1.209  -0.239   6.151  0.00  0.00    +0.032 A 
ATOM      6  C   UNL     1       2.448  -0.423   5.536  0.00  0.00    +0.033 A 
ATOM      7  C   UNL     1       2.537  -1.742   5.186  0.00  0.00    +0.105 A 
ATOM      8  C   UNL     1       3.600  -2.481   4.497  0.00  0.00    +0.264 C 
ATOM      9  O   UNL     1       4.693  -1.987   4.290  0.00  0.00    -0.268 OA
ATOM     10  N   UNL     1       3.301  -3.741   4.104  0.00  0.00    -0.281 N 
ATOM     11  C   UNL     1       1.980  -5.782   4.086  0.00  0.00    +0.043 C 
ENDROOT
BRANCH   4  12
ATOM     12  C   UNL     1      -0.779  -1.721   6.720  0.00  0.00    +0.151 A 
ATOM     13  C   UNL     1      -1.638  -0.782   7.211  0.00  0.00    +0.051 A 
ATOM     14  C   UNL     1      -2.793  -1.468   7.629  0.00  0.00    +0.042 A 
ATOM     15  C   UNL     1      -2.589  -2.778   7.376  0.00  0.00    +0.196 A 
ATOM     16  O   UNL     1      -1.375  -2.926   6.822  0.00  0.00    -0.461 OA
ENDBRANCH   4  12
BRANCH   1  18
ATOM     17  N   UNL     1       1.471  -2.526   2.420  0.00  0.00    -0.310 N 
ATOM     18  C   UNL     1       1.207  -3.754   2.907  0.00  0.00    +0.238 C 
ATOM     19  O   UNL     1       0.382  -4.458   2.364  0.00  0.00    -0.273 OA
ATOM     20  H   UNL     1       2.131  -1.963   2.855  0.00  0.00    +0.149 HD
BRANCH  17  26
ATOM     21  C   UNL     1      -0.019   1.526   0.010  0.00  0.00    +0.008 C 
ATOM     22  C   UNL     1       0.002  -0.004   0.002  0.00  0.00    -0.009 C 
ATOM     23  C   UNL     1       0.718  -0.497  -1.257  0.00  0.00    +0.003 C 
ATOM     24  C   UNL     1       0.739  -2.027  -1.265  0.00  0.00    +0.002 C 
ATOM     25  C   UNL     1       1.479  -2.534  -0.026  0.00  0.00    +0.022 C 
ATOM     26  C   UNL     1       0.763  -2.041   1.233  0.00  0.00    +0.076 C 
ATOM     27  C   UNL     1       0.742  -0.511   1.242  0.00  0.00    +0.009 C 
ATOM     28  C   UNL     1       0.026  -0.018   2.500  0.00  0.00    +0.009 C 
ENDBRANCH  17  26
ENDBRANCH   1  18
BRANCH  10  29
ATOM     29  C   UNL     1       4.381  -4.617   3.642  0.00  0.00    +0.109 C 
BRANCH  29  30
ATOM     30  C   UNL     1       4.558  -4.454   2.131  0.00  0.00    +0.022 C 
BRANCH  30  31
ATOM     31  C   UNL     1       5.685  -5.368   1.648  0.00  0.00    -0.016 C 
ATOM     32  C   UNL     1       5.780  -5.299   0.122  0.00  0.00    +0.007 C 
ATOM     33  C   UNL     1       7.010  -4.912   2.262  0.00  0.00    +0.007 C 
ENDBRANCH  30  31
ENDBRANCH  29  30
ENDBRANCH  10  29
TORSDOF 6
