REMARK  Name = ZINC64344738
REMARK  7 active torsions:
REMARK  status: ('A' for Active; 'I' for Inactive)
REMARK    1  A    between atoms: C_1  and  C_2
REMARK    2  A    between atoms: C_2  and  C_3
REMARK    3  A    between atoms: C_3  and  N_4
REMARK    4  A    between atoms: N_4  and  C_5
REMARK    5  A    between atoms: N_4  and  C_12
REMARK    6  A    between atoms: C_5  and  C_6
REMARK    7  A    between atoms: C_12  and  C_13
REMARK                            x       y       z     vdW  Elec       q    Type
REMARK                         _______ _______ _______ _____ _____    ______ ____
ROOT
ATOM      1  N   UNL     1      -1.523  -2.021  -0.076  0.00  0.00    +0.386 N 
ATOM      2  H   UNL     1      -0.961  -2.227  -0.888  0.00  0.00    -0.081 HD
ENDROOT
BRANCH   1   3
ATOM      3  C   UNL     1      -1.642  -0.565   0.080  0.00  0.00    -0.078 C 
BRANCH   3   5
ATOM      4  C   UNL     1      -0.370   1.584   0.147  0.00  0.00    +0.002 C 
ATOM      5  C   UNL     1      -0.246   0.060   0.118  0.00  0.00    -0.022 C 
ENDBRANCH   3   5
ENDBRANCH   1   3
BRANCH   1   6
ATOM      6  C   UNL     1      -2.860  -2.606  -0.244  0.00  0.00    -0.042 C 
BRANCH   6   7
ATOM      7  C   UNL     1      -3.465  -2.115  -1.534  0.00  0.00    -0.064 A 
ATOM      8  C   UNL     1      -4.218  -0.956  -1.547  0.00  0.00    +0.002 A 
ATOM      9  C   UNL     1      -4.773  -0.505  -2.730  0.00  0.00    +0.000 A 
ATOM     10  C   UNL     1      -4.574  -1.214  -3.901  0.00  0.00    +0.000 A 
ATOM     11  C   UNL     1      -3.820  -2.372  -3.888  0.00  0.00    +0.000 A 
ATOM     12  C   UNL     1      -3.262  -2.820  -2.705  0.00  0.00    +0.002 A 
ENDBRANCH   6   7
ENDBRANCH   1   6
BRANCH   1  13
ATOM     13  C   UNL     1      -0.886  -2.591   1.119  0.00  0.00    -0.020 C 
BRANCH  13  14
ATOM     14  C   UNL     1      -0.638  -4.061   0.902  0.00  0.00    +0.044 A 
ATOM     15  C   UNL     1       0.508  -4.609   0.464  0.00  0.00    +0.114 A 
ATOM     16  N   UNL     1       0.323  -5.987   0.403  0.00  0.00    -0.300 N 
ATOM     17  C   UNL     1       1.046  -7.108   0.057  0.00  0.00    +0.100 A 
ATOM     18  C   UNL     1       0.502  -8.322   0.133  0.00  0.00    +0.067 A 
ATOM     19  S   UNL     1      -1.142  -7.952   0.724  0.00  0.00    -0.058 S 
ATOM     20  C   UNL     1      -0.966  -6.186   0.823  0.00  0.00    +0.177 A 
ATOM     21  N   UNL     1      -1.522  -5.047   1.119  0.00  0.00    -0.228 NA
ENDBRANCH  13  14
ENDBRANCH   1  13
TORSDOF 6
