REMARK  Name = ZINC04135106
REMARK  4 active torsions:
REMARK  status: ('A' for Active; 'I' for Inactive)
REMARK    1  A    between atoms: C_5  and  C_7
REMARK    2  A    between atoms: C_8  and  C_9
REMARK    3  A    between atoms: N_11  and  C_12
REMARK    4  A    between atoms: C_20  and  C_21
REMARK                            x       y       z     vdW  Elec       q    Type
REMARK                         _______ _______ _______ _____ _____    ______ ____
ROOT
ATOM      1  C   UNL     1      -2.525   1.341   0.119  0.00  0.00    +0.092 A 
ATOM      2  C   UNL     1      -1.215   1.960  -0.118  0.00  0.00    +0.042 A 
ATOM      3  C   UNL     1       0.076   1.461  -0.299  0.00  0.00    +0.013 A 
ATOM      4  C   UNL     1       1.114   2.326  -0.506  0.00  0.00    +0.001 A 
ATOM      5  C   UNL     1       0.892   3.695  -0.537  0.00  0.00    +0.004 A 
ATOM      6  C   UNL     1      -0.375   4.207  -0.360  0.00  0.00    +0.047 A 
ATOM      7  C   UNL     1      -1.446   3.346  -0.148  0.00  0.00    +0.138 A 
ATOM      8  O   UNL     1      -2.765   3.548   0.045  0.00  0.00    -0.448 OA
ATOM      9  C   UNL     1      -3.416   2.375   0.211  0.00  0.00    +0.211 A 
ENDROOT
BRANCH   9  10
ATOM     10  C   UNL     1      -4.851   2.233   0.445  0.00  0.00    +0.279 C 
ATOM     11  O   UNL     1      -5.357   1.125   0.470  0.00  0.00    -0.267 OA
ATOM     12  N   UNL     1      -5.614   3.327   0.638  0.00  0.00    -0.323 N 
ATOM     13  H   UNL     1      -6.567   3.232   0.797  0.00  0.00    +0.145 HD
ATOM     14  H   UNL     1      -5.211   4.209   0.617  0.00  0.00    +0.145 HD
ENDBRANCH   9  10
BRANCH   1  17
ATOM     15  C   UNL     1      -1.864  -0.859   0.701  0.00  0.00    +0.241 C 
ATOM     16  O   UNL     1      -0.807  -0.422   1.118  0.00  0.00    -0.270 OA
ATOM     17  N   UNL     1      -2.802  -0.015   0.228  0.00  0.00    -0.278 N 
ATOM     18  H   UNL     1      -3.671  -0.355  -0.037  0.00  0.00    +0.155 HD
BRANCH  15  20
ATOM     19  C   UNL     1      -1.177  -3.145   1.188  0.00  0.00    +0.014 C 
ATOM     20  C   UNL     1      -2.116  -2.300   0.714  0.00  0.00    +0.068 C 
BRANCH  19  25
ATOM     21  C   UNL     1      -2.873  -6.459   0.739  0.00  0.00    +0.001 A 
ATOM     22  C   UNL     1      -1.907  -7.324   1.225  0.00  0.00    +0.001 A 
ATOM     23  C   UNL     1      -0.705  -6.833   1.700  0.00  0.00    +0.020 A 
ATOM     24  C   UNL     1      -0.456  -5.474   1.686  0.00  0.00    +0.048 A 
ATOM     25  C   UNL     1      -1.430  -4.594   1.201  0.00  0.00    -0.007 A 
ATOM     26  C   UNL     1      -2.643  -5.100   0.723  0.00  0.00    +0.009 A 
ATOM     27 CL   UNL     1       1.057  -4.860   2.275  0.00  0.00    -0.083 Cl
ENDBRANCH  19  25
ENDBRANCH  15  20
ENDBRANCH   1  17
TORSDOF 4
