REMARK  Name = ZINC35990786
REMARK  14 active torsions:
REMARK  status: ('A' for Active; 'I' for Inactive)
REMARK    1  A    between atoms: C_1  and  C_2
REMARK    2  A    between atoms: C_2  and  O_3
REMARK    3  A    between atoms: O_3  and  C_4
REMARK    4  A    between atoms: C_4  and  C_6
REMARK    5  A    between atoms: C_7  and  C_27
REMARK    6  A    between atoms: N_8  and  C_24
REMARK    7  A    between atoms: C_12  and  C_14
REMARK    8  A    between atoms: C_17  and  C_20
REMARK    9  A    between atoms: C_20  and  C_21
REMARK   10  A    between atoms: C_20  and  C_22
REMARK   11  A    between atoms: C_20  and  C_23
REMARK   12  A    between atoms: C_24  and  C_25
REMARK   13  A    between atoms: C_27  and  N_28
REMARK   14  A    between atoms: C_32  and  C_35
REMARK                            x       y       z     vdW  Elec       q    Type
REMARK                         _______ _______ _______ _____ _____    ______ ____
ROOT
ATOM      1  C   UNL     1      -2.796  -2.416   0.160  0.00  0.00    +0.080 C 
ATOM      2  C   UNL     1      -2.985  -3.731  -0.085  0.00  0.00    +0.041 C 
ATOM      3  N   UNL     1      -4.240  -4.249  -0.221  0.00  0.00    -0.254 N 
ATOM      4  C   UNL     1      -5.359  -3.520  -0.126  0.00  0.00    +0.307 C 
ATOM      5  O   UNL     1      -6.434  -4.072  -0.262  0.00  0.00    -0.252 OA
ATOM      6  N   UNL     1      -5.333  -2.194   0.115  0.00  0.00    -0.288 N 
ATOM      7  C   UNL     1      -4.025  -1.538   0.284  0.00  0.00    +0.144 C 
ATOM      8  H   UNL     1      -6.156  -1.685   0.179  0.00  0.00    +0.151 HD
ENDROOT
BRANCH   7   9
ATOM      9  C   UNL     1      -3.922  -0.446  -0.749  0.00  0.00    -0.022 A 
ATOM     10  C   UNL     1      -4.263  -0.703  -2.064  0.00  0.00    +0.006 A 
ATOM     11  C   UNL     1      -4.169   0.299  -3.011  0.00  0.00    +0.004 A 
ATOM     12  C   UNL     1      -3.733   1.559  -2.644  0.00  0.00    -0.042 A 
ATOM     13  C   UNL     1      -3.392   1.816  -1.329  0.00  0.00    +0.004 A 
ATOM     14  C   UNL     1      -3.491   0.815  -0.381  0.00  0.00    +0.006 A 
BRANCH  12  15
ATOM     15  C   UNL     1      -3.629   2.651  -3.677  0.00  0.00    -0.013 C 
ATOM     16  C   UNL     1      -5.006   2.902  -4.294  0.00  0.00    +0.015 C 
ATOM     17  C   UNL     1      -3.126   3.934  -3.013  0.00  0.00    +0.015 C 
ATOM     18  C   UNL     1      -2.649   2.225  -4.772  0.00  0.00    +0.015 C 
ENDBRANCH  12  15
ENDBRANCH   7   9
BRANCH   1  19
ATOM     19  C   UNL     1      -1.496  -1.877   0.301  0.00  0.00    +0.339 C 
ATOM     20  O   UNL     1      -1.054  -1.637   1.409  0.00  0.00    -0.245 OA
BRANCH  19  21
ATOM     21  O   UNL     1      -0.745  -1.630  -0.792  0.00  0.00    -0.462 OA
BRANCH  21  23
ATOM     22  C   UNL     1       1.254  -0.876  -1.922  0.00  0.00    +0.048 C 
ATOM     23  C   UNL     1       0.558  -1.086  -0.575  0.00  0.00    +0.229 C 
ENDBRANCH  21  23
ENDBRANCH  19  21
ENDBRANCH   1  19
BRANCH   3  24
ATOM     24  C   UNL     1      -4.371  -5.684  -0.485  0.00  0.00    +0.141 C 
BRANCH  24  25
ATOM     25  C   UNL     1      -4.462  -6.430   0.822  0.00  0.00    -0.015 C 
ATOM     26  C   UNL     1      -5.475  -7.229   1.051  0.00  0.00    +0.005 C 
ENDBRANCH  24  25
ENDBRANCH   3  24
BRANCH   2  27
ATOM     27  C   UNL     1      -1.789  -4.640  -0.210  0.00  0.00    +0.136 C 
BRANCH  27  28
ATOM     28  N   UNL     1      -1.770  -5.582   0.917  0.00  0.00    -0.300 NA
ATOM     29  C   UNL     1      -1.537  -4.880   2.187  0.00  0.00    +0.066 C 
ATOM     30  C   UNL     1      -1.584  -5.886   3.339  0.00  0.00    -0.067 C 
ATOM     31  N   UNL     1      -0.556  -6.915   3.133  0.00  0.00    +0.382 N 
ATOM     32  C   UNL     1      -0.817  -7.624   1.873  0.00  0.00    -0.061 C 
ATOM     33  C   UNL     1      -0.764  -6.632   0.709  0.00  0.00    +0.069 C 
ATOM     34  C   UNL     1       0.244  -8.708   1.669  0.00  0.00    -0.012 C 
ATOM     35  H   UNL     1       0.352  -6.479   3.091  0.00  0.00    -0.085 HD
ATOM     36  H   UNL     1      -0.580  -7.571   3.899  0.00  0.00    -0.085 HD
ENDBRANCH  27  28
ENDBRANCH   2  27
TORSDOF 9
