REMARK  Name = ZINC12002189
REMARK  12 active torsions:
REMARK  status: ('A' for Active; 'I' for Inactive)
REMARK    1  A    between atoms: C_1  and  C_2
REMARK    2  A    between atoms: C_2  and  C_3
REMARK    3  A    between atoms: C_3  and  C_5
REMARK    4  A    between atoms: C_3  and  C_6
REMARK    5  A    between atoms: C_6  and  C_8
REMARK    6  A    between atoms: C_6  and  N_27
REMARK    7  A    between atoms: C_8  and  O_10
REMARK    8  A    between atoms: O_10  and  C_11
REMARK    9  A    between atoms: C_11  and  C_12
REMARK   10  A    between atoms: N_14  and  C_15
REMARK   11  A    between atoms: C_20  and  N_21
REMARK   12  A    between atoms: C_28  and  C_30
REMARK                            x       y       z     vdW  Elec       q    Type
REMARK                         _______ _______ _______ _____ _____    ______ ____
ROOT
ATOM      1  C   UNL     1       3.771  -4.760   0.508  0.00  0.00    +0.328 C 
ATOM      2  O   UNL     1       4.594  -3.962   0.888  0.00  0.00    -0.249 OA
ENDROOT
BRANCH   1   3
ATOM      3  C   UNL     1       2.471  -4.279  -0.083  0.00  0.00    +0.185 C 
BRANCH   3   4
ATOM      4  N   UNL     1       2.449  -2.814  -0.087  0.00  0.00    -0.298 N 
ATOM      5  C   UNL     1       1.271  -2.158  -0.079  0.00  0.00    +0.245 C 
ATOM      6  O   UNL     1       0.228  -2.782  -0.070  0.00  0.00    -0.270 OA
ATOM      7  H   UNL     1       3.281  -2.317  -0.094  0.00  0.00    +0.150 HD
BRANCH   5   8
ATOM      8  C   UNL     1       1.249  -0.681  -0.082  0.00  0.00    +0.037 A 
ATOM      9  C   UNL     1       0.031   0.002  -0.075  0.00  0.00    +0.014 A 
ATOM     10  C   UNL     1       0.016   1.381  -0.077  0.00  0.00    +0.021 A 
ATOM     11  C   UNL     1       1.206   2.089  -0.088  0.00  0.00    +0.041 A 
ATOM     12  C   UNL     1       2.418   1.417  -0.096  0.00  0.00    +0.021 A 
ATOM     13  C   UNL     1       2.445   0.038  -0.093  0.00  0.00    +0.014 A 
ATOM     14 CL   UNL     1       1.180   3.824  -0.092  0.00  0.00    -0.084 Cl
ENDBRANCH   5   8
ENDBRANCH   3   4
BRANCH   3  15
ATOM     15  C   UNL     1       2.342  -4.795  -1.518  0.00  0.00    +0.017 C 
ATOM     16  C   UNL     1       1.022  -4.306  -2.119  0.00  0.00    +0.010 C 
BRANCH  15  18
ATOM     17  C   UNL     1       3.450  -4.883  -3.756  0.00  0.00    +0.004 C 
ATOM     18  C   UNL     1       3.509  -4.269  -2.356  0.00  0.00    +0.002 C 
ENDBRANCH  15  18
ENDBRANCH   3  15
ENDBRANCH   1   3
BRANCH   1  19
ATOM     19  O   UNL     1       4.014  -6.076   0.613  0.00  0.00    -0.454 OA
BRANCH  19  20
ATOM     20  C   UNL     1       5.286  -6.467   1.193  0.00  0.00    +0.328 C 
BRANCH  20  21
ATOM     21  C   UNL     1       5.381  -7.971   1.229  0.00  0.00    +0.255 C 
ATOM     22  O   UNL     1       4.466  -8.646   0.808  0.00  0.00    -0.272 OA
ATOM     23  N   UNL     1       6.482  -8.565   1.730  0.00  0.00    -0.281 N 
ATOM     24  H   UNL     1       7.240  -8.027   2.006  0.00  0.00    +0.155 HD
BRANCH  23  25
ATOM     25  C   UNL     1       6.533  -9.960   1.850  0.00  0.00    +0.055 A 
ATOM     26  C   UNL     1       5.908 -10.762   0.906  0.00  0.00    +0.025 A 
ATOM     27  C   UNL     1       5.963 -12.138   1.025  0.00  0.00    +0.002 A 
ATOM     28  C   UNL     1       6.631 -12.719   2.087  0.00  0.00    +0.002 A 
ATOM     29  C   UNL     1       7.252 -11.927   3.034  0.00  0.00    +0.025 A 
ATOM     30  C   UNL     1       7.206 -10.545   2.921  0.00  0.00    +0.057 A 
BRANCH  30  31
ATOM     31  N   UNL     1       7.834  -9.741   3.880  0.00  0.00    -0.270 N 
ATOM     32  C   UNL     1       7.183  -9.241   5.097  0.00  0.00    +0.114 C 
ATOM     33  C   UNL     1       8.336  -8.801   6.029  0.00  0.00    +0.029 C 
ATOM     34  C   UNL     1       9.457  -8.483   5.011  0.00  0.00    +0.098 C 
ATOM     35  C   UNL     1       9.109  -9.322   3.802  0.00  0.00    +0.220 C 
ATOM     36  O   UNL     1       9.871  -9.581   2.894  0.00  0.00    -0.275 OA
ENDBRANCH  30  31
ENDBRANCH  23  25
ENDBRANCH  20  21
ENDBRANCH  19  20
ENDBRANCH   1  19
TORSDOF 10
