REMARK  Name = ZINC35628619
REMARK  6 active torsions:
REMARK  status: ('A' for Active; 'I' for Inactive)
REMARK    1  A    between atoms: C_1  and  C_2
REMARK    2  A    between atoms: C_5  and  O_22
REMARK    3  A    between atoms: C_6  and  C_8
REMARK    4  A    between atoms: C_8  and  C_10
REMARK    5  A    between atoms: C_8  and  N_11
REMARK    6  A    between atoms: N_11  and  C_12
REMARK                            x       y       z     vdW  Elec       q    Type
REMARK                         _______ _______ _______ _____ _____    ______ ____
ROOT
ATOM      1  N   UNL     1      -0.537  -2.013   3.548  0.00  0.00    -0.337 N 
ATOM      2  H   UNL     1      -0.529  -1.046   3.468  0.00  0.00    +0.147 HD
ENDROOT
BRANCH   1   3
ATOM      3  C   UNL     1      -1.112  -2.616   4.672  0.00  0.00    +0.031 A 
ATOM      4  C   UNL     1      -1.119  -4.000   4.791  0.00  0.00    +0.027 A 
ATOM      5  C   UNL     1      -1.688  -4.596   5.900  0.00  0.00    +0.051 A 
ATOM      6  C   UNL     1      -2.252  -3.816   6.898  0.00  0.00    +0.162 A 
ATOM      7  C   UNL     1      -2.244  -2.431   6.783  0.00  0.00    +0.164 A 
ATOM      8  C   UNL     1      -1.671  -1.833   5.672  0.00  0.00    +0.072 A 
ATOM      9  O   UNL     1      -2.787  -1.649   7.756  0.00  0.00    -0.485 OA
ATOM     10  C   UNL     1      -3.677  -2.289   8.676  0.00  0.00    +0.270 C 
ATOM     11  C   UNL     1      -3.030  -3.603   9.136  0.00  0.00    +0.270 C 
ATOM     12  O   UNL     1      -2.811  -4.422   7.982  0.00  0.00    -0.485 OA
ENDBRANCH   1   3
BRANCH   1  13
ATOM     13  C   UNL     1       0.052  -2.841   2.493  0.00  0.00    +0.101 C 
ATOM     14  C   UNL     1       1.496  -3.187   2.864  0.00  0.00    +0.033 C 
BRANCH  13  20
ATOM     15  C   UNL     1      -0.018   1.503   0.010  0.00  0.00    +0.044 C 
ATOM     16  C   UNL     1       0.002  -0.004   0.002  0.00  0.00    -0.050 A 
ATOM     17  C   UNL     1       0.006  -0.688  -1.200  0.00  0.00    +0.007 A 
ATOM     18  C   UNL     1       0.024  -2.069  -1.210  0.00  0.00    +0.046 A 
ATOM     19  C   UNL     1       0.039  -2.770  -0.013  0.00  0.00    +0.122 A 
ATOM     20  C   UNL     1       0.036  -2.082   1.191  0.00  0.00    +0.014 A 
ATOM     21  C   UNL     1       0.023  -0.701   1.196  0.00  0.00    +0.012 A 
BRANCH  19  22
ATOM     22  O   UNL     1       0.057  -4.129  -0.021  0.00  0.00    -0.506 OA
ATOM     23  H   UNL     1       0.945  -4.511  -0.027  0.00  0.00    +0.292 HD
ENDBRANCH  19  22
ENDBRANCH  13  20
ENDBRANCH   1  13
TORSDOF 4
