REMARK  Name = ZINC39608098
REMARK  9 active torsions:
REMARK  status: ('A' for Active; 'I' for Inactive)
REMARK    1  A    between atoms: C_1  and  C_2
REMARK    2  A    between atoms: C_2  and  C_4
REMARK    3  A    between atoms: C_2  and  N_7
REMARK    4  A    between atoms: C_4  and  C_5
REMARK    5  A    between atoms: C_4  and  C_6
REMARK    6  A    between atoms: C_8  and  C_10
REMARK    7  A    between atoms: C_21  and  C_23
REMARK    8  A    between atoms: C_23  and  O_24
REMARK    9  A    between atoms: O_24  and  C_25
REMARK                            x       y       z     vdW  Elec       q    Type
REMARK                         _______ _______ _______ _____ _____    ______ ____
ROOT
ATOM      1  C   UNL     1       0.712  -1.094  -3.598  0.00  0.00    +0.100 C 
ATOM      2  C   UNL     1       1.732  -0.041  -4.085  0.00  0.00    +0.121 C 
ATOM      3  N   UNL     1       1.653  -0.098  -5.564  0.00  0.00    -0.297 N 
ATOM      4  C   UNL     1       0.209  -0.272  -5.849  0.00  0.00    +0.115 C 
ATOM      5  C   UNL     1      -0.287  -1.243  -4.759  0.00  0.00    -0.004 C 
ATOM      6  C   UNL     1      -1.689  -0.852  -4.303  0.00  0.00    -0.010 C 
ATOM      7  C   UNL     1      -2.674  -1.064  -5.457  0.00  0.00    -0.082 C 
ATOM      8  N   UNL     1      -2.647  -2.471  -5.873  0.00  0.00    +0.379 N 
ATOM      9  C   UNL     1      -1.320  -2.813  -6.397  0.00  0.00    -0.082 C 
ATOM     10  C   UNL     1      -0.278  -2.676  -5.283  0.00  0.00    -0.010 C 
ATOM     11  C   UNL     1       2.666  -0.012  -6.449  0.00  0.00    +0.253 C 
ATOM     12  O   UNL     1       2.439  -0.077  -7.638  0.00  0.00    -0.272 OA
ATOM     13  H   UNL     1      -2.856  -3.059  -5.080  0.00  0.00    -0.086 HD
ATOM     14  H   UNL     1      -3.340  -2.621  -6.591  0.00  0.00    -0.086 HD
ENDROOT
BRANCH   1  16
ATOM     15  N   UNL     1      -0.447  -1.494  -1.450  0.00  0.00    -0.312 N 
ATOM     16  C   UNL     1       0.006  -0.608  -2.358  0.00  0.00    +0.218 C 
ATOM     17  O   UNL     1      -0.154   0.581  -2.179  0.00  0.00    -0.275 OA
ATOM     18  H   UNL     1      -0.319  -2.445  -1.594  0.00  0.00    +0.149 HD
BRANCH  15  20
ATOM     19  C   UNL     1      -0.098  -0.674   0.828  0.00  0.00    +0.028 C 
ATOM     20  C   UNL     1      -1.133  -1.022  -0.244  0.00  0.00    +0.072 C 
BRANCH  20  21
ATOM     21  C   UNL     1      -2.059  -2.121   0.279  0.00  0.00    +0.003 C 
ATOM     22  C   UNL     1      -2.775  -1.628   1.538  0.00  0.00    +0.009 C 
ATOM     23  C   UNL     1      -3.094  -2.469  -0.793  0.00  0.00    +0.009 C 
ENDBRANCH  20  21
ENDBRANCH  15  20
ENDBRANCH   1  16
BRANCH  11  24
ATOM     24  C   UNL     1       4.080   0.164  -5.960  0.00  0.00    +0.324 C 
BRANCH  24  25
ATOM     25  O   UNL     1       4.966   0.228  -7.080  0.00  0.00    -0.483 OA
BRANCH  25  26
ATOM     26  C   UNL     1       6.289   0.387  -6.811  0.00  0.00    +0.123 A 
ATOM     27  C   UNL     1       6.726   0.474  -5.497  0.00  0.00    +0.046 A 
ATOM     28  C   UNL     1       8.071   0.634  -5.226  0.00  0.00    +0.005 A 
ATOM     29  C   UNL     1       8.982   0.709  -6.263  0.00  0.00    +0.020 A 
ATOM     30  C   UNL     1       8.550   0.624  -7.574  0.00  0.00    +0.044 A 
ATOM     31  C   UNL     1       7.205   0.457  -7.850  0.00  0.00    +0.065 A 
ATOM     32 CL   UNL     1       9.697   0.719  -8.874  0.00  0.00    -0.083 Cl
ENDBRANCH  25  26
ENDBRANCH  24  25
ENDBRANCH  11  24
TORSDOF 6
