REMARK  Name = ZINC09358350
REMARK  1 active torsions:
REMARK  status: ('A' for Active; 'I' for Inactive)
REMARK    1  A    between atoms: N_30  and  C_33
REMARK                            x       y       z     vdW  Elec       q    Type
REMARK                         _______ _______ _______ _____ _____    ______ ____
ROOT
ATOM      1  C   UNL     1       8.449   7.426  -0.072  0.00  0.00    +0.000 A 
ATOM      2  C   UNL     1       7.290   8.163  -0.223  0.00  0.00    +0.000 A 
ATOM      3  C   UNL     1       6.076   7.517  -0.344  0.00  0.00    +0.006 A 
ATOM      4  C   UNL     1       6.014   6.132  -0.314  0.00  0.00    -0.022 A 
ATOM      5  C   UNL     1       7.170   5.395  -0.158  0.00  0.00    -0.041 A 
ATOM      6  C   UNL     1       8.388   6.047  -0.040  0.00  0.00    +0.004 A 
ATOM      7  C   UNL     1       7.154   3.889  -0.109  0.00  0.00    +0.054 C 
ATOM      8  C   UNL     1       5.816   3.350  -0.618  0.00  0.00    +0.112 C 
ATOM      9  N   UNL     1       4.736   4.092   0.043  0.00  0.00    -0.307 N 
ATOM     10  C   UNL     1       4.674   5.464  -0.455  0.00  0.00    +0.129 C 
ATOM     11  C   UNL     1       3.608   6.226   0.337  0.00  0.00    +0.150 C 
ATOM     12  C   UNL     1       2.244   5.631  -0.028  0.00  0.00    +0.072 C 
ATOM     13  C   UNL     1       2.318   4.127  -0.015  0.00  0.00    +0.057 A 
ATOM     14  C   UNL     1       3.526   3.442   0.000  0.00  0.00    +0.109 A 
ATOM     15  N   UNL     1       3.519   2.105  -0.009  0.00  0.00    -0.329 N 
ATOM     16  C   UNL     1       2.385   1.413  -0.022  0.00  0.00    +0.119 A 
ATOM     17  C   UNL     1       2.428   0.006  -0.032  0.00  0.00    +0.045 A 
ATOM     18  C   UNL     1       1.263  -0.700  -0.039  0.00  0.00    +0.005 A 
ATOM     19  C   UNL     1       0.039  -0.017  -0.036  0.00  0.00    +0.018 A 
ATOM     20  C   UNL     1       0.016   1.335  -0.029  0.00  0.00    +0.096 A 
ATOM     21  N   UNL     1       1.175   2.051  -0.024  0.00  0.00    -0.269 N 
ATOM     22  C   UNL     1       1.127   3.398  -0.024  0.00  0.00    +0.263 A 
ATOM     23  O   UNL     1       0.051   3.977  -0.032  0.00  0.00    -0.267 OA
ATOM     24  C   UNL     1       3.854   6.055   1.809  0.00  0.00    +0.238 C 
ATOM     25  O   UNL     1       3.863   4.937   2.278  0.00  0.00    -0.274 OA
ATOM     26  N   UNL     1       4.062   7.103   2.618  0.00  0.00    -0.239 N 
ATOM     27  C   UNL     1       4.067   8.364   2.159  0.00  0.00    +0.315 C 
ATOM     28  O   UNL     1       4.261   9.276   2.938  0.00  0.00    -0.252 OA
ATOM     29  N   UNL     1       3.864   8.642   0.863  0.00  0.00    -0.222 N 
ATOM     30  C   UNL     1       3.640   7.679  -0.042  0.00  0.00    +0.241 C 
ATOM     31  O   UNL     1       3.460   7.989  -1.200  0.00  0.00    -0.274 OA
ATOM     32  H   UNL     1       4.235   6.942   3.693  0.00  0.00    +0.159 HD
ATOM     33  H   UNL     1       4.469   1.550  -0.005  0.00  0.00    +0.168 HD
ENDROOT
BRANCH  29  34
ATOM     34  C   UNL     1       3.885  10.040   0.424  0.00  0.00    +0.086 C 
ATOM     35  C   UNL     1       5.212  10.683   0.835  0.00  0.00    +0.023 C 
ATOM     36  C   UNL     1       5.235  12.142   0.376  0.00  0.00    +0.002 C 
ATOM     37  C   UNL     1       4.077  12.900   1.029  0.00  0.00    +0.000 C 
ATOM     38  C   UNL     1       2.751  12.257   0.618  0.00  0.00    +0.002 C 
ATOM     39  C   UNL     1       2.728  10.798   1.077  0.00  0.00    +0.023 C 
ENDBRANCH  29  34
TORSDOF 1
