REMARK  Name = ZINC10068095
REMARK  13 active torsions:
REMARK  status: ('A' for Active; 'I' for Inactive)
REMARK    1  A    between atoms: C_1  and  N_60
REMARK    2  A    between atoms: C_2  and  N_60
REMARK    3  A    between atoms: C_3  and  C_4
REMARK    4  A    between atoms: C_3  and  N_60
REMARK    5  A    between atoms: C_4  and  C_5
REMARK    6  A    between atoms: C_5  and  N_6
REMARK    7  A    between atoms: C_19  and  C_21
REMARK    8  A    between atoms: C_23  and  O_31
REMARK    9  A    between atoms: C_24  and  O_29
REMARK   10  A    between atoms: C_25  and  O_27
REMARK   11  A    between atoms: O_27  and  C_28
REMARK   12  A    between atoms: O_29  and  C_30
REMARK   13  A    between atoms: O_31  and  C_32
REMARK                            x       y       z     vdW  Elec       q    Type
REMARK                         _______ _______ _______ _____ _____    ______ ____
ROOT
ATOM      1  N   UNL     1       2.187  -2.600   0.067  0.00  0.00    -0.246 N 
ATOM      2  C   UNL     1       2.118  -3.970   0.260  0.00  0.00    +0.168 A 
ATOM      3  N   UNL     1       3.081  -4.859   0.199  0.00  0.00    -0.224 NA
ATOM      4  C   UNL     1       2.869  -6.176   0.416  0.00  0.00    +0.084 A 
ATOM      5  C   UNL     1       3.815  -7.227   0.384  0.00  0.00    +0.078 A 
ATOM      6  C   UNL     1       3.436  -8.528   0.623  0.00  0.00    +0.168 A 
ATOM      7  C   UNL     1       2.104  -8.847   0.903  0.00  0.00    +0.167 A 
ATOM      8  C   UNL     1       1.156  -7.840   0.941  0.00  0.00    +0.066 A 
ATOM      9  C   UNL     1       1.535  -6.541   0.703  0.00  0.00    +0.044 A 
ATOM     10  S   UNL     1       0.694  -4.977   0.648  0.00  0.00    -0.052 S 
ATOM     11  O   UNL     1       2.006 -10.194   1.095  0.00  0.00    -0.453 OA
ATOM     12  C   UNL     1       3.207 -10.751   0.530  0.00  0.00    +0.466 C 
ATOM     13  O   UNL     1       4.167  -9.684   0.644  0.00  0.00    -0.453 OA
ATOM     14  C   UNL     1       1.072  -1.849   0.167  0.00  0.00    +0.253 C 
ATOM     15  O   UNL     1      -0.004  -2.380   0.361  0.00  0.00    -0.270 OA
ENDROOT
BRANCH  14  16
ATOM     16  C   UNL     1       1.158  -0.381   0.042  0.00  0.00    +0.044 A 
ATOM     17  C   UNL     1       0.561   0.440   1.003  0.00  0.00    +0.062 A 
ATOM     18  C   UNL     1       0.644   1.814   0.883  0.00  0.00    +0.166 A 
ATOM     19  C   UNL     1       1.321   2.381  -0.193  0.00  0.00    +0.204 A 
ATOM     20  C   UNL     1       1.916   1.566  -1.152  0.00  0.00    +0.166 A 
ATOM     21  C   UNL     1       1.837   0.191  -1.037  0.00  0.00    +0.062 A 
BRANCH  20  22
ATOM     22  O   UNL     1       2.576   2.123  -2.202  0.00  0.00    -0.491 OA
ATOM     23  C   UNL     1       3.067   1.233  -3.206  0.00  0.00    +0.277 C 
ENDBRANCH  20  22
BRANCH  19  24
ATOM     24  O   UNL     1       1.400   3.733  -0.309  0.00  0.00    -0.488 OA
ATOM     25  C   UNL     1       2.517   4.373   0.312  0.00  0.00    +0.277 C 
ENDBRANCH  19  24
BRANCH  18  26
ATOM     26  O   UNL     1       0.058   2.614   1.815  0.00  0.00    -0.491 OA
ATOM     27  C   UNL     1      -0.625   1.965   2.889  0.00  0.00    +0.277 C 
ENDBRANCH  18  26
ENDBRANCH  14  16
BRANCH   1  28
ATOM     28  C   UNL     1       3.471  -1.968  -0.246  0.00  0.00    +0.114 C 
BRANCH  28  29
ATOM     29  C   UNL     1       4.232  -1.690   1.051  0.00  0.00    +0.001 C 
BRANCH  29  30
ATOM     30  C   UNL     1       5.516  -0.920   0.734  0.00  0.00    -0.078 C 
BRANCH  30  33
ATOM     31  C   UNL     1       7.653  -0.251   1.655  0.00  0.00    -0.097 C 
ATOM     32  C   UNL     1       5.625   0.083   2.936  0.00  0.00    -0.097 C 
ATOM     33  N   UNL     1       6.316  -0.798   1.971  0.00  0.00    +0.376 N 
ATOM     34  H   UNL     1       6.428  -1.729   2.389  0.00  0.00    -0.083 HD
ENDBRANCH  30  33
ENDBRANCH  29  30
ENDBRANCH  28  29
ENDBRANCH   1  28
TORSDOF 8
