REMARK  Name = ZINC35777338
REMARK  17 active torsions:
REMARK  status: ('A' for Active; 'I' for Inactive)
REMARK    1  A    between atoms: C_1  and  C_2
REMARK    2  A    between atoms: C_3  and  C_22
REMARK    3  A    between atoms: C_4  and  O_13
REMARK    4  A    between atoms: N_5  and  C_7
REMARK    5  A    between atoms: O_13  and  C_14
REMARK    6  A    between atoms: C_19  and  O_20
REMARK    7  A    between atoms: O_20  and  C_21
REMARK    8  A    between atoms: C_22  and  N_23
REMARK    9  A    between atoms: N_23  and  C_24
REMARK   10  A    between atoms: N_23  and  C_28
REMARK   11  A    between atoms: C_24  and  C_25
REMARK   12  A    between atoms: C_28  and  C_29
REMARK   13  A    between atoms: C_29  and  C_31
REMARK   14  A    between atoms: C_29  and  O_39
REMARK   15  A    between atoms: C_31  and  O_32
REMARK   16  A    between atoms: O_32  and  C_33
REMARK   17  A    between atoms: C_33  and  C_34
REMARK                            x       y       z     vdW  Elec       q    Type
REMARK                         _______ _______ _______ _____ _____    ______ ____
ROOT
ATOM      1  C   UNL     1       1.112   1.479   0.229  0.00  0.00    +0.068 C 
ATOM      2  C   UNL     1       0.719   0.025   0.242  0.00  0.00    +0.065 A 
ATOM      3  C   UNL     1       0.271  -0.711  -0.859  0.00  0.00    +0.021 A 
ATOM      4  C   UNL     1       0.021  -1.980  -0.439  0.00  0.00    +0.225 A 
ATOM      5  N   UNL     1       0.305  -2.035   0.890  0.00  0.00    -0.200 N 
ATOM      6  N   UNL     1       0.746  -0.765   1.285  0.00  0.00    -0.168 NA
ENDROOT
BRANCH   5   7
ATOM      7  C   UNL     1       0.184  -3.162   1.715  0.00  0.00    +0.069 A 
ATOM      8  C   UNL     1      -0.928  -3.986   1.608  0.00  0.00    +0.028 A 
ATOM      9  C   UNL     1      -1.044  -5.096   2.422  0.00  0.00    +0.002 A 
ATOM     10  C   UNL     1      -0.054  -5.386   3.343  0.00  0.00    +0.000 A 
ATOM     11  C   UNL     1       1.055  -4.567   3.452  0.00  0.00    +0.002 A 
ATOM     12  C   UNL     1       1.179  -3.459   2.636  0.00  0.00    +0.028 A 
ENDBRANCH   5   7
BRANCH   4  13
ATOM     13  O   UNL     1      -0.431  -3.005  -1.206  0.00  0.00    -0.434 OA
BRANCH  13  14
ATOM     14  C   UNL     1      -1.774  -3.133  -1.375  0.00  0.00    +0.172 A 
ATOM     15  C   UNL     1      -2.632  -2.170  -0.866  0.00  0.00    +0.050 A 
ATOM     16  C   UNL     1      -3.998  -2.301  -1.039  0.00  0.00    +0.004 A 
ATOM     17  C   UNL     1      -4.510  -3.391  -1.718  0.00  0.00    +0.004 A 
ATOM     18  C   UNL     1      -3.660  -4.355  -2.228  0.00  0.00    +0.049 A 
ATOM     19  C   UNL     1      -2.290  -4.227  -2.063  0.00  0.00    +0.162 A 
BRANCH  19  20
ATOM     20  O   UNL     1      -1.452  -5.171  -2.568  0.00  0.00    -0.491 OA
ATOM     21  C   UNL     1      -2.052  -6.266  -3.263  0.00  0.00    +0.277 C 
ENDBRANCH  19  20
ENDBRANCH  13  14
ENDBRANCH   4  13
BRANCH   3  22
ATOM     22  C   UNL     1       0.095  -0.190  -2.262  0.00  0.00    -0.036 C 
BRANCH  22  23
ATOM     23  N   UNL     1       1.380  -0.250  -2.971  0.00  0.00    +0.384 N 
ATOM     24  H   UNL     1       2.082   0.242  -2.438  0.00  0.00    -0.081 HD
BRANCH  23  25
ATOM     25  C   UNL     1       1.240   0.375  -4.293  0.00  0.00    -0.075 C 
BRANCH  25  26
ATOM     26  C   UNL     1       0.955   1.869  -4.122  0.00  0.00    -0.028 C 
ATOM     27  C   UNL     1      -0.382   2.397  -4.645  0.00  0.00    +0.002 C 
ATOM     28  C   UNL     1       0.914   2.729  -5.386  0.00  0.00    +0.002 C 
ENDBRANCH  25  26
ENDBRANCH  23  25
BRANCH  23  29
ATOM     29  C   UNL     1       1.784  -1.653  -3.134  0.00  0.00    -0.044 C 
BRANCH  29  30
ATOM     30  C   UNL     1       3.179  -1.713  -3.760  0.00  0.00    +0.124 C 
BRANCH  30  31
ATOM     31  O   UNL     1       4.131  -1.148  -2.857  0.00  0.00    -0.391 OA
ATOM     32  H   UNL     1       4.182  -1.601  -2.004  0.00  0.00    +0.210 HD
ENDBRANCH  30  31
BRANCH  30  33
ATOM     33  C   UNL     1       3.549  -3.170  -4.045  0.00  0.00    +0.189 C 
BRANCH  33  34
ATOM     34  O   UNL     1       4.799  -3.218  -4.734  0.00  0.00    -0.370 OA
BRANCH  34  35
ATOM     35  C   UNL     1       5.238  -4.541  -5.050  0.00  0.00    +0.234 C 
BRANCH  35  36
ATOM     36  C   UNL     1       6.559  -4.473  -5.772  0.00  0.00    +0.130 A 
ATOM     37  C   UNL     1       7.774  -4.497  -5.194  0.00  0.00    +0.047 A 
ATOM     38  C   UNL     1       8.725  -4.412  -6.236  0.00  0.00    +0.041 A 
ATOM     39  C   UNL     1       8.035  -4.341  -7.389  0.00  0.00    +0.195 A 
ATOM     40  O   UNL     1       6.724  -4.385  -7.102  0.00  0.00    -0.465 OA
ENDBRANCH  35  36
ENDBRANCH  34  35
ENDBRANCH  33  34
ENDBRANCH  30  33
ENDBRANCH  29  30
ENDBRANCH  23  29
ENDBRANCH  22  23
ENDBRANCH   3  22
TORSDOF 15
