REMARK  Name = ZINC62049009
REMARK  12 active torsions:
REMARK  status: ('A' for Active; 'I' for Inactive)
REMARK    1  A    between atoms: C_1  and  C_2
REMARK    2  A    between atoms: C_6  and  C_11
REMARK    3  A    between atoms: C_14  and  O_17
REMARK    4  A    between atoms: O_17  and  C_18
REMARK    5  A    between atoms: N_19  and  C_20
REMARK    6  A    between atoms: C_20  and  C_21
REMARK    7  A    between atoms: C_21  and  C_23
REMARK    8  A    between atoms: C_21  and  N_31
REMARK    9  A    between atoms: C_26  and  O_29
REMARK   10  A    between atoms: O_29  and  C_30
REMARK   11  A    between atoms: N_31  and  C_32
REMARK   12  A    between atoms: N_31  and  C_33
REMARK                            x       y       z     vdW  Elec       q    Type
REMARK                         _______ _______ _______ _____ _____    ______ ____
ROOT
ATOM      1  C   UNL     1       2.399   1.955  -0.090  0.00  0.00    +0.088 C 
ATOM      2  C   UNL     1       1.976   0.521   0.097  0.00  0.00    +0.129 A 
ATOM      3  N   UNL     1       1.746  -0.229  -0.966  0.00  0.00    -0.217 NA
ATOM      4  C   UNL     1       1.373  -1.495  -0.867  0.00  0.00    +0.131 A 
ATOM      5  C   UNL     1       1.214  -2.072   0.421  0.00  0.00    +0.055 A 
ATOM      6  C   UNL     1       0.818  -3.426   0.792  0.00  0.00    +0.002 A 
ATOM      7  C   UNL     1       0.735  -3.744   2.105  0.00  0.00    +0.056 A 
ATOM      8  S   UNL     1       1.188  -2.230   2.929  0.00  0.00    -0.076 S 
ATOM      9  C   UNL     1       1.477  -1.212   1.507  0.00  0.00    +0.114 A 
ATOM     10  N   UNL     1       1.850   0.040   1.318  0.00  0.00    -0.225 NA
ATOM     11  N   UNL     1       1.141  -2.247  -2.005  0.00  0.00    -0.330 N 
ATOM     12  H   UNL     1       0.955  -3.196  -1.929  0.00  0.00    +0.147 HD
ENDROOT
BRANCH   6  13
ATOM     13  C   UNL     1       0.511  -4.435  -0.250  0.00  0.00    -0.016 A 
ATOM     14  C   UNL     1      -0.507  -4.199  -1.173  0.00  0.00    +0.012 A 
ATOM     15  C   UNL     1      -0.789  -5.139  -2.142  0.00  0.00    +0.046 A 
ATOM     16  C   UNL     1      -0.062  -6.320  -2.197  0.00  0.00    +0.120 A 
ATOM     17  C   UNL     1       0.951  -6.559  -1.279  0.00  0.00    +0.046 A 
ATOM     18  C   UNL     1       1.243  -5.620  -0.312  0.00  0.00    +0.012 A 
BRANCH  16  19
ATOM     19  O   UNL     1      -0.344  -7.245  -3.153  0.00  0.00    -0.495 OA
ATOM     20  C   UNL     1       0.443  -8.438  -3.153  0.00  0.00    +0.277 C 
ENDBRANCH  16  19
ENDBRANCH   6  13
BRANCH  11  21
ATOM     21  C   UNL     1       1.178  -1.611  -3.324  0.00  0.00    +0.092 C 
BRANCH  21  22
ATOM     22  C   UNL     1       2.620  -1.578  -3.834  0.00  0.00    -0.021 C 
BRANCH  22  23
ATOM     23  C   UNL     1       3.097  -2.986  -4.082  0.00  0.00    -0.059 A 
ATOM     24  C   UNL     1       2.741  -3.640  -5.247  0.00  0.00    +0.005 A 
ATOM     25  C   UNL     1       3.177  -4.931  -5.476  0.00  0.00    +0.046 A 
ATOM     26  C   UNL     1       3.973  -5.571  -4.537  0.00  0.00    +0.120 A 
ATOM     27  C   UNL     1       4.329  -4.912  -3.369  0.00  0.00    +0.046 A 
ATOM     28  C   UNL     1       3.895  -3.619  -3.147  0.00  0.00    +0.005 A 
BRANCH  26  29
ATOM     29  O   UNL     1       4.403  -6.840  -4.760  0.00  0.00    -0.495 OA
ATOM     30  C   UNL     1       5.219  -7.436  -3.749  0.00  0.00    +0.277 C 
ENDBRANCH  26  29
ENDBRANCH  22  23
BRANCH  22  31
ATOM     31  N   UNL     1       2.679  -0.814  -5.087  0.00  0.00    +0.382 N 
ATOM     32  C   UNL     1       2.216   0.559  -4.845  0.00  0.00    -0.096 C 
ATOM     33  C   UNL     1       4.063  -0.784  -5.578  0.00  0.00    -0.096 C 
ATOM     34  H   UNL     1       2.087  -1.252  -5.776  0.00  0.00    -0.082 HD
ENDBRANCH  22  31
ENDBRANCH  21  22
ENDBRANCH  11  21
TORSDOF 7
