REMARK  Name = ZINC24167469
REMARK  10 active torsions:
REMARK  status: ('A' for Active; 'I' for Inactive)
REMARK    1  A    between atoms: C_1  and  C_2
REMARK    2  A    between atoms: C_2  and  C_3
REMARK    3  A    between atoms: C_3  and  N_4
REMARK    4  A    between atoms: C_7  and  C_30
REMARK    5  A    between atoms: C_12  and  S_13
REMARK    6  A    between atoms: S_13  and  C_14
REMARK    7  A    between atoms: C_14  and  C_15
REMARK    8  A    between atoms: N_17  and  N_18
REMARK    9  A    between atoms: C_19  and  C_21
REMARK   10  A    between atoms: C_24  and  N_27
REMARK                            x       y       z     vdW  Elec       q    Type
REMARK                         _______ _______ _______ _____ _____    ______ ____
ROOT
ATOM      1  C   UNL     1       3.663  -6.372  -0.066  0.00  0.00    +0.174 C 
ENDROOT
BRANCH   1   2
ATOM      2  C   UNL     1       3.635  -4.865  -0.058  0.00  0.00    +0.239 C 
ATOM      3  O   UNL     1       4.673  -4.239  -0.065  0.00  0.00    -0.273 OA
ATOM      4  N   UNL     1       2.455  -4.213  -0.043  0.00  0.00    -0.233 N 
ATOM      5  H   UNL     1       1.513  -4.781  -0.037  0.00  0.00    +0.173 HD
BRANCH   4   6
ATOM      6  N   UNL     1       2.429  -2.812  -0.036  0.00  0.00    -0.230 N 
ATOM      7  C   UNL     1       1.250  -2.160  -0.021  0.00  0.00    +0.260 C 
ATOM      8  O   UNL     1       0.208  -2.788  -0.014  0.00  0.00    -0.269 OA
ATOM      9  H   UNL     1       3.371  -2.245  -0.042  0.00  0.00    +0.173 HD
BRANCH   7  10
ATOM     10  C   UNL     1       1.222  -0.682  -0.013  0.00  0.00    +0.038 A 
ATOM     11  C   UNL     1       0.002  -0.004   0.002  0.00  0.00    +0.015 A 
ATOM     12  C   UNL     1      -0.017   1.375   0.010  0.00  0.00    +0.033 A 
ATOM     13  C   UNL     1       1.170   2.086   0.002  0.00  0.00    +0.126 A 
ATOM     14  C   UNL     1       2.383   1.420  -0.013  0.00  0.00    +0.033 A 
ATOM     15  C   UNL     1       2.416   0.041  -0.021  0.00  0.00    +0.015 A 
BRANCH  13  16
ATOM     16  N   UNL     1       1.143   3.566   0.010  0.00  0.00    +0.056 N 
ATOM     17  O   UNL     1       0.077   4.155   0.024  0.00  0.00    -0.126 OA
ATOM     18  O   UNL     1       2.186   4.195   0.004  0.00  0.00    -0.126 OA
ENDBRANCH  13  16
ENDBRANCH   7  10
ENDBRANCH   4   6
ENDBRANCH   1   2
BRANCH   1  19
ATOM     19  S   UNL     1       5.380  -6.943  -0.085  0.00  0.00    -0.078 S 
BRANCH  19  28
ATOM     20  N   UNL     1       6.114  -9.626  -0.106  0.00  0.00    -0.319 N 
ATOM     21  C   UNL     1       5.501 -10.869  -0.106  0.00  0.00    +0.070 A 
ATOM     22  C   UNL     1       5.973 -12.173  -0.117  0.00  0.00    +0.040 A 
ATOM     23  C   UNL     1       5.081 -13.226  -0.113  0.00  0.00    +0.057 A 
ATOM     24  C   UNL     1       3.714 -12.989  -0.099  0.00  0.00    +0.014 A 
ATOM     25  C   UNL     1       3.228 -11.700  -0.087  0.00  0.00    +0.030 A 
ATOM     26  C   UNL     1       4.119 -10.623  -0.091  0.00  0.00    +0.090 A 
ATOM     27  N   UNL     1       3.952  -9.275  -0.077  0.00  0.00    -0.222 NA
ATOM     28  C   UNL     1       5.123  -8.686  -0.091  0.00  0.00    +0.170 A 
BRANCH  23  29
ATOM     29  C   UNL     1       5.595 -14.642  -0.126  0.00  0.00    +0.417 C 
ATOM     30  F   UNL     1       4.514 -15.530  -0.120  0.00  0.00    -0.166 F 
ATOM     31  F   UNL     1       6.362 -14.849  -1.277  0.00  0.00    -0.166 F 
ATOM     32  F   UNL     1       6.385 -14.862   1.007  0.00  0.00    -0.166 F 
ENDBRANCH  23  29
BRANCH  20  33
ATOM     33  C   UNL     1       7.556  -9.368  -0.119  0.00  0.00    +0.124 C 
BRANCH  33  35
ATOM     34  C   UNL     1       9.578  -9.016   1.306  0.00  0.00    +0.005 C 
ATOM     35  C   UNL     1       8.072  -9.285   1.319  0.00  0.00    +0.018 C 
ENDBRANCH  33  35
ENDBRANCH  20  33
ENDBRANCH  19  28
ENDBRANCH   1  19
TORSDOF 9
