REMARK  Name = ZINC06876818
REMARK  6 active torsions:
REMARK  status: ('A' for Active; 'I' for Inactive)
REMARK    1  A    between atoms: C_1  and  C_2
REMARK    2  A    between atoms: C_5  and  C_8
REMARK    3  A    between atoms: C_20  and  C_23
REMARK    4  A    between atoms: N_25  and  C_26
REMARK    5  A    between atoms: C_26  and  C_27
REMARK    6  A    between atoms: C_26  and  C_28
REMARK                            x       y       z     vdW  Elec       q    Type
REMARK                         _______ _______ _______ _____ _____    ______ ____
ROOT
ATOM      1  C   UNL     1       7.843   2.288   1.694  0.00  0.00    +0.092 A 
ATOM      2  C   UNL     1       6.937   1.645   2.473  0.00  0.00    +0.143 A 
ATOM      3  N   UNL     1       5.713   1.693   1.822  0.00  0.00    -0.211 N 
ATOM      4  C   UNL     1       5.954   2.377   0.661  0.00  0.00    +0.197 A 
ATOM      5  N   UNL     1       7.205   2.725   0.588  0.00  0.00    -0.220 NA
ATOM      6  S   UNL     1       4.354   2.390  -0.115  0.00  0.00    -0.013 S 
ATOM      7  C   UNL     1       3.468   1.499   1.154  0.00  0.00    +0.184 A 
ATOM      8  N   UNL     1       4.407   1.260   2.029  0.00  0.00    -0.142 NA
ATOM      9  N   UNL     1       2.129   1.146   1.196  0.00  0.00    -0.307 N 
ATOM     10  C   UNL     1       1.491   1.648   2.419  0.00  0.00    +0.107 C 
ATOM     11  C   UNL     1       0.057   1.118   2.502  0.00  0.00    +0.020 C 
ATOM     12  C   UNL     1      -0.725   1.581   1.270  0.00  0.00    +0.016 C 
ATOM     13  C   UNL     1      -0.013   1.086   0.008  0.00  0.00    +0.092 C 
ATOM     14  C   UNL     1       1.423   1.616  -0.003  0.00  0.00    +0.119 C 
ENDROOT
BRANCH   1  19
ATOM     15  C   UNL     1      13.426   3.025   2.896  0.00  0.00    +0.044 C 
ATOM     16  C   UNL     1      11.965   2.833   2.582  0.00  0.00    -0.050 A 
ATOM     17  C   UNL     1      11.441   3.336   1.404  0.00  0.00    +0.004 A 
ATOM     18  C   UNL     1      10.104   3.162   1.111  0.00  0.00    +0.010 A 
ATOM     19  C   UNL     1       9.281   2.478   2.003  0.00  0.00    +0.002 A 
ATOM     20  C   UNL     1       9.812   1.978   3.191  0.00  0.00    +0.010 A 
ATOM     21  C   UNL     1      11.152   2.154   3.472  0.00  0.00    +0.004 A 
ENDBRANCH   1  19
BRANCH  13  22
ATOM     22  C   UNL     1      -0.743   1.586  -1.212  0.00  0.00    +0.218 C 
ATOM     23  O   UNL     1      -1.737   2.269  -1.085  0.00  0.00    -0.275 OA
ATOM     24  N   UNL     1      -0.292   1.274  -2.443  0.00  0.00    -0.313 N 
ATOM     25  H   UNL     1       0.503   0.727  -2.543  0.00  0.00    +0.149 HD
BRANCH  24  26
ATOM     26  C   UNL     1      -1.002   1.760  -3.628  0.00  0.00    +0.067 C 
ATOM     27  C   UNL     1      -0.032   1.831  -4.810  0.00  0.00    +0.027 C 
ATOM     28  C   UNL     1      -2.147   0.802  -3.965  0.00  0.00    +0.027 C 
ENDBRANCH  24  26
ENDBRANCH  13  22
TORSDOF 3
