REMARK  Name = ZINC39638136
REMARK  10 active torsions:
REMARK  status: ('A' for Active; 'I' for Inactive)
REMARK    1  A    between atoms: C_1  and  C_2
REMARK    2  A    between atoms: C_2  and  C_3
REMARK    3  A    between atoms: C_3  and  C_5
REMARK    4  A    between atoms: C_3  and  N_8
REMARK    5  A    between atoms: C_5  and  O_6
REMARK    6  A    between atoms: O_6  and  C_7
REMARK    7  A    between atoms: C_9  and  C_11
REMARK    8  A    between atoms: C_22  and  C_24
REMARK    9  A    between atoms: C_29  and  S_30
REMARK   10  A    between atoms: S_30  and  C_31
REMARK                            x       y       z     vdW  Elec       q    Type
REMARK                         _______ _______ _______ _____ _____    ______ ____
ROOT
ATOM      1  C   UNL     1       4.393   1.512  -2.005  0.00  0.00    +0.100 C 
ATOM      2  C   UNL     1       4.646   1.588  -0.482  0.00  0.00    +0.121 C 
ATOM      3  N   UNL     1       5.430   2.832  -0.295  0.00  0.00    -0.296 N 
ATOM      4  C   UNL     1       4.819   3.798  -1.240  0.00  0.00    +0.115 C 
ATOM      5  C   UNL     1       4.506   2.964  -2.498  0.00  0.00    -0.004 C 
ATOM      6  C   UNL     1       3.188   3.417  -3.116  0.00  0.00    -0.010 C 
ATOM      7  C   UNL     1       3.343   4.843  -3.651  0.00  0.00    -0.082 C 
ATOM      8  N   UNL     1       4.414   4.877  -4.655  0.00  0.00    +0.379 N 
ATOM      9  C   UNL     1       5.697   4.530  -4.030  0.00  0.00    -0.082 C 
ATOM     10  C   UNL     1       5.640   3.090  -3.511  0.00  0.00    -0.010 C 
ATOM     11  C   UNL     1       6.465   3.037   0.543  0.00  0.00    +0.249 C 
ATOM     12  O   UNL     1       6.948   4.148   0.652  0.00  0.00    -0.270 OA
ATOM     13  H   UNL     1       4.208   4.215  -5.387  0.00  0.00    -0.086 HD
ATOM     14  H   UNL     1       4.474   5.804  -5.050  0.00  0.00    -0.086 HD
ENDROOT
BRANCH  11  15
ATOM     15  C   UNL     1       7.011   1.916   1.329  0.00  0.00    +0.069 A 
ATOM     16  C   UNL     1       6.168   0.913   1.821  0.00  0.00    +0.017 A 
ATOM     17  C   UNL     1       6.730  -0.118   2.553  0.00  0.00    +0.020 A 
ATOM     18  C   UNL     1       8.096  -0.130   2.774  0.00  0.00    +0.112 A 
ATOM     19  N   UNL     1       8.874   0.823   2.302  0.00  0.00    -0.248 NA
ATOM     20  C   UNL     1       8.389   1.831   1.591  0.00  0.00    +0.114 A 
BRANCH  20  21
ATOM     21  S   UNL     1       9.477   3.074   0.978  0.00  0.00    -0.069 S 
BRANCH  21  22
ATOM     22  C   UNL     1      11.041   2.652   1.673  0.00  0.00    +0.014 A 
ATOM     23  C   UNL     1      11.941   1.884   0.945  0.00  0.00    +0.015 A 
ATOM     24  C   UNL     1      13.166   1.556   1.492  0.00  0.00    +0.001 A 
ATOM     25  C   UNL     1      13.496   1.991   2.763  0.00  0.00    +0.000 A 
ATOM     26  C   UNL     1      12.602   2.756   3.490  0.00  0.00    +0.001 A 
ATOM     27  C   UNL     1      11.378   3.093   2.946  0.00  0.00    +0.015 A 
ENDBRANCH  21  22
ENDBRANCH  20  21
ENDBRANCH  11  15
BRANCH   1  29
ATOM     28  N   UNL     1       2.771   0.291  -3.419  0.00  0.00    -0.310 N 
ATOM     29  C   UNL     1       3.013   0.971  -2.281  0.00  0.00    +0.218 C 
ATOM     30  O   UNL     1       2.121   1.147  -1.478  0.00  0.00    -0.275 OA
ATOM     31  H   UNL     1       3.485   0.150  -4.061  0.00  0.00    +0.149 HD
BRANCH  28  32
ATOM     32  C   UNL     1       1.431  -0.235  -3.687  0.00  0.00    +0.098 C 
BRANCH  32  34
ATOM     33  C   UNL     1       1.345  -1.428  -1.494  0.00  0.00    +0.006 C 
ATOM     34  C   UNL     1       1.273  -1.599  -3.013  0.00  0.00    +0.021 C 
ENDBRANCH  32  34
BRANCH  32  35
ATOM     35  C   UNL     1       1.235  -0.387  -5.197  0.00  0.00    +0.181 C 
BRANCH  35  36
ATOM     36  O   UNL     1       2.137  -1.377  -5.697  0.00  0.00    -0.381 OA
ATOM     37  C   UNL     1       2.035  -1.598  -7.105  0.00  0.00    +0.194 C 
ENDBRANCH  35  36
ENDBRANCH  32  35
ENDBRANCH  28  32
ENDBRANCH   1  29
TORSDOF 8
