REMARK  Name = ZINC12577085
REMARK  8 active torsions:
REMARK  status: ('A' for Active; 'I' for Inactive)
REMARK    1  A    between atoms: C_1  and  C_2
REMARK    2  A    between atoms: C_4  and  O_28
REMARK    3  A    between atoms: C_7  and  N_8
REMARK    4  A    between atoms: C_15  and  C_18
REMARK    5  A    between atoms: C_18  and  N_19
REMARK    6  A    between atoms: N_19  and  S_20
REMARK    7  A    between atoms: S_20  and  C_23
REMARK    8  A    between atoms: O_28  and  C_29
REMARK                            x       y       z     vdW  Elec       q    Type
REMARK                         _______ _______ _______ _____ _____    ______ ____
ROOT
ATOM      1  N   UNL     1       0.027  -0.011   2.418  0.00  0.00    -0.269 N 
ATOM      2  C   UNL     1      -0.056  -0.689   3.580  0.00  0.00    +0.306 C 
ATOM      3  O   UNL     1      -0.042  -1.905   3.577  0.00  0.00    -0.252 OA
ATOM      4  N   UNL     1      -0.156  -0.019   4.745  0.00  0.00    -0.285 N 
ATOM      5  C   UNL     1      -0.293   1.443   4.759  0.00  0.00    +0.109 C 
ATOM      6  C   UNL     1       0.796   2.032   5.661  0.00  0.00    +0.019 C 
ATOM      7  C   UNL     1       0.716   1.381   7.043  0.00  0.00    +0.008 C 
ATOM      8  C   UNL     1       0.957  -0.125   6.914  0.00  0.00    +0.022 C 
ATOM      9  C   UNL     1      -0.136  -0.739   6.026  0.00  0.00    +0.114 C 
ATOM     10  H   UNL     1       0.074   0.958   2.424  0.00  0.00    +0.156 HD
ENDROOT
BRANCH   1  17
ATOM     11  C   UNL     1      -0.982   1.303   0.106  0.00  0.00    +0.046 C 
ATOM     12  C   UNL     1      -0.437  -0.101   0.049  0.00  0.00    -0.026 A 
ATOM     13  C   UNL     1      -0.413  -0.784  -1.151  0.00  0.00    +0.050 A 
ATOM     14  C   UNL     1       0.088  -2.076  -1.204  0.00  0.00    +0.120 A 
ATOM     15  C   UNL     1       0.565  -2.683  -0.052  0.00  0.00    +0.047 A 
ATOM     16  C   UNL     1       0.541  -2.002   1.149  0.00  0.00    +0.027 A 
ATOM     17  C   UNL     1       0.045  -0.706   1.201  0.00  0.00    +0.038 A 
BRANCH  14  18
ATOM     18  O   UNL     1       0.111  -2.748  -2.386  0.00  0.00    -0.495 OA
ATOM     19  C   UNL     1       0.640  -4.075  -2.368  0.00  0.00    +0.277 C 
ENDBRANCH  14  18
ENDBRANCH   1  17
BRANCH   8  20
ATOM     20  C   UNL     1       0.910  -0.770   8.300  0.00  0.00    +0.111 C 
BRANCH  20  21
ATOM     21  N   UNL     1       1.259  -2.189   8.191  0.00  0.00    -0.189 NA
ATOM     22  H   UNL     1       1.260  -2.623   7.323  0.00  0.00    +0.148 HD
BRANCH  21  23
ATOM     23  S   UNL     1       1.652  -3.052   9.548  0.00  0.00    +0.065 S 
ATOM     24  O   UNL     1       1.910  -4.383   9.123  0.00  0.00    -0.153 OA
ATOM     25  O   UNL     1       2.611  -2.280  10.258  0.00  0.00    -0.153 OA
BRANCH  23  26
ATOM     26  C   UNL     1       0.210  -3.118  10.559  0.00  0.00    +0.142 A 
ATOM     27  C   UNL     1      -0.781  -4.042  10.573  0.00  0.00    +0.036 A 
ATOM     28  C   UNL     1      -1.827  -3.889  11.464  0.00  0.00    +0.010 A 
ATOM     29  C   UNL     1      -1.831  -2.820  12.297  0.00  0.00    +0.047 A 
ATOM     30  S   UNL     1      -0.319  -1.989  11.837  0.00  0.00    -0.077 S 
ENDBRANCH  23  26
ENDBRANCH  21  23
ENDBRANCH  20  21
ENDBRANCH   8  20
TORSDOF 6
