REMARK  Name = ZINC48462147
REMARK  4 active torsions:
REMARK  status: ('A' for Active; 'I' for Inactive)
REMARK    1  A    between atoms: C_1  and  C_2
REMARK    2  A    between atoms: C_2  and  C_3
REMARK    3  A    between atoms: C_9  and  N_11
REMARK    4  A    between atoms: C_12  and  C_14
REMARK                            x       y       z     vdW  Elec       q    Type
REMARK                         _______ _______ _______ _____ _____    ______ ____
ROOT
ATOM      1  N   UNL     1      -0.776  -2.430  -1.376  0.00  0.00    -0.308 N 
ATOM      2  C   UNL     1      -1.139  -3.654  -0.946  0.00  0.00    +0.244 C 
ATOM      3  O   UNL     1      -0.298  -4.422  -0.518  0.00  0.00    -0.270 OA
ATOM      4  H   UNL     1      -1.447  -1.817  -1.717  0.00  0.00    +0.149 HD
ENDROOT
BRANCH   2   5
ATOM      5  C   UNL     1      -2.556  -4.064  -0.994  0.00  0.00    +0.037 A 
ATOM      6  C   UNL     1      -3.526  -3.188  -1.489  0.00  0.00    +0.016 A 
ATOM      7  C   UNL     1      -4.845  -3.573  -1.538  0.00  0.00    +0.046 A 
ATOM      8  C   UNL     1      -5.229  -4.838  -1.091  0.00  0.00    +0.124 A 
ATOM      9  C   UNL     1      -4.260  -5.703  -0.591  0.00  0.00    -0.002 A 
ATOM     10  C   UNL     1      -2.938  -5.333  -0.549  0.00  0.00    +0.020 A 
ATOM     11  C   UNL     1      -4.974  -6.973  -0.168  0.00  0.00    +0.080 C 
ATOM     12  C   UNL     1      -6.451  -6.513  -0.138  0.00  0.00    +0.234 C 
ATOM     13  O   UNL     1      -6.462  -5.413  -1.063  0.00  0.00    -0.491 OA
ENDBRANCH   2   5
BRANCH   1  19
ATOM     14  C   UNL     1       0.718  -0.497  -1.257  0.00  0.00    +0.009 C 
ATOM     15  C   UNL     1       2.187  -0.073  -1.207  0.00  0.00    +0.005 C 
ATOM     16  C   UNL     1       2.904  -0.566  -2.466  0.00  0.00    +0.000 C 
ATOM     17  C   UNL     1       2.816  -2.092  -2.538  0.00  0.00    +0.002 C 
ATOM     18  C   UNL     1       1.347  -2.517  -2.587  0.00  0.00    +0.022 C 
ATOM     19  C   UNL     1       0.630  -2.023  -1.329  0.00  0.00    +0.076 C 
BRANCH  14  21
ATOM     20  C   UNL     1      -0.019   1.526   0.010  0.00  0.00    +0.004 C 
ATOM     21  C   UNL     1       0.002  -0.004   0.002  0.00  0.00    +0.002 C 
ENDBRANCH  14  21
ENDBRANCH   1  19
TORSDOF 3
