REMARK  Name = ZINC08781875
REMARK  3 active torsions:
REMARK  status: ('A' for Active; 'I' for Inactive)
REMARK    1  A    between atoms: C_3  and  C_6
REMARK    2  A    between atoms: C_19  and  N_23
REMARK    3  A    between atoms: C_20  and  C_21
REMARK                            x       y       z     vdW  Elec       q    Type
REMARK                         _______ _______ _______ _____ _____    ______ ____
ROOT
ATOM      1  C   UNL     1      -1.155  -0.969   0.008  0.00  0.00    +0.105 C 
ATOM      2  C   UNL     1      -1.100  -1.823  -1.232  0.00  0.00    +0.009 A 
ATOM      3  C   UNL     1      -1.501  -1.286  -2.420  0.00  0.00    +0.016 A 
ATOM      4  C   UNL     1      -1.458  -2.060  -3.591  0.00  0.00    -0.016 A 
ATOM      5  C   UNL     1      -1.863  -1.534  -4.829  0.00  0.00    +0.023 A 
ATOM      6  C   UNL     1      -1.806  -2.314  -5.944  0.00  0.00    +0.018 A 
ATOM      7  C   UNL     1      -1.352  -3.631  -5.877  0.00  0.00    +0.016 A 
ATOM      8  C   UNL     1      -0.952  -4.174  -4.695  0.00  0.00    +0.010 A 
ATOM      9  C   UNL     1      -0.996  -3.399  -3.522  0.00  0.00    -0.014 A 
ATOM     10  C   UNL     1      -0.595  -3.918  -2.293  0.00  0.00    +0.055 A 
ATOM     11  C   UNL     1      -0.647  -3.140  -1.167  0.00  0.00    +0.135 A 
ATOM     12  O   UNL     1      -0.248  -3.675   0.015  0.00  0.00    -0.441 OA
ATOM     13  C   UNL     1      -0.636  -3.111   1.170  0.00  0.00    +0.199 C 
ATOM     14  C   UNL     1      -1.076  -1.833   1.234  0.00  0.00    +0.098 C 
ATOM     15 BR   UNL     1      -2.351  -1.601  -7.609  0.00  0.00    -0.050 Br
ENDROOT
BRANCH   1  18
ATOM     16  C   UNL     1       1.183   2.038   0.002  0.00  0.00    +0.008 A 
ATOM     17  C   UNL     1      -0.016   1.351   0.009  0.00  0.00    +0.012 A 
ATOM     18  C   UNL     1       0.002  -0.004   0.002  0.00  0.00    +0.002 A 
ATOM     19  S   UNL     1       1.754  -0.349  -0.017  0.00  0.00    -0.101 S 
ATOM     20  C   UNL     1       2.343   1.336  -0.013  0.00  0.00    +0.045 A 
ENDBRANCH   1  18
BRANCH  13  21
ATOM     21  N   UNL     1      -0.584  -3.855   2.323  0.00  0.00    -0.328 N 
ATOM     22  H   UNL     1      -0.861  -3.464   3.166  0.00  0.00    +0.145 HD
ATOM     23  H   UNL     1      -0.271  -4.773   2.294  0.00  0.00    +0.145 HD
ENDBRANCH  13  21
BRANCH  14  24
ATOM     24  C   UNL     1      -1.475  -1.293   2.499  0.00  0.00    +0.101 C 
ATOM     25  N   UNL     1      -1.791  -0.864   3.503  0.00  0.00    -0.191 NA
ENDBRANCH  14  24
TORSDOF 3
