REMARK  Name = ZINC40172713
REMARK  11 active torsions:
REMARK  status: ('A' for Active; 'I' for Inactive)
REMARK    1  A    between atoms: C_1  and  C_2
REMARK    2  A    between atoms: C_3  and  C_31
REMARK    3  A    between atoms: C_5  and  N_10
REMARK    4  A    between atoms: C_6  and  C_7
REMARK    5  A    between atoms: C_11  and  C_13
REMARK    6  A    between atoms: C_13  and  C_15
REMARK    7  A    between atoms: C_13  and  N_16
REMARK    8  A    between atoms: C_20  and  S_21
REMARK    9  A    between atoms: S_21  and  C_22
REMARK   10  A    between atoms: C_22  and  C_23
REMARK   11  A    between atoms: C_23  and  C_24
REMARK                            x       y       z     vdW  Elec       q    Type
REMARK                         _______ _______ _______ _____ _____    ______ ____
ROOT
ATOM      1  C   UNL     1       0.089  -5.468   2.850  0.00  0.00    +0.175 C 
ATOM      2  C   UNL     1       1.340  -5.283   3.712  0.00  0.00    +0.041 C 
ENDROOT
BRANCH   1   3
ATOM      3  N   UNL     1       0.105  -6.803   2.247  0.00  0.00    -0.279 N 
ATOM      4  C   UNL     1       1.069  -7.297   1.414  0.00  0.00    +0.216 A 
ATOM      5  N   UNL     1       0.733  -8.520   1.086  0.00  0.00    -0.113 NA
ATOM      6  N   UNL     1      -0.477  -8.823   1.724  0.00  0.00    -0.121 NA
ATOM      7  C   UNL     1      -0.838  -7.776   2.425  0.00  0.00    +0.194 A 
ATOM      8  N   UNL     1       2.205  -6.620   0.989  0.00  0.00    -0.328 N 
ATOM      9  H   UNL     1       2.368  -5.711   1.287  0.00  0.00    +0.145 HD
ATOM     10  H   UNL     1       2.835  -7.056   0.394  0.00  0.00    +0.145 HD
BRANCH   7  11
ATOM     11  S   UNL     1      -2.288  -7.645   3.418  0.00  0.00    -0.086 S 
BRANCH  11  12
ATOM     12  C   UNL     1      -3.098  -9.256   3.227  0.00  0.00    +0.082 C 
BRANCH  12  13
ATOM     13  C   UNL     1      -4.388  -9.279   4.049  0.00  0.00    +0.046 C 
BRANCH  13  14
ATOM     14  C   UNL     1      -5.062 -10.618   3.890  0.00  0.00    -0.047 A 
ATOM     15  C   UNL     1      -5.975 -10.815   2.871  0.00  0.00    +0.003 A 
ATOM     16  C   UNL     1      -6.593 -12.043   2.725  0.00  0.00    +0.000 A 
ATOM     17  C   UNL     1      -6.297 -13.074   3.598  0.00  0.00    +0.000 A 
ATOM     18  C   UNL     1      -5.384 -12.876   4.616  0.00  0.00    +0.000 A 
ATOM     19  C   UNL     1      -4.763 -11.650   4.760  0.00  0.00    +0.003 A 
ENDBRANCH  13  14
ENDBRANCH  12  13
ENDBRANCH  11  12
ENDBRANCH   7  11
ENDBRANCH   1   3
BRANCH   1  21
ATOM     20  N   UNL     1       0.054  -3.117   2.083  0.00  0.00    -0.278 N 
ATOM     21  C   UNL     1       0.070  -4.426   1.762  0.00  0.00    +0.240 C 
ATOM     22  O   UNL     1       0.070  -4.765   0.597  0.00  0.00    -0.273 OA
ATOM     23  H   UNL     1       0.054  -2.846   3.014  0.00  0.00    +0.155 HD
BRANCH  20  28
ATOM     24  C   UNL     1      -0.018   1.503   0.010  0.00  0.00    +0.045 C 
ATOM     25  C   UNL     1       0.002  -0.004   0.002  0.00  0.00    -0.027 A 
ATOM     26  C   UNL     1       0.006  -0.713  -1.142  0.00  0.00    -0.008 A 
ATOM     27  S   UNL     1       0.032  -2.400  -0.579  0.00  0.00    -0.078 S 
ATOM     28  C   UNL     1       0.036  -2.158   1.081  0.00  0.00    +0.084 A 
ATOM     29  C   UNL     1       0.024  -0.778   1.222  0.00  0.00    +0.068 A 
ATOM     30  C   UNL     1      -0.007  -0.200  -2.559  0.00  0.00    +0.052 C 
BRANCH  29  31
ATOM     31  C   UNL     1       0.028  -0.138   2.541  0.00  0.00    +0.244 C 
ATOM     32  O   UNL     1      -1.024   0.114   3.099  0.00  0.00    -0.270 OA
ATOM     33  N   UNL     1       1.197   0.172   3.136  0.00  0.00    -0.325 N 
ATOM     34  H   UNL     1       2.035  -0.028   2.692  0.00  0.00    +0.145 HD
ATOM     35  H   UNL     1       1.199   0.596   4.009  0.00  0.00    +0.145 HD
ENDBRANCH  29  31
ENDBRANCH  20  28
ENDBRANCH   1  21
TORSDOF 8
