REMARK  Name = ZINC06806644
REMARK  4 active torsions:
REMARK  status: ('A' for Active; 'I' for Inactive)
REMARK    1  A    between atoms: C_4  and  C_7
REMARK    2  A    between atoms: N_9  and  C_10
REMARK    3  A    between atoms: C_10  and  C_20
REMARK    4  A    between atoms: C_20  and  C_21
REMARK                            x       y       z     vdW  Elec       q    Type
REMARK                         _______ _______ _______ _____ _____    ______ ____
ROOT
ATOM      1  C   UNL     1      -0.487   3.607   0.026  0.00  0.00    +0.210 C 
ATOM      2  C   UNL     1      -1.076   2.213   0.030  0.00  0.00    +0.271 C 
ATOM      3  O   UNL     1      -2.251   1.914   0.045  0.00  0.00    -0.270 OA
ATOM      4  N   UNL     1      -0.017   1.371   0.010  0.00  0.00    -0.228 N 
ATOM      5  C   UNL     1       0.002  -0.004   0.002  0.00  0.00    +0.085 C 
ATOM      6  C   UNL     1       1.165  -0.680  -0.013  0.00  0.00    +0.016 C 
ATOM      7  C   UNL     1       2.390   0.012  -0.021  0.00  0.00    +0.005 C 
ATOM      8  C   UNL     1       2.397   1.367  -0.013  0.00  0.00    +0.044 C 
ATOM      9  C   UNL     1       1.165   2.078   0.002  0.00  0.00    +0.130 C 
ATOM     10  N   UNL     1       0.964   3.379   0.011  0.00  0.00    -0.233 NA
ENDROOT
BRANCH   1  13
ATOM     11  C   UNL     1      -2.204   4.643  -1.358  0.00  0.00    +0.246 C 
ATOM     12  O   UNL     1      -3.031   4.304  -0.534  0.00  0.00    -0.270 OA
ATOM     13  N   UNL     1      -0.904   4.343  -1.170  0.00  0.00    -0.280 N 
ATOM     14  H   UNL     1      -0.244   4.614  -1.828  0.00  0.00    +0.152 HD
BRANCH  11  18
ATOM     15  C   UNL     1      -3.412   6.777  -4.826  0.00  0.00    +0.000 A 
ATOM     16  C   UNL     1      -4.356   6.391  -3.891  0.00  0.00    +0.001 A 
ATOM     17  C   UNL     1      -3.971   5.698  -2.763  0.00  0.00    +0.013 A 
ATOM     18  C   UNL     1      -2.625   5.385  -2.565  0.00  0.00    +0.037 A 
ATOM     19  C   UNL     1      -1.677   5.782  -3.510  0.00  0.00    +0.013 A 
ATOM     20  C   UNL     1      -2.077   6.470  -4.637  0.00  0.00    +0.001 A 
ENDBRANCH  11  18
ENDBRANCH   1  13
BRANCH   1  21
ATOM     21  C   UNL     1      -0.898   4.365   1.290  0.00  0.00    +0.095 C 
BRANCH  21  22
ATOM     22  C   UNL     1      -0.220   5.711   1.312  0.00  0.00    -0.043 A 
ATOM     23  C   UNL     1       1.016   5.853   1.913  0.00  0.00    +0.005 A 
ATOM     24  C   UNL     1       1.640   7.086   1.928  0.00  0.00    +0.020 A 
ATOM     25  C   UNL     1       1.022   8.181   1.351  0.00  0.00    +0.041 A 
ATOM     26  C   UNL     1      -0.217   8.039   0.753  0.00  0.00    +0.020 A 
ATOM     27  C   UNL     1      -0.838   6.805   0.734  0.00  0.00    +0.005 A 
ATOM     28 CL   UNL     1       1.803   9.731   1.376  0.00  0.00    -0.084 Cl
ENDBRANCH  21  22
ENDBRANCH   1  21
TORSDOF 4
