REMARK  Name = ZINC01099715
REMARK  4 active torsions:
REMARK  status: ('A' for Active; 'I' for Inactive)
REMARK    1  A    between atoms: C_4  and  C_7
REMARK    2  A    between atoms: C_7  and  C_9
REMARK    3  A    between atoms: C_7  and  S_16
REMARK    4  A    between atoms: S_16  and  C_17
REMARK                            x       y       z     vdW  Elec       q    Type
REMARK                         _______ _______ _______ _____ _____    ______ ____
ROOT
ATOM      1  C   UNL     1       1.229  -2.186  -0.022  0.00  0.00    +0.114 C 
ENDROOT
BRANCH   1   2
ATOM      2  C   UNL     1       1.823  -2.673  -1.318  0.00  0.00    -0.030 A 
ATOM      3  C   UNL     1       3.145  -2.402  -1.617  0.00  0.00    +0.006 A 
ATOM      4  C   UNL     1       3.693  -2.853  -2.803  0.00  0.00    +0.020 A 
ATOM      5  C   UNL     1       2.914  -3.567  -3.697  0.00  0.00    +0.041 A 
ATOM      6  C   UNL     1       1.589  -3.833  -3.400  0.00  0.00    +0.020 A 
ATOM      7  C   UNL     1       1.044  -3.386  -2.211  0.00  0.00    +0.006 A 
ATOM      8 CL   UNL     1       3.599  -4.129  -5.190  0.00  0.00    -0.084 Cl
ENDBRANCH   1   2
BRANCH   1  12
ATOM      9  C   UNL     1       0.953   2.076  -0.094  0.00  0.00    +0.000 A 
ATOM     10  C   UNL     1      -0.196   1.309  -0.125  0.00  0.00    +0.000 A 
ATOM     11  C   UNL     1      -0.107  -0.070  -0.101  0.00  0.00    +0.005 A 
ATOM     12  C   UNL     1       1.132  -0.682  -0.048  0.00  0.00    -0.030 A 
ATOM     13  C   UNL     1       2.281   0.085  -0.017  0.00  0.00    +0.005 A 
ATOM     14  C   UNL     1       2.192   1.465  -0.041  0.00  0.00    +0.000 A 
ENDBRANCH   1  12
BRANCH   1  15
ATOM     15  S   UNL     1       2.287  -2.700   1.359  0.00  0.00    -0.073 S 
BRANCH  15  16
ATOM     16  C   UNL     1       1.394  -2.193   2.791  0.00  0.00    +0.199 A 
ATOM     17  N   UNL     1       1.886  -2.416   3.992  0.00  0.00    -0.199 NA
ATOM     18  C   UNL     1       1.188  -2.021   5.048  0.00  0.00    +0.176 A 
ATOM     19  S   UNL     1      -0.208  -1.312   4.299  0.00  0.00    +0.050 S 
ATOM     20  N   UNL     1       0.234  -1.583   2.668  0.00  0.00    -0.181 NA
ATOM     21  N   UNL     1       1.492  -2.142   6.391  0.00  0.00    -0.336 N 
ATOM     22  H   UNL     1       2.320  -2.566   6.665  0.00  0.00    +0.144 HD
ATOM     23  H   UNL     1       0.877  -1.801   7.060  0.00  0.00    +0.144 HD
ENDBRANCH  15  16
ENDBRANCH   1  15
TORSDOF 4
