REMARK  Name = ZINC05523951
REMARK  7 active torsions:
REMARK  status: ('A' for Active; 'I' for Inactive)
REMARK    1  A    between atoms: C_1  and  C_2
REMARK    2  A    between atoms: C_2  and  O_3
REMARK    3  A    between atoms: O_3  and  C_4
REMARK    4  A    between atoms: C_4  and  C_6
REMARK    5  A    between atoms: C_8  and  C_20
REMARK    6  A    between atoms: C_14  and  C_15
REMARK    7  A    between atoms: C_14  and  O_19
REMARK                            x       y       z     vdW  Elec       q    Type
REMARK                         _______ _______ _______ _____ _____    ______ ____
ROOT
ATOM      1  C   UNL     1      -0.885   1.620   3.737  0.00  0.00    +0.181 C 
ATOM      2  C   UNL     1      -0.302   1.053   5.036  0.00  0.00    +0.125 C 
ATOM      3  N   UNL     1      -0.829   1.814   6.171  0.00  0.00    -0.292 N 
ATOM      4  C   UNL     1      -1.187   3.101   6.044  0.00  0.00    +0.302 C 
ATOM      5  O   UNL     1      -1.613   3.688   7.020  0.00  0.00    -0.253 OA
ATOM      6  N   UNL     1      -1.094   3.766   4.883  0.00  0.00    -0.264 N 
ATOM      7  C   UNL     1      -0.579   3.120   3.675  0.00  0.00    +0.246 C 
ATOM      8  H   UNL     1      -0.924   1.378   7.032  0.00  0.00    +0.151 HD
ATOM      9  H   UNL     1      -1.374   4.694   4.843  0.00  0.00    +0.153 HD
ENDROOT
BRANCH   2  10
ATOM     10  C   UNL     1      -0.692  -0.396   5.173  0.00  0.00    -0.008 A 
ATOM     11  C   UNL     1      -1.730  -0.907   4.416  0.00  0.00    +0.008 A 
ATOM     12  C   UNL     1      -2.087  -2.237   4.540  0.00  0.00    +0.020 A 
ATOM     13  C   UNL     1      -1.406  -3.057   5.423  0.00  0.00    +0.042 A 
ATOM     14  C   UNL     1      -0.368  -2.546   6.180  0.00  0.00    +0.040 A 
ATOM     15  C   UNL     1      -0.007  -1.217   6.051  0.00  0.00    +0.047 A 
ATOM     16 CL   UNL     1       1.301  -0.576   6.997  0.00  0.00    -0.083 Cl
ATOM     17 CL   UNL     1      -1.855  -4.726   5.579  0.00  0.00    -0.083 Cl
ENDBRANCH   2  10
BRANCH   7  18
ATOM     18  C   UNL     1      -1.253   3.728   2.443  0.00  0.00    +0.436 C 
ATOM     19  F   UNL     1      -2.619   3.426   2.462  0.00  0.00    -0.166 F 
ATOM     20  F   UNL     1      -1.083   5.117   2.456  0.00  0.00    -0.166 F 
ATOM     21  F   UNL     1      -0.674   3.198   1.285  0.00  0.00    -0.166 F 
ENDBRANCH   7  18
BRANCH   1  22
ATOM     22  C   UNL     1      -0.257   0.925   2.556  0.00  0.00    +0.317 C 
ATOM     23  O   UNL     1       0.924   0.672   2.562  0.00  0.00    -0.250 OA
BRANCH  22  24
ATOM     24  O   UNL     1      -1.010   0.589   1.497  0.00  0.00    -0.465 OA
BRANCH  24  26
ATOM     25  C   UNL     1      -1.352  -0.380  -0.711  0.00  0.00    +0.048 C 
ATOM     26  C   UNL     1      -0.339  -0.077   0.396  0.00  0.00    +0.229 C 
ENDBRANCH  24  26
ENDBRANCH  22  24
ENDBRANCH   1  22
BRANCH   7  27
ATOM     27  O   UNL     1       0.834   3.317   3.592  0.00  0.00    -0.364 OA
ATOM     28  H   UNL     1       1.100   4.245   3.549  0.00  0.00    +0.212 HD
ENDBRANCH   7  27
TORSDOF 6
