REMARK  Name = ZINC42113731
REMARK  4 active torsions:
REMARK  status: ('A' for Active; 'I' for Inactive)
REMARK    1  A    between atoms: C_5  and  C_7
REMARK    2  A    between atoms: C_10  and  S_13
REMARK    3  A    between atoms: S_13  and  C_14
REMARK    4  A    between atoms: C_14  and  C_15
REMARK                            x       y       z     vdW  Elec       q    Type
REMARK                         _______ _______ _______ _____ _____    ______ ____
ROOT
ATOM      1  C   UNL     1       1.245  -2.166  -0.023  0.00  0.00    +0.185 A 
ATOM      2  N   UNL     1       0.168  -2.965  -0.017  0.00  0.00    -0.201 NA
ATOM      3  H   UNL     1       2.467  -5.037  -0.055  0.00  0.00    +0.191 HD
ATOM      4  C   UNL     1       0.551  -4.223  -0.029  0.00  0.00    +0.185 A 
ATOM      5  N   UNL     1       1.902  -4.249  -0.044  0.00  0.00    -0.253 N 
ATOM      6  N   UNL     1       2.327  -2.911  -0.044  0.00  0.00    -0.151 NA
ENDROOT
BRANCH   1  11
ATOM      7  C   UNL     1      -0.017   1.376   0.010  0.00  0.00    +0.001 A 
ATOM      8  C   UNL     1       1.170   2.087   0.002  0.00  0.00    +0.003 A 
ATOM      9  C   UNL     1       2.382   1.422  -0.013  0.00  0.00    +0.039 A 
ATOM     10  C   UNL     1       2.413   0.040  -0.022  0.00  0.00    +0.134 A 
ATOM     11  C   UNL     1       1.219  -0.682  -0.014  0.00  0.00    +0.056 A 
ATOM     12  C   UNL     1       0.002  -0.004   0.002  0.00  0.00    +0.014 A 
ATOM     13  F   UNL     1       3.598  -0.611  -0.038  0.00  0.00    -0.205 F 
ENDBRANCH   1  11
BRANCH   4  14
ATOM     14  S   UNL     1      -0.512  -5.628  -0.026  0.00  0.00    -0.079 S 
BRANCH  14  15
ATOM     15  C   UNL     1      -2.180  -4.917  -0.004  0.00  0.00    +0.151 C 
BRANCH  15  16
ATOM     16  C   UNL     1      -3.200  -6.026   0.000  0.00  0.00    +0.118 A 
ATOM     17  N   UNL     1      -3.735  -6.597  -1.113  0.00  0.00    -0.341 N 
ATOM     18  H   UNL     1      -3.531  -6.366  -2.032  0.00  0.00    +0.167 HD
ATOM     19  C   UNL     1      -4.622  -7.567  -0.691  0.00  0.00    +0.066 A 
ATOM     20  C   UNL     1      -5.454  -8.466  -1.344  0.00  0.00    +0.028 A 
ATOM     21  C   UNL     1      -6.238  -9.329  -0.608  0.00  0.00    +0.002 A 
ATOM     22  C   UNL     1      -6.202  -9.303   0.779  0.00  0.00    +0.002 A 
ATOM     23  C   UNL     1      -5.389  -8.425   1.438  0.00  0.00    +0.030 A 
ATOM     24  C   UNL     1      -4.585  -7.542   0.714  0.00  0.00    +0.089 A 
ATOM     25  N   UNL     1      -3.692  -6.582   1.068  0.00  0.00    -0.232 NA
ENDBRANCH  15  16
ENDBRANCH  14  15
ENDBRANCH   4  14
TORSDOF 4
