REMARK  Name = ZINC35842647
REMARK  19 active torsions:
REMARK  status: ('A' for Active; 'I' for Inactive)
REMARK    1  A    between atoms: C_1  and  C_2
REMARK    2  A    between atoms: C_2  and  C_3
REMARK    3  A    between atoms: C_2  and  N_4
REMARK    4  A    between atoms: N_4  and  C_5
REMARK    5  A    between atoms: N_4  and  C_16
REMARK    6  A    between atoms: C_5  and  C_6
REMARK    7  A    between atoms: C_6  and  C_8
REMARK    8  A    between atoms: C_6  and  O_15
REMARK    9  A    between atoms: C_8  and  C_9
REMARK   10  A    between atoms: C_16  and  C_17
REMARK   11  A    between atoms: N_19  and  C_20
REMARK   12  A    between atoms: N_19  and  C_32
REMARK   13  A    between atoms: C_20  and  C_21
REMARK   14  A    between atoms: C_21  and  C_22
REMARK   15  A    between atoms: C_32  and  C_33
REMARK   16  A    between atoms: C_36  and  C_39
REMARK   17  A    between atoms: C_39  and  C_40
REMARK   18  A    between atoms: C_39  and  C_41
REMARK   19  A    between atoms: C_39  and  C_42
REMARK                            x       y       z     vdW  Elec       q    Type
REMARK                         _______ _______ _______ _____ _____    ______ ____
ROOT
ATOM      1  C   UNL     1      -3.024   1.335  -0.269  0.00  0.00    +0.199 C 
ATOM      2  O   UNL     1      -2.352   1.965   0.521  0.00  0.00    -0.278 OA
ATOM      3  N   UNL     1      -4.006   1.949  -0.958  0.00  0.00    -0.298 N 
ENDROOT
BRANCH   1   4
ATOM      4  C   UNL     1      -2.760  -0.133  -0.480  0.00  0.00    +0.019 C 
BRANCH   4   5
ATOM      5  N   UNL     1      -1.550  -0.524   0.256  0.00  0.00    +0.389 N 
ATOM      6  H   UNL     1      -1.515  -0.028   1.133  0.00  0.00    -0.081 HD
BRANCH   5   8
ATOM      7  C   UNL     1      -0.430  -0.925  -1.885  0.00  0.00    -0.014 C 
ATOM      8  C   UNL     1      -0.363  -0.193  -0.543  0.00  0.00    -0.074 C 
ATOM      9  C   UNL     1      -0.318   1.317  -0.787  0.00  0.00    -0.014 C 
ENDBRANCH   5   8
BRANCH   5  10
ATOM     10  C   UNL     1      -1.580  -1.970   0.513  0.00  0.00    -0.046 C 
BRANCH  10  11
ATOM     11  C   UNL     1      -0.397  -2.354   1.404  0.00  0.00    +0.102 C 
BRANCH  11  12
ATOM     12  O   UNL     1      -0.496  -1.663   2.651  0.00  0.00    -0.393 OA
ATOM     13  H   UNL     1      -1.303  -1.861   3.147  0.00  0.00    +0.210 HD
ENDBRANCH  11  12
BRANCH  11  14
ATOM     14  C   UNL     1      -0.415  -3.863   1.654  0.00  0.00    +0.064 C 
BRANCH  14  15
ATOM     15  C   UNL     1       0.816  -4.259   2.429  0.00  0.00    -0.045 A 
ATOM     16  C   UNL     1       1.971  -4.612   1.757  0.00  0.00    +0.004 A 
ATOM     17  C   UNL     1       3.100  -4.975   2.467  0.00  0.00    +0.000 A 
ATOM     18  C   UNL     1       3.074  -4.984   3.849  0.00  0.00    +0.000 A 
ATOM     19  C   UNL     1       1.919  -4.630   4.521  0.00  0.00    +0.000 A 
ATOM     20  C   UNL     1       0.791  -4.263   3.811  0.00  0.00    +0.004 A 
ENDBRANCH  14  15
ENDBRANCH  11  14
ENDBRANCH  10  11
ENDBRANCH   5  10
ENDBRANCH   4   5
ENDBRANCH   1   4
BRANCH   3  21
ATOM     21  C   UNL     1      -4.818   1.189  -1.911  0.00  0.00    +0.113 C 
BRANCH  21  22
ATOM     22  C   UNL     1      -6.036   0.606  -1.193  0.00  0.00    +0.056 C 
BRANCH  22  23
ATOM     23  C   UNL     1      -6.871  -0.176  -2.174  0.00  0.00    -0.021 A 
ATOM     24  C   UNL     1      -7.932   0.278  -2.860  0.00  0.00    +0.087 A 
ATOM     25  N   UNL     1      -8.435  -0.717  -3.654  0.00  0.00    -0.360 N 
ATOM     26  H   UNL     1      -9.201  -0.626  -4.241  0.00  0.00    +0.165 HD
ATOM     27  C   UNL     1      -7.691  -1.864  -3.494  0.00  0.00    +0.047 A 
ATOM     28  C   UNL     1      -6.675  -1.575  -2.565  0.00  0.00    +0.003 A 
ATOM     29  C   UNL     1      -5.755  -2.562  -2.208  0.00  0.00    +0.010 A 
ATOM     30  C   UNL     1      -5.843  -3.805  -2.768  0.00  0.00    +0.001 A 
ATOM     31  C   UNL     1      -6.841  -4.095  -3.688  0.00  0.00    +0.002 A 
ATOM     32  C   UNL     1      -7.766  -3.139  -4.047  0.00  0.00    +0.026 A 
ENDBRANCH  22  23
ENDBRANCH  21  22
ENDBRANCH   3  21
BRANCH   3  33
ATOM     33  C   UNL     1      -4.262   3.377  -0.752  0.00  0.00    +0.142 C 
BRANCH  33  34
ATOM     34  C   UNL     1      -3.429   4.181  -1.717  0.00  0.00    -0.030 A 
ATOM     35  C   UNL     1      -2.157   4.588  -1.358  0.00  0.00    +0.005 A 
ATOM     36  C   UNL     1      -1.392   5.325  -2.243  0.00  0.00    +0.004 A 
ATOM     37  C   UNL     1      -1.899   5.655  -3.486  0.00  0.00    -0.042 A 
ATOM     38  C   UNL     1      -3.170   5.246  -3.845  0.00  0.00    +0.004 A 
ATOM     39  C   UNL     1      -3.933   4.506  -2.962  0.00  0.00    +0.005 A 
BRANCH  37  40
ATOM     40  C   UNL     1      -1.065   6.459  -4.450  0.00  0.00    -0.013 C 
ATOM     41  C   UNL     1       0.225   5.700  -4.766  0.00  0.00    +0.015 C 
ATOM     42  C   UNL     1      -1.854   6.684  -5.742  0.00  0.00    +0.015 C 
ATOM     43  C   UNL     1      -0.721   7.811  -3.822  0.00  0.00    +0.015 C 
ENDBRANCH  37  40
ENDBRANCH  33  34
ENDBRANCH   3  33
TORSDOF 14
