REMARK  Name = ZINC01876218
REMARK  17 active torsions:
REMARK  status: ('A' for Active; 'I' for Inactive)
REMARK    1  A    between atoms: C_1  and  C_2
REMARK    2  A    between atoms: C_2  and  O_3
REMARK    3  A    between atoms: O_3  and  C_4
REMARK    4  A    between atoms: C_6  and  C_11
REMARK    5  A    between atoms: C_9  and  O_10
REMARK    6  A    between atoms: N_12  and  N_13
REMARK    7  A    between atoms: C_14  and  C_16
REMARK    8  A    between atoms: C_16  and  S_17
REMARK    9  A    between atoms: S_17  and  C_18
REMARK   10  A    between atoms: C_21  and  C_31
REMARK   11  A    between atoms: N_22  and  C_23
REMARK   12  A    between atoms: C_26  and  O_29
REMARK   13  A    between atoms: O_29  and  C_30
REMARK   14  A    between atoms: C_34  and  C_37
REMARK   15  A    between atoms: C_37  and  C_38
REMARK   16  A    between atoms: C_37  and  C_39
REMARK   17  A    between atoms: C_37  and  C_40
REMARK                            x       y       z     vdW  Elec       q    Type
REMARK                         _______ _______ _______ _____ _____    ______ ____
ROOT
ATOM      1  C   UNL     1      -1.542 -12.030  -3.017  0.00  0.00    +0.197 A 
ATOM      2  N   UNL     1      -2.162 -11.555  -4.074  0.00  0.00    -0.122 NA
ATOM      3  N   UNL     1      -2.579 -12.520  -4.814  0.00  0.00    -0.128 NA
ATOM      4  C   UNL     1      -2.252 -13.671  -4.275  0.00  0.00    +0.169 A 
ATOM      5  N   UNL     1      -1.572 -13.394  -3.109  0.00  0.00    -0.270 N 
ENDROOT
BRANCH   5   6
ATOM      6  C   UNL     1      -1.027 -14.318  -2.205  0.00  0.00    +0.051 A 
ATOM      7  C   UNL     1       0.023 -15.136  -2.596  0.00  0.00    +0.030 A 
ATOM      8  C   UNL     1       0.559 -16.045  -1.705  0.00  0.00    +0.047 A 
ATOM      9  C   UNL     1       0.047 -16.141  -0.419  0.00  0.00    +0.120 A 
ATOM     10  C   UNL     1      -1.003 -15.323  -0.028  0.00  0.00    +0.047 A 
ATOM     11  C   UNL     1      -1.535 -14.410  -0.916  0.00  0.00    +0.030 A 
BRANCH   9  12
ATOM     12  O   UNL     1       0.575 -17.036   0.457  0.00  0.00    -0.495 OA
ATOM     13  C   UNL     1      -0.001 -17.081   1.764  0.00  0.00    +0.277 C 
ENDBRANCH   9  12
ENDBRANCH   5   6
BRANCH   4  14
ATOM     14  C   UNL     1      -2.551 -15.013  -4.820  0.00  0.00    +0.020 A 
ATOM     15  C   UNL     1      -2.433 -16.142  -4.008  0.00  0.00    +0.012 A 
ATOM     16  C   UNL     1      -2.713 -17.390  -4.522  0.00  0.00    +0.005 A 
ATOM     17  C   UNL     1      -3.111 -17.525  -5.841  0.00  0.00    -0.042 A 
ATOM     18  C   UNL     1      -3.230 -16.410  -6.652  0.00  0.00    +0.005 A 
ATOM     19  C   UNL     1      -2.958 -15.155  -6.148  0.00  0.00    +0.012 A 
BRANCH  17  20
ATOM     20  C   UNL     1      -3.415 -18.892  -6.397  0.00  0.00    -0.013 C 
ATOM     21  C   UNL     1      -4.556 -19.525  -5.598  0.00  0.00    +0.015 C 
ATOM     22  C   UNL     1      -3.829 -18.766  -7.864  0.00  0.00    +0.015 C 
ATOM     23  C   UNL     1      -2.169 -19.774  -6.292  0.00  0.00    +0.015 C 
ENDBRANCH  17  20
ENDBRANCH   4  14
BRANCH   1  24
ATOM     24  S   UNL     1      -0.804 -11.085  -1.725  0.00  0.00    -0.076 S 
BRANCH  24  25
ATOM     25  C   UNL     1      -1.116  -9.364  -2.207  0.00  0.00    +0.174 C 
BRANCH  25  27
ATOM     26  N   UNL     1      -0.639  -7.104  -1.322  0.00  0.00    -0.206 N 
ATOM     27  C   UNL     1      -0.528  -8.439  -1.173  0.00  0.00    +0.242 C 
ATOM     28  O   UNL     1       0.045  -8.896  -0.206  0.00  0.00    -0.273 OA
ATOM     29  H   UNL     1      -1.098  -6.739  -2.095  0.00  0.00    +0.177 HD
BRANCH  26  31
ATOM     30  C   UNL     1      -0.200  -4.959  -0.504  0.00  0.00    +0.138 C 
ATOM     31  N   UNL     1      -0.093  -6.244  -0.361  0.00  0.00    -0.188 NA
BRANCH  30  34
ATOM     32  C   UNL     1       0.802  -1.825   1.306  0.00  0.00    +0.162 A 
ATOM     33  C   UNL     1       0.261  -2.669   0.354  0.00  0.00    +0.059 A 
ATOM     34  C   UNL     1       0.375  -4.053   0.507  0.00  0.00    -0.002 A 
ATOM     35  C   UNL     1       1.036  -4.577   1.621  0.00  0.00    +0.013 A 
ATOM     36  C   UNL     1       1.572  -3.729   2.567  0.00  0.00    +0.050 A 
ATOM     37  C   UNL     1       1.464  -2.355   2.412  0.00  0.00    +0.158 A 
BRANCH  37  38
ATOM     38  O   UNL     1       2.000  -1.523   3.344  0.00  0.00    -0.503 OA
ATOM     39  H   UNL     1       1.394  -1.295   4.062  0.00  0.00    +0.292 HD
ENDBRANCH  37  38
BRANCH  32  40
ATOM     40  O   UNL     1       0.693  -0.477   1.160  0.00  0.00    -0.489 OA
BRANCH  40  42
ATOM     41  C   UNL     1      -0.019   1.526   0.010  0.00  0.00    +0.048 C 
ATOM     42  C   UNL     1       0.002  -0.004   0.002  0.00  0.00    +0.226 C 
ENDBRANCH  40  42
ENDBRANCH  32  40
ENDBRANCH  30  34
ENDBRANCH  26  31
ENDBRANCH  25  27
ENDBRANCH  24  25
ENDBRANCH   1  24
TORSDOF 12
