REMARK  Name = ZINC45936427
REMARK  7 active torsions:
REMARK  status: ('A' for Active; 'I' for Inactive)
REMARK    1  A    between atoms: C_1  and  C_2
REMARK    2  A    between atoms: C_2  and  C_4
REMARK    3  A    between atoms: C_2  and  S_18
REMARK    4  A    between atoms: N_9  and  C_10
REMARK    5  A    between atoms: C_13  and  C_16
REMARK    6  A    between atoms: S_18  and  C_19
REMARK    7  A    between atoms: N_29  and  C_30
REMARK                            x       y       z     vdW  Elec       q    Type
REMARK                         _______ _______ _______ _____ _____    ______ ____
ROOT
ATOM      1  C   UNL     1       0.231   1.784  -0.125  0.00  0.00    +0.029 C 
ATOM      2  C   UNL     1       0.313   0.259  -0.229  0.00  0.00    +0.137 C 
ENDROOT
BRANCH   2   3
ATOM      3  C   UNL     1       1.123  -0.119  -1.443  0.00  0.00    +0.234 C 
ATOM      4  O   UNL     1       2.285  -0.440  -1.321  0.00  0.00    -0.274 OA
ATOM      5  N   UNL     1       0.554  -0.100  -2.665  0.00  0.00    -0.239 N 
ATOM      6  C   UNL     1       1.277  -0.438  -3.750  0.00  0.00    +0.310 C 
ATOM      7  O   UNL     1       2.443  -0.759  -3.627  0.00  0.00    -0.252 OA
ATOM      8  N   UNL     1       0.709  -0.419  -4.972  0.00  0.00    -0.269 N 
ATOM      9  H   UNL     1      -0.377   0.157  -2.763  0.00  0.00    +0.159 HD
ATOM     10  H   UNL     1      -0.238  -0.228  -5.063  0.00  0.00    +0.156 HD
BRANCH   8  11
ATOM     11  C   UNL     1       1.481  -0.674  -6.105  0.00  0.00    +0.035 A 
ATOM     12  C   UNL     1       2.514  -1.604  -6.046  0.00  0.00    +0.024 A 
ATOM     13  C   UNL     1       3.279  -1.858  -7.163  0.00  0.00    +0.020 A 
ATOM     14  C   UNL     1       3.017  -1.180  -8.356  0.00  0.00    +0.052 A 
ATOM     15  C   UNL     1       1.978  -0.246  -8.412  0.00  0.00    +0.020 A 
ATOM     16  C   UNL     1       1.214  -0.001  -7.293  0.00  0.00    +0.024 A 
BRANCH  14  17
ATOM     17  C   UNL     1       3.810  -1.441  -9.519  0.00  0.00    +0.099 C 
ATOM     18  N   UNL     1       4.440  -1.648 -10.442  0.00  0.00    -0.191 NA
ENDBRANCH  14  17
ENDBRANCH   8  11
ENDBRANCH   2   3
BRANCH   2  19
ATOM     19  S   UNL     1       1.109  -0.406   1.259  0.00  0.00    -0.075 S 
BRANCH  19  20
ATOM     20  C   UNL     1      -0.017  -0.014   2.556  0.00  0.00    +0.173 A 
ATOM     21  N   UNL     1      -1.123   0.620   2.253  0.00  0.00    -0.223 NA
ATOM     22  C   UNL     1      -2.029   0.951   3.195  0.00  0.00    +0.079 A 
ATOM     23  C   UNL     1      -3.209   1.627   2.871  0.00  0.00    +0.028 A 
ATOM     24  C   UNL     1      -4.100   1.943   3.857  0.00  0.00    +0.002 A 
ATOM     25  C   UNL     1      -3.851   1.603   5.181  0.00  0.00    +0.001 A 
ATOM     26  C   UNL     1      -2.706   0.942   5.529  0.00  0.00    +0.015 A 
ATOM     27  C   UNL     1      -1.780   0.606   4.543  0.00  0.00    +0.065 A 
ATOM     28  C   UNL     1      -0.533  -0.104   4.858  0.00  0.00    +0.263 A 
ATOM     29  O   UNL     1      -0.262  -0.428   5.999  0.00  0.00    -0.267 OA
ATOM     30  N   UNL     1       0.300  -0.390   3.830  0.00  0.00    -0.284 N 
BRANCH  30  31
ATOM     31  C   UNL     1       1.555  -1.102   4.087  0.00  0.00    +0.093 C 
ATOM     32  C   UNL     1       2.414  -0.619   5.257  0.00  0.00    +0.027 C 
ATOM     33  C   UNL     1       2.861  -0.351   3.819  0.00  0.00    +0.027 C 
ENDBRANCH  30  31
ENDBRANCH  19  20
ENDBRANCH   2  19
TORSDOF 6
