REMARK  Name = ZINC06410251
REMARK  10 active torsions:
REMARK  status: ('A' for Active; 'I' for Inactive)
REMARK    1  A    between atoms: C_1  and  C_2
REMARK    2  A    between atoms: C_7  and  C_15
REMARK    3  A    between atoms: C_13  and  C_14
REMARK    4  A    between atoms: C_15  and  N_64
REMARK    5  A    between atoms: C_16  and  C_17
REMARK    6  A    between atoms: C_16  and  N_64
REMARK    7  A    between atoms: C_23  and  C_24
REMARK    8  A    between atoms: C_23  and  N_64
REMARK    9  A    between atoms: N_28  and  C_29
REMARK   10  A    between atoms: C_29  and  C_30
REMARK                            x       y       z     vdW  Elec       q    Type
REMARK                         _______ _______ _______ _____ _____    ______ ____
ROOT
ATOM      1  N   UNL     1       7.537  -1.462  -1.463  0.00  0.00    +0.390 N 
ATOM      2  H   UNL     1       7.292  -0.609  -1.980  0.00  0.00    -0.080 HD
ENDROOT
BRANCH   1   3
ATOM      3  C   UNL     1       7.193  -1.274  -0.037  0.00  0.00    -0.036 C 
BRANCH   3  10
ATOM      4  C   UNL     1      -0.609   0.250   0.614  0.00  0.00    +0.044 C 
ATOM      5  C   UNL     1       0.806  -0.260   0.532  0.00  0.00    -0.046 A 
ATOM      6  C   UNL     1       1.057  -1.618   0.678  0.00  0.00    +0.004 A 
ATOM      7  C   UNL     1       2.332  -2.102   0.602  0.00  0.00    +0.010 A 
ATOM      8  C   UNL     1       3.395  -1.222   0.373  0.00  0.00    -0.001 A 
ATOM      9  C   UNL     1       4.774  -1.707   0.285  0.00  0.00    +0.017 A 
ATOM     10  C   UNL     1       5.763  -0.808   0.060  0.00  0.00    +0.001 A 
ATOM     11  C   UNL     1       5.459   0.563  -0.082  0.00  0.00    +0.251 A 
ATOM     12  O   UNL     1       6.364   1.355  -0.283  0.00  0.00    -0.268 OA
ATOM     13  N   UNL     1       4.197   1.018  -0.001  0.00  0.00    -0.322 N 
ATOM     14  H   UNL     1       4.023   1.967  -0.104  0.00  0.00    +0.169 HD
ATOM     15  C   UNL     1       3.145   0.155   0.224  0.00  0.00    +0.052 A 
ATOM     16  C   UNL     1       1.839   0.625   0.306  0.00  0.00    -0.024 A 
ATOM     17  C   UNL     1       1.552   2.096   0.149  0.00  0.00    +0.046 C 
ENDBRANCH   3  10
ENDBRANCH   1   3
BRANCH   1  18
ATOM     18  C   UNL     1       6.774  -2.598  -2.021  0.00  0.00    -0.042 C 
BRANCH  18  19
ATOM     19  C   UNL     1       7.059  -2.700  -3.497  0.00  0.00    -0.064 A 
ATOM     20  C   UNL     1       6.252  -2.039  -4.404  0.00  0.00    +0.002 A 
ATOM     21  C   UNL     1       6.517  -2.128  -5.758  0.00  0.00    +0.000 A 
ATOM     22  C   UNL     1       7.583  -2.886  -6.205  0.00  0.00    +0.000 A 
ATOM     23  C   UNL     1       8.387  -3.551  -5.298  0.00  0.00    +0.000 A 
ATOM     24  C   UNL     1       8.126  -3.457  -3.944  0.00  0.00    +0.002 A 
ENDBRANCH  18  19
ENDBRANCH   1  18
BRANCH   1  25
ATOM     25  C   UNL     1       8.987  -1.709  -1.604  0.00  0.00    +0.001 C 
BRANCH  25  26
ATOM     26  C   UNL     1       9.736  -0.474  -1.176  0.00  0.00    +0.135 A 
ATOM     27  N   UNL     1      10.210  -0.220   0.019  0.00  0.00    -0.115 NA
ATOM     28  N   UNL     1      10.784   0.933  -0.016  0.00  0.00    -0.023 NA
ATOM     29  N   UNL     1      10.688   1.422  -1.204  0.00  0.00    -0.044 NA
ATOM     30  N   UNL     1      10.054   0.582  -1.949  0.00  0.00    -0.229 N 
BRANCH  30  31
ATOM     31  C   UNL     1       9.735   0.747  -3.370  0.00  0.00    +0.178 C 
BRANCH  31  32
ATOM     32  C   UNL     1       8.488   1.620  -3.515  0.00  0.00    +0.140 C 
ATOM     33  C   UNL     1       8.154   1.838  -5.012  0.00  0.00    +0.035 C 
ATOM     34  C   UNL     1       6.630   2.128  -4.935  0.00  0.00    +0.031 C 
ATOM     35  C   UNL     1       6.183   1.232  -3.760  0.00  0.00    +0.160 C 
ATOM     36  O   UNL     1       7.342   0.948  -2.967  0.00  0.00    -0.375 OA
ENDBRANCH  31  32
ENDBRANCH  30  31
ENDBRANCH  25  26
ENDBRANCH   1  25
TORSDOF 8
