REMARK  Name = ZINC20071754
REMARK  10 active torsions:
REMARK  status: ('A' for Active; 'I' for Inactive)
REMARK    1  A    between atoms: C_1  and  N_2
REMARK    2  A    between atoms: N_2  and  C_3
REMARK    3  A    between atoms: N_2  and  C_4
REMARK    4  A    between atoms: C_7  and  C_10
REMARK    5  A    between atoms: C_11  and  C_12
REMARK    6  A    between atoms: C_11  and  N_29
REMARK    7  A    between atoms: N_14  and  N_15
REMARK    8  A    between atoms: C_16  and  C_17
REMARK    9  A    between atoms: C_20  and  C_22
REMARK   10  A    between atoms: C_30  and  C_32
REMARK                            x       y       z     vdW  Elec       q    Type
REMARK                         _______ _______ _______ _____ _____    ______ ____
ROOT
ATOM      1  C   UNL     1      -7.477   6.669   0.193  0.00  0.00    +0.036 C 
ATOM      2  C   UNL     1      -6.125   6.630   0.103  0.00  0.00    +0.098 C 
ENDROOT
BRANCH   1   6
ATOM      3  C   UNL     1      -9.714   3.067   0.111  0.00  0.00    +0.029 A 
ATOM      4  C   UNL     1     -10.193   4.165   0.819  0.00  0.00    +0.023 A 
ATOM      5  C   UNL     1      -9.470   5.336   0.849  0.00  0.00    +0.010 A 
ATOM      6  C   UNL     1      -8.252   5.422   0.165  0.00  0.00    -0.023 A 
ATOM      7  C   UNL     1      -7.776   4.316  -0.551  0.00  0.00    +0.010 A 
ATOM      8  C   UNL     1      -8.503   3.147  -0.570  0.00  0.00    +0.023 A 
BRANCH   3  10
ATOM      9  C   UNL     1     -11.779   1.834   0.695  0.00  0.00    +0.129 C 
ATOM     10  N   UNL     1     -10.448   1.884   0.085  0.00  0.00    -0.336 N 
ATOM     11  C   UNL     1      -9.890   0.689  -0.553  0.00  0.00    +0.129 C 
ENDBRANCH   3  10
ENDBRANCH   1   6
BRANCH   2  12
ATOM     12  C   UNL     1      -5.426   5.339   0.116  0.00  0.00    +0.277 C 
ATOM     13  O   UNL     1      -4.873   4.938  -0.891  0.00  0.00    -0.267 OA
ATOM     14  N   UNL     1      -5.398   4.599   1.242  0.00  0.00    -0.202 N 
ATOM     15  H   UNL     1      -5.826   4.998   2.173  0.00  0.00    +0.178 HD
BRANCH  14  16
ATOM     16  N   UNL     1      -4.823   3.322   1.226  0.00  0.00    -0.184 NA
ATOM     17  C   UNL     1      -4.795   2.607   2.314  0.00  0.00    +0.176 C 
BRANCH  17  18
ATOM     18  C   UNL     1      -4.194   1.272   2.297  0.00  0.00    +0.148 A 
ATOM     19  C   UNL     1      -4.099   0.414   3.371  0.00  0.00    +0.051 A 
ATOM     20  C   UNL     1      -3.458  -0.743   2.909  0.00  0.00    +0.050 A 
ATOM     21  C   UNL     1      -3.189  -0.550   1.586  0.00  0.00    +0.136 A 
ATOM     22  O   UNL     1      -3.632   0.670   1.229  0.00  0.00    -0.454 OA
BRANCH  21  23
ATOM     23  C   UNL     1      -2.517  -1.517   0.695  0.00  0.00    +0.017 A 
ATOM     24  C   UNL     1      -2.092  -2.751   1.192  0.00  0.00    +0.013 A 
ATOM     25  C   UNL     1      -1.470  -3.652   0.354  0.00  0.00    +0.021 A 
ATOM     26  C   UNL     1      -1.256  -3.330  -0.977  0.00  0.00    +0.041 A 
ATOM     27  C   UNL     1      -1.671  -2.106  -1.474  0.00  0.00    +0.021 A 
ATOM     28  C   UNL     1      -2.299  -1.199  -0.647  0.00  0.00    +0.013 A 
ATOM     29 CL   UNL     1      -0.465  -4.466  -2.024  0.00  0.00    -0.084 Cl
ENDBRANCH  21  23
ENDBRANCH  17  18
ENDBRANCH  14  16
ENDBRANCH   2  12
BRANCH   2  30
ATOM     30  N   UNL     1      -5.396   7.819  -0.000  0.00  0.00    -0.277 N 
ATOM     31  C   UNL     1      -4.048   7.785  -0.008  0.00  0.00    +0.248 C 
ATOM     32  O   UNL     1      -3.467   6.717  -0.015  0.00  0.00    -0.270 OA
ATOM     33  H   UNL     1      -5.922   8.782  -0.075  0.00  0.00    +0.155 HD
BRANCH  31  34
ATOM     34  C   UNL     1      -3.277   9.046  -0.009  0.00  0.00    +0.037 A 
ATOM     35  C   UNL     1      -3.941  10.274  -0.006  0.00  0.00    +0.013 A 
ATOM     36  C   UNL     1      -3.215  11.447  -0.002  0.00  0.00    +0.001 A 
ATOM     37  C   UNL     1      -1.832  11.408  -0.010  0.00  0.00    +0.000 A 
ATOM     38  C   UNL     1      -1.168  10.194  -0.018  0.00  0.00    +0.001 A 
ATOM     39  C   UNL     1      -1.881   9.014  -0.017  0.00  0.00    +0.013 A 
ENDBRANCH  31  34
ENDBRANCH   2  30
TORSDOF 8
