REMARK  Name = ZINC06197809
REMARK  16 active torsions:
REMARK  status: ('A' for Active; 'I' for Inactive)
REMARK    1  A    between atoms: C_1  and  C_2
REMARK    2  A    between atoms: C_2  and  C_3
REMARK    3  A    between atoms: C_10  and  C_15
REMARK    4  A    between atoms: C_15  and  N_16
REMARK    5  A    between atoms: N_16  and  C_17
REMARK    6  A    between atoms: N_16  and  C_27
REMARK    7  A    between atoms: C_17  and  C_18
REMARK    8  A    between atoms: C_27  and  N_29
REMARK    9  A    between atoms: N_29  and  C_30
REMARK   10  A    between atoms: C_30  and  C_31
REMARK   11  A    between atoms: C_31  and  C_32
REMARK   12  A    between atoms: C_32  and  N_72
REMARK   13  A    between atoms: C_33  and  C_34
REMARK   14  A    between atoms: C_33  and  N_72
REMARK   15  A    between atoms: C_35  and  C_36
REMARK   16  A    between atoms: C_35  and  N_72
REMARK                            x       y       z     vdW  Elec       q    Type
REMARK                         _______ _______ _______ _____ _____    ______ ____
ROOT
ATOM      1  N   UNL     1      -2.851   0.494   1.260  0.00  0.00    -0.304 N 
ENDROOT
BRANCH   1   2
ATOM      2  C   UNL     1      -3.666   1.414   1.813  0.00  0.00    +0.133 C 
ATOM      3  S   UNL     1      -3.973   1.384   3.497  0.00  0.00    -0.019 S 
BRANCH   2   4
ATOM      4  N   UNL     1      -4.240   2.358   1.040  0.00  0.00    -0.326 N 
ATOM      5  H   UNL     1      -4.066   2.375   0.086  0.00  0.00    +0.148 HD
BRANCH   4   6
ATOM      6  C   UNL     1      -5.125   3.358   1.642  0.00  0.00    +0.101 C 
BRANCH   6   7
ATOM      7  C   UNL     1      -5.639   4.304   0.554  0.00  0.00    +0.000 C 
BRANCH   7   8
ATOM      8  C   UNL     1      -6.564   5.348   1.183  0.00  0.00    -0.077 C 
BRANCH   8   9
ATOM      9  N   UNL     1      -7.125   6.192   0.106  0.00  0.00    +0.379 N 
ATOM     10  H   UNL     1      -6.384   6.404  -0.572  0.00  0.00    -0.082 HD
BRANCH   9  11
ATOM     11  C   UNL     1      -8.216   5.472  -0.583  0.00  0.00    -0.082 C 
ATOM     12  C   UNL     1      -8.626   6.267  -1.824  0.00  0.00    -0.017 C 
ENDBRANCH   9  11
BRANCH   9  13
ATOM     13  C   UNL     1      -7.635   7.459   0.672  0.00  0.00    -0.082 C 
ATOM     14  C   UNL     1      -6.448   8.385   0.947  0.00  0.00    -0.017 C 
ENDBRANCH   9  13
ENDBRANCH   8   9
ENDBRANCH   7   8
ENDBRANCH   6   7
ENDBRANCH   4   6
ENDBRANCH   2   4
ENDBRANCH   1   2
BRANCH   1  15
ATOM     15  C   UNL     1      -2.291  -0.579   2.085  0.00  0.00    +0.147 C 
BRANCH  15  23
ATOM     16  C   UNL     1      -4.198  -6.082  -0.003  0.00  0.00    -0.047 A 
ATOM     17  C   UNL     1      -5.315  -6.181   0.816  0.00  0.00    +0.005 A 
ATOM     18  C   UNL     1      -5.621  -5.179   1.711  0.00  0.00    +0.026 A 
ATOM     19  C   UNL     1      -4.803  -4.057   1.798  0.00  0.00    +0.049 A 
ATOM     20  C   UNL     1      -3.672  -3.961   0.966  0.00  0.00    -0.001 A 
ATOM     21  C   UNL     1      -3.381  -4.990   0.064  0.00  0.00    +0.013 A 
ATOM     22  C   UNL     1      -2.817  -2.776   1.065  0.00  0.00    +0.020 A 
ATOM     23  C   UNL     1      -3.149  -1.811   1.958  0.00  0.00    +0.035 A 
ATOM     24  C   UNL     1      -4.292  -1.959   2.773  0.00  0.00    +0.254 A 
ATOM     25  O   UNL     1      -4.569  -1.081   3.572  0.00  0.00    -0.268 OA
ATOM     26  N   UNL     1      -5.085  -3.041   2.686  0.00  0.00    -0.322 N 
ATOM     27  H   UNL     1      -5.891  -3.109   3.273  0.00  0.00    +0.169 HD
BRANCH  16  29
ATOM     28  C   UNL     1      -2.982  -8.223  -0.297  0.00  0.00    +0.009 C 
ATOM     29  C   UNL     1      -3.884  -7.190  -0.975  0.00  0.00    +0.032 C 
ENDBRANCH  16  29
ENDBRANCH  15  23
ENDBRANCH   1  15
BRANCH   1  30
ATOM     30  C   UNL     1      -2.526   0.567  -0.167  0.00  0.00    +0.142 C 
BRANCH  30  31
ATOM     31  C   UNL     1      -1.247   1.341  -0.352  0.00  0.00    -0.026 A 
ATOM     32  C   UNL     1      -0.029   0.696  -0.247  0.00  0.00    +0.009 A 
ATOM     33  C   UNL     1       1.148   1.401  -0.421  0.00  0.00    +0.050 A 
ATOM     34  C   UNL     1       1.108   2.758  -0.697  0.00  0.00    +0.166 A 
ATOM     35  C   UNL     1      -0.119   3.409  -0.798  0.00  0.00    +0.167 A 
ATOM     36  C   UNL     1      -1.294   2.697  -0.621  0.00  0.00    +0.054 A 
ATOM     37  O   UNL     1       0.108   4.727  -1.073  0.00  0.00    -0.453 OA
ATOM     38  C   UNL     1       1.467   4.793  -1.543  0.00  0.00    +0.466 C 
ATOM     39  O   UNL     1       2.103   3.668  -0.909  0.00  0.00    -0.453 OA
ENDBRANCH  30  31
ENDBRANCH   1  30
TORSDOF 13
