REMARK  Name = ZINC13598476
REMARK  4 active torsions:
REMARK  status: ('A' for Active; 'I' for Inactive)
REMARK    1  A    between atoms: C_1  and  C_2
REMARK    2  A    between atoms: C_4  and  C_22
REMARK    3  A    between atoms: C_8  and  C_13
REMARK    4  A    between atoms: C_16  and  N_19
REMARK                            x       y       z     vdW  Elec       q    Type
REMARK                         _______ _______ _______ _____ _____    ______ ____
ROOT
ATOM      1  C   UNL     1      -0.018   1.503   0.010  0.00  0.00    +0.044 C 
ATOM      2  C   UNL     1       0.002  -0.004   0.002  0.00  0.00    -0.049 A 
ATOM      3  C   UNL     1       0.006  -0.686  -1.207  0.00  0.00    +0.008 A 
ATOM      4  C   UNL     1       0.025  -2.063  -1.237  0.00  0.00    -0.026 A 
ATOM      5  C   UNL     1       0.041  -2.780  -0.044  0.00  0.00    +0.053 A 
ATOM      6  C   UNL     1       0.037  -2.084   1.178  0.00  0.00    +0.007 A 
ATOM      7  C   UNL     1       0.023  -0.688   1.185  0.00  0.00    +0.014 A 
ATOM      8  C   UNL     1       0.054  -2.853   2.433  0.00  0.00    -0.004 A 
ATOM      9  C   UNL     1       0.072  -4.220   2.357  0.00  0.00    +0.079 A 
ATOM     10  C   UNL     1       0.075  -4.857   1.103  0.00  0.00    +0.250 A 
ATOM     11  N   UNL     1       0.060  -4.159  -0.045  0.00  0.00    -0.322 N 
ATOM     12  O   UNL     1       0.093  -6.075   1.057  0.00  0.00    -0.268 OA
ATOM     13  C   UNL     1       0.028  -2.792  -2.556  0.00  0.00    +0.046 C 
ATOM     14  H   UNL     1       0.063  -4.634  -0.891  0.00  0.00    +0.169 HD
ENDROOT
BRANCH   8  15
ATOM     15  C   UNL     1       0.051  -2.165   3.743  0.00  0.00    -0.017 A 
ATOM     16  C   UNL     1      -1.054  -1.407   4.135  0.00  0.00    +0.011 A 
ATOM     17  C   UNL     1      -1.050  -0.769   5.358  0.00  0.00    +0.033 A 
ATOM     18  C   UNL     1       0.046  -0.878   6.195  0.00  0.00    +0.126 A 
ATOM     19  C   UNL     1       1.144  -1.628   5.813  0.00  0.00    +0.033 A 
ATOM     20  C   UNL     1       1.151  -2.276   4.595  0.00  0.00    +0.011 A 
BRANCH  18  21
ATOM     21  N   UNL     1       0.043  -0.190   7.506  0.00  0.00    +0.056 N 
ATOM     22  O   UNL     1      -0.915   0.466   7.843  0.00  0.00    -0.126 OA
ATOM     23  O   UNL     1       1.000  -0.284   8.240  0.00  0.00    -0.126 OA
ENDBRANCH  18  21
ENDBRANCH   8  15
TORSDOF 2
