REMARK  Name = ZINC21775546
REMARK  12 active torsions:
REMARK  status: ('A' for Active; 'I' for Inactive)
REMARK    1  A    between atoms: C_1  and  C_2
REMARK    2  A    between atoms: C_2  and  O_3
REMARK    3  A    between atoms: O_3  and  C_4
REMARK    4  A    between atoms: C_7  and  S_11
REMARK    5  A    between atoms: C_9  and  C_10
REMARK    6  A    between atoms: S_11  and  N_14
REMARK    7  A    between atoms: N_14  and  C_15
REMARK    8  A    between atoms: C_15  and  C_16
REMARK    9  A    between atoms: C_16  and  C_18
REMARK   10  A    between atoms: C_16  and  N_29
REMARK   11  A    between atoms: N_27  and  C_28
REMARK   12  A    between atoms: N_32  and  C_35
REMARK                            x       y       z     vdW  Elec       q    Type
REMARK                         _______ _______ _______ _____ _____    ______ ____
ROOT
ATOM      1  C   UNL     1       3.718  -2.037   4.835  0.00  0.00    +0.102 C 
ENDROOT
BRANCH   1   2
ATOM      2  C   UNL     1       2.985  -1.632   3.582  0.00  0.00    -0.029 A 
ATOM      3  C   UNL     1       2.318  -2.583   2.831  0.00  0.00    +0.007 A 
ATOM      4  C   UNL     1       1.652  -2.211   1.684  0.00  0.00    +0.024 A 
ATOM      5  C   UNL     1       1.645  -0.877   1.272  0.00  0.00    +0.033 A 
ATOM      6  C   UNL     1       2.309   0.071   2.029  0.00  0.00    -0.026 A 
ATOM      7  C   UNL     1       2.979  -0.311   3.180  0.00  0.00    +0.010 A 
ATOM      8  C   UNL     1       2.325   1.530   1.648  0.00  0.00    +0.038 C 
ATOM      9  C   UNL     1       1.879   1.687   0.192  0.00  0.00    +0.024 C 
ATOM     10  C   UNL     1       0.608   0.852  -0.005  0.00  0.00    +0.105 C 
ATOM     11  N   UNL     1       0.959  -0.566   0.098  0.00  0.00    -0.333 N 
ATOM     12  C   UNL     1      -0.230  -1.415  -0.057  0.00  0.00    +0.129 C 
ENDBRANCH   1   2
BRANCH   1  13
ATOM     13  N   UNL     1       4.401  -3.318   4.610  0.00  0.00    -0.298 NA
ATOM     14  C   UNL     1       5.004  -3.818   5.854  0.00  0.00    +0.066 C 
ATOM     15  C   UNL     1       5.635  -5.188   5.596  0.00  0.00    -0.064 C 
ATOM     16  N   UNL     1       6.645  -5.068   4.535  0.00  0.00    +0.379 N 
ATOM     17  C   UNL     1       6.042  -4.568   3.292  0.00  0.00    -0.064 C 
ATOM     18  C   UNL     1       5.411  -3.197   3.550  0.00  0.00    +0.066 C 
ATOM     19  C   UNL     1       7.328  -6.349   4.311  0.00  0.00    -0.096 C 
ATOM     20  H   UNL     1       7.399  -4.338   4.865  0.00  0.00    -0.082 HD
ENDBRANCH   1  13
BRANCH   1  21
ATOM     21  C   UNL     1       2.719  -2.186   5.984  0.00  0.00    +0.129 C 
BRANCH  21  22
ATOM     22  N   UNL     1       2.083  -0.893   6.249  0.00  0.00    -0.188 NA
ATOM     23  H   UNL     1       2.604   0.040   5.988  0.00  0.00    +0.148 HD
BRANCH  22  24
ATOM     24  S   UNL     1       0.702  -0.821   7.159  0.00  0.00    +0.058 S 
ATOM     25  O   UNL     1       0.351   0.553   7.257  0.00  0.00    -0.153 OA
ATOM     26  O   UNL     1      -0.184  -1.798   6.631  0.00  0.00    -0.153 OA
BRANCH  24  30
ATOM     27  C   UNL     1       1.782  -2.181  11.341  0.00  0.00    +0.123 A 
ATOM     28  C   UNL     1       1.358  -3.106  10.398  0.00  0.00    +0.048 A 
ATOM     29  C   UNL     1       1.024  -2.688   9.124  0.00  0.00    +0.032 A 
ATOM     30  C   UNL     1       1.122  -1.350   8.787  0.00  0.00    +0.106 A 
ATOM     31  C   UNL     1       1.544  -0.427   9.725  0.00  0.00    +0.035 A 
ATOM     32  C   UNL     1       1.875  -0.840  11.002  0.00  0.00    -0.007 A 
ATOM     33  C   UNL     1       2.335   0.167  12.024  0.00  0.00    +0.047 C 
BRANCH  27  34
ATOM     34  O   UNL     1       2.107  -2.590  12.596  0.00  0.00    -0.492 OA
BRANCH  34  36
ATOM     35  C   UNL     1       2.393  -4.253  14.326  0.00  0.00    +0.048 C 
ATOM     36  C   UNL     1       1.988  -3.986  12.875  0.00  0.00    +0.225 C 
ENDBRANCH  34  36
ENDBRANCH  27  34
ENDBRANCH  24  30
ENDBRANCH  22  24
ENDBRANCH  21  22
ENDBRANCH   1  21
TORSDOF 8
