REMARK  Name = ZINC44861659
REMARK  6 active torsions:
REMARK  status: ('A' for Active; 'I' for Inactive)
REMARK    1  A    between atoms: C_1  and  C_2
REMARK    2  A    between atoms: C_2  and  C_3
REMARK    3  A    between atoms: C_3  and  C_5
REMARK    4  A    between atoms: C_3  and  C_9
REMARK    5  A    between atoms: N_6  and  O_7
REMARK    6  A    between atoms: C_16  and  C_18
REMARK                            x       y       z     vdW  Elec       q    Type
REMARK                         _______ _______ _______ _____ _____    ______ ____
ROOT
ATOM      1  C   UNL     1      -1.332  -0.524  -0.015  0.00  0.00    +0.141 C 
ENDROOT
BRANCH   1   2
ATOM      2  C   UNL     1      -1.345  -2.031  -0.016  0.00  0.00    +0.226 C 
ATOM      3  O   UNL     1      -1.792  -2.633  -0.970  0.00  0.00    -0.275 OA
ATOM      4  N   UNL     1      -0.861  -2.710   1.043  0.00  0.00    -0.298 N 
ATOM      5  C   UNL     1      -0.418  -1.998   2.249  0.00  0.00    +0.108 C 
ATOM      6  C   UNL     1       1.014  -2.432   2.579  0.00  0.00    +0.019 C 
ATOM      7  C   UNL     1       1.067  -3.958   2.694  0.00  0.00    +0.003 C 
ATOM      8  C   UNL     1       0.668  -4.586   1.357  0.00  0.00    +0.022 C 
ATOM      9  C   UNL     1      -0.773  -4.176   1.015  0.00  0.00    +0.073 C 
ATOM     10  C   UNL     1      -1.135  -4.686  -0.381  0.00  0.00    +0.028 C 
ENDBRANCH   1   2
BRANCH   1  11
ATOM     11  C   UNL     1      -2.291  -0.013  -1.059  0.00  0.00    +0.144 C 
ATOM     12  N   UNL     1      -1.861   0.291  -2.238  0.00  0.00    -0.076 NA
ATOM     13  N   UNL     1      -3.627   0.131  -0.755  0.00  0.00    -0.343 N 
ATOM     14  H   UNL     1      -3.950  -0.098   0.131  0.00  0.00    +0.144 HD
ATOM     15  H   UNL     1      -4.245   0.460  -1.426  0.00  0.00    +0.144 HD
BRANCH  12  16
ATOM     16  O   UNL     1      -2.763   0.772  -3.219  0.00  0.00    -0.408 OA
ATOM     17  H   UNL     1      -2.349   0.972  -4.069  0.00  0.00    +0.328 HD
ENDBRANCH  12  16
ENDBRANCH   1  11
BRANCH   1  19
ATOM     18  C   UNL     1       0.113   1.500  -0.251  0.00  0.00    +0.005 C 
ATOM     19  C   UNL     1       0.080  -0.027  -0.333  0.00  0.00    +0.017 C 
ENDBRANCH   1  19
TORSDOF 4
