REMARK  Name = ZINC20815787
REMARK  3 active torsions:
REMARK  status: ('A' for Active; 'I' for Inactive)
REMARK    1  A    between atoms: C_1  and  C_2
REMARK    2  A    between atoms: C_8  and  N_10
REMARK    3  A    between atoms: N_10  and  C_11
REMARK                            x       y       z     vdW  Elec       q    Type
REMARK                         _______ _______ _______ _____ _____    ______ ____
ROOT
ATOM      1  C   UNL     1       0.798   0.428   3.512  0.00  0.00    +0.081 C 
ATOM      2  C   UNL     1       0.194   0.786   4.698  0.00  0.00    +0.059 C 
ATOM      3  C   UNL     1      -1.272   0.954   4.785  0.00  0.00    +0.000 A 
ATOM      4  C   UNL     1      -2.097   0.759   3.684  0.00  0.00    +0.009 A 
ATOM      5  C   UNL     1      -3.460   0.927   3.817  0.00  0.00    +0.001 A 
ATOM      6  C   UNL     1      -4.011   1.289   5.038  0.00  0.00    +0.001 A 
ATOM      7  C   UNL     1      -3.208   1.487   6.140  0.00  0.00    +0.014 A 
ATOM      8  C   UNL     1      -1.827   1.321   6.028  0.00  0.00    +0.046 A 
ATOM      9  C   UNL     1      -0.936   1.522   7.178  0.00  0.00    +0.259 C 
ATOM     10  O   UNL     1      -1.410   1.838   8.253  0.00  0.00    -0.269 OA
ATOM     11  N   UNL     1       0.392   1.360   7.064  0.00  0.00    -0.186 N 
ATOM     12  C   UNL     1       0.987   1.006   5.913  0.00  0.00    +0.260 C 
ATOM     13  O   UNL     1       2.196   0.871   5.876  0.00  0.00    -0.269 OA
ATOM     14  C   UNL     1       1.189   1.565   8.192  0.00  0.00    +0.135 A 
ATOM     15  C   UNL     1       1.755   2.814   8.418  0.00  0.00    +0.044 A 
ATOM     16  C   UNL     1       2.543   3.003   9.540  0.00  0.00    +0.005 A 
ATOM     17  C   UNL     1       2.738   1.931  10.400  0.00  0.00    +0.020 A 
ATOM     18  C   UNL     1       2.145   0.717  10.113  0.00  0.00    +0.113 A 
ATOM     19  N   UNL     1       1.395   0.568   9.038  0.00  0.00    -0.239 NA
ENDROOT
BRANCH   1  20
ATOM     20  N   UNL     1       0.213   0.749   2.329  0.00  0.00    -0.346 N 
ATOM     21  H   UNL     1      -0.576   1.312   2.314  0.00  0.00    +0.146 HD
BRANCH  20  28
ATOM     22  C   UNL     1       0.933   2.582   0.204  0.00  0.00    +0.009 C 
ATOM     23  C   UNL     1       0.386   1.180  -0.073  0.00  0.00    +0.006 C 
ATOM     24  C   UNL     1      -1.139   1.241  -0.185  0.00  0.00    +0.005 C 
ATOM     25  C   UNL     1      -1.686  -0.161  -0.462  0.00  0.00    +0.000 C 
ATOM     26  C   UNL     1      -1.296  -1.096   0.684  0.00  0.00    +0.002 C 
ATOM     27  C   UNL     1       0.228  -1.157   0.796  0.00  0.00    +0.022 C 
ATOM     28  C   UNL     1       0.776   0.244   1.073  0.00  0.00    +0.073 C 
ENDBRANCH  20  28
ENDBRANCH   1  20
TORSDOF 2
