REMARK  Name = ZINC63308270
REMARK  13 active torsions:
REMARK  status: ('A' for Active; 'I' for Inactive)
REMARK    1  A    between atoms: C_1  and  C_2
REMARK    2  A    between atoms: C_4  and  C_38
REMARK    3  A    between atoms: N_10  and  C_11
REMARK    4  A    between atoms: N_13  and  C_14
REMARK    5  A    between atoms: C_16  and  O_24
REMARK    6  A    between atoms: C_17  and  O_22
REMARK    7  A    between atoms: C_18  and  O_20
REMARK    8  A    between atoms: O_20  and  C_21
REMARK    9  A    between atoms: O_22  and  C_23
REMARK   10  A    between atoms: O_24  and  C_25
REMARK   11  A    between atoms: N_26  and  C_27
REMARK   12  A    between atoms: C_27  and  C_28
REMARK   13  A    between atoms: C_28  and  C_29
REMARK                            x       y       z     vdW  Elec       q    Type
REMARK                         _______ _______ _______ _____ _____    ______ ____
ROOT
ATOM      1  C   UNL     1       3.281  -0.652  -0.352  0.00  0.00    +0.066 C 
ATOM      2  C   UNL     1       3.722   0.593   0.374  0.00  0.00    +0.044 A 
ATOM      3  C   UNL     1       4.422   1.585  -0.295  0.00  0.00    +0.046 A 
ATOM      4  C   UNL     1       4.809   2.713   0.410  0.00  0.00    +0.044 A 
ATOM      5  N   UNL     1       4.501   2.809   1.693  0.00  0.00    -0.217 NA
ATOM      6  C   UNL     1       3.831   1.843   2.302  0.00  0.00    +0.231 A 
ATOM      7  N   UNL     1       3.442   0.755   1.656  0.00  0.00    -0.217 NA
ATOM      8  N   UNL     1       3.525   1.978   3.650  0.00  0.00    -0.297 N 
ATOM      9  C   UNL     1       2.705   1.067   4.259  0.00  0.00    +0.198 C 
ATOM     10  N   UNL     1       3.091   0.474   5.377  0.00  0.00    -0.129 NA
ATOM     11  N   UNL     1       1.490   0.771   3.714  0.00  0.00    -0.357 N 
ATOM     12  C   UNL     1       5.572   3.817  -0.276  0.00  0.00    +0.066 C 
ATOM     13  H   UNL     1       3.892   2.717   4.160  0.00  0.00    +0.171 HD
ATOM     14  H   UNL     1       0.895   0.150   4.163  0.00  0.00    +0.162 HD
ENDROOT
BRANCH  10  15
ATOM     15  C   UNL     1       4.339   0.651   5.833  0.00  0.00    +0.330 C 
ATOM     16  O   UNL     1       5.088   1.430   5.272  0.00  0.00    -0.250 OA
ATOM     17  N   UNL     1       4.764  -0.033   6.914  0.00  0.00    -0.268 N 
ATOM     18  H   UNL     1       4.175  -0.669   7.348  0.00  0.00    +0.156 HD
BRANCH  17  19
ATOM     19  C   UNL     1       6.057   0.176   7.411  0.00  0.00    +0.042 A 
ATOM     20  C   UNL     1       6.638   1.434   7.326  0.00  0.00    +0.073 A 
ATOM     21  C   UNL     1       7.917   1.641   7.817  0.00  0.00    +0.167 A 
ATOM     22  C   UNL     1       8.618   0.590   8.395  0.00  0.00    +0.204 A 
ATOM     23  C   UNL     1       8.036  -0.669   8.479  0.00  0.00    +0.167 A 
ATOM     24  C   UNL     1       6.755  -0.874   7.992  0.00  0.00    +0.073 A 
BRANCH  23  25
ATOM     25  O   UNL     1       8.721  -1.699   9.044  0.00  0.00    -0.491 OA
ATOM     26  C   UNL     1       8.062  -2.966   9.098  0.00  0.00    +0.277 C 
ENDBRANCH  23  25
BRANCH  22  27
ATOM     27  O   UNL     1       9.876   0.793   8.878  0.00  0.00    -0.488 OA
ATOM     28  C   UNL     1       9.989   1.191  10.245  0.00  0.00    +0.277 C 
ENDBRANCH  22  27
BRANCH  21  29
ATOM     29  O   UNL     1       8.486   2.874   7.734  0.00  0.00    -0.491 OA
ATOM     30  C   UNL     1       7.709   3.908   7.128  0.00  0.00    +0.277 C 
ENDBRANCH  21  29
ENDBRANCH  17  19
ENDBRANCH  10  15
BRANCH  11  31
ATOM     31  C   UNL     1       1.085   1.389   2.449  0.00  0.00    +0.120 C 
BRANCH  31  32
ATOM     32  C   UNL     1      -0.442   1.404   2.355  0.00  0.00    +0.054 C 
BRANCH  32  33
ATOM     33  C   UNL     1      -0.862   2.126   1.101  0.00  0.00    -0.040 C 
ATOM     34  C   UNL     1      -2.118   2.486   0.751  0.00  0.00    -0.001 A 
ATOM     35  C   UNL     1      -3.419   2.319   1.409  0.00  0.00    +0.010 A 
ATOM     36  C   UNL     1      -4.528   2.796   0.799  0.00  0.00    +0.001 A 
ATOM     37  C   UNL     1      -4.466   3.444  -0.442  0.00  0.00    +0.002 A 
ATOM     38  C   UNL     1      -3.307   3.635  -1.108  0.00  0.00    +0.026 A 
ATOM     39  C   UNL     1      -2.079   3.175  -0.559  0.00  0.00    +0.043 A 
ATOM     40  N   UNL     1      -0.846   3.237  -1.002  0.00  0.00    -0.380 N 
ATOM     41  C   UNL     1       0.037   2.600  -0.019  0.00  0.00    +0.144 C 
ATOM     42  H   UNL     1      -0.565   3.641  -1.838  0.00  0.00    +0.160 HD
ENDBRANCH  32  33
ENDBRANCH  31  32
ENDBRANCH  11  31
TORSDOF 8
