REMARK  Name = ZINC07549208
REMARK  8 active torsions:
REMARK  status: ('A' for Active; 'I' for Inactive)
REMARK    1  A    between atoms: C_1  and  C_2
REMARK    2  A    between atoms: C_5  and  C_9
REMARK    3  A    between atoms: C_6  and  C_8
REMARK    4  A    between atoms: C_9  and  O_11
REMARK    5  A    between atoms: O_11  and  C_12
REMARK    6  A    between atoms: C_12  and  C_13
REMARK    7  A    between atoms: N_18  and  C_19
REMARK    8  A    between atoms: C_25  and  C_27
REMARK                            x       y       z     vdW  Elec       q    Type
REMARK                         _______ _______ _______ _____ _____    ______ ____
ROOT
ATOM      1  C   UNL     1       2.277   4.148  -1.166  0.00  0.00    +0.258 C 
ATOM      2  O   UNL     1       3.263   3.442  -1.137  0.00  0.00    -0.272 OA
ATOM      3  N   UNL     1       2.402   5.469  -1.404  0.00  0.00    -0.237 N 
ATOM      4  C   UNL     1       3.621   6.005  -1.609  0.00  0.00    +0.306 C 
ATOM      5  O   UNL     1       4.609   5.297  -1.580  0.00  0.00    -0.252 OA
ATOM      6  N   UNL     1       3.745   7.326  -1.847  0.00  0.00    -0.296 N 
ATOM      7  H   UNL     1       1.613   6.034  -1.428  0.00  0.00    +0.159 HD
ATOM      8  H   UNL     1       2.957   7.891  -1.871  0.00  0.00    +0.151 HD
ENDROOT
BRANCH   6   9
ATOM      9  C   UNL     1       5.071   7.908  -2.070  0.00  0.00    +0.077 C 
ATOM     10  C   UNL     1       5.716   8.240  -0.723  0.00  0.00    +0.022 C 
ATOM     11  C   UNL     1       4.838   9.242   0.030  0.00  0.00    +0.002 C 
ATOM     12  C   UNL     1       4.700  10.521  -0.798  0.00  0.00    +0.000 C 
ATOM     13  C   UNL     1       4.056  10.190  -2.146  0.00  0.00    +0.005 C 
ATOM     14  C   UNL     1       4.933   9.188  -2.898  0.00  0.00    +0.006 C 
ATOM     15  C   UNL     1       4.288   8.856  -4.245  0.00  0.00    +0.009 C 
ENDBRANCH   6   9
BRANCH   1  16
ATOM     16  C   UNL     1       0.914   3.549  -0.937  0.00  0.00    +0.328 C 
BRANCH  16  17
ATOM     17  O   UNL     1       1.045   2.122  -0.704  0.00  0.00    -0.452 OA
BRANCH  17  18
ATOM     18  C   UNL     1      -0.090   1.432  -0.480  0.00  0.00    +0.340 C 
ATOM     19  O   UNL     1      -1.160   2.005  -0.484  0.00  0.00    -0.245 OA
BRANCH  18  24
ATOM     20  C   UNL     1       0.132  -4.239   0.471  0.00  0.00    +0.044 C 
ATOM     21  C   UNL     1       0.074  -2.753   0.222  0.00  0.00    -0.050 A 
ATOM     22  C   UNL     1       1.225  -2.068  -0.125  0.00  0.00    +0.004 A 
ATOM     23  C   UNL     1       1.178  -0.710  -0.360  0.00  0.00    +0.015 A 
ATOM     24  C   UNL     1      -0.033  -0.024  -0.236  0.00  0.00    +0.062 A 
ATOM     25  C   UNL     1      -1.190  -0.722   0.115  0.00  0.00    -0.036 A 
ATOM     26  C   UNL     1      -1.130  -2.082   0.342  0.00  0.00    +0.007 A 
ATOM     27  C   UNL     1      -2.502   0.008   0.245  0.00  0.00    +0.044 C 
ENDBRANCH  18  24
ENDBRANCH  17  18
ENDBRANCH  16  17
ENDBRANCH   1  16
TORSDOF 5
