REMARK  Name = ZINC06311680
REMARK  8 active torsions:
REMARK  status: ('A' for Active; 'I' for Inactive)
REMARK    1  A    between atoms: C_1  and  C_2
REMARK    2  A    between atoms: C_2  and  N_53
REMARK    3  A    between atoms: C_9  and  C_20
REMARK    4  A    between atoms: C_15  and  N_19
REMARK    5  A    between atoms: C_16  and  C_17
REMARK    6  A    between atoms: C_20  and  S_21
REMARK    7  A    between atoms: S_21  and  C_22
REMARK    8  A    between atoms: C_25  and  C_28
REMARK                            x       y       z     vdW  Elec       q    Type
REMARK                         _______ _______ _______ _____ _____    ______ ____
ROOT
ATOM      1  C   UNL     1       1.306   2.240   0.002  0.00  0.00    -0.078 C 
ATOM      2  C   UNL     1      -0.018   1.507   0.010  0.00  0.00    -0.001 C 
ATOM      3  C   UNL     1       0.002  -0.004   0.002  0.00  0.00    +0.039 C 
ATOM      4  C   UNL     1       1.296  -0.628  -0.515  0.00  0.00    -0.001 C 
ATOM      5  C   UNL     1       2.524   0.164  -0.074  0.00  0.00    -0.078 C 
ATOM      6  C   UNL     1      -0.301  -0.550   1.382  0.00  0.00    +0.049 A 
ATOM      7  C   UNL     1       0.108  -0.181   2.601  0.00  0.00    +0.054 A 
ATOM      8  N   UNL     1      -0.453  -1.022   3.513  0.00  0.00    -0.277 N 
ATOM      9  H   UNL     1      -0.318  -0.989   4.503  0.00  0.00    +0.189 HD
ATOM     10  N   UNL     1      -1.250  -1.940   2.822  0.00  0.00    -0.135 NA
ATOM     11  C   UNL     1      -1.168  -1.659   1.555  0.00  0.00    +0.245 A 
ATOM     12  O   UNL     1      -1.790  -2.273   0.512  0.00  0.00    -0.422 OA
ATOM     13  C   UNL     1      -1.898  -1.550  -0.618  0.00  0.00    +0.200 C 
ATOM     14  C   UNL     1      -1.093  -0.513  -0.925  0.00  0.00    +0.097 C 
ATOM     15  N   UNL     1       2.387   1.507  -0.671  0.00  0.00    +0.380 N 
ATOM     16  H   UNL     1       2.153   1.408  -1.665  0.00  0.00    -0.082 HD
ENDROOT
BRANCH  13  17
ATOM     17  N   UNL     1      -2.884  -1.887  -1.509  0.00  0.00    -0.328 N 
ATOM     18  H   UNL     1      -3.479  -2.629  -1.317  0.00  0.00    +0.145 HD
ATOM     19  H   UNL     1      -2.986  -1.385  -2.332  0.00  0.00    +0.145 HD
ENDBRANCH  13  17
BRANCH  15  21
ATOM     20  C   UNL     1       3.568   3.538  -1.364  0.00  0.00    -0.017 C 
ATOM     21  C   UNL     1       3.664   2.247  -0.549  0.00  0.00    -0.082 C 
ENDBRANCH  15  21
BRANCH  14  22
ATOM     22  C   UNL     1      -1.267   0.082  -2.216  0.00  0.00    +0.101 C 
ATOM     23  N   UNL     1      -1.405   0.554  -3.240  0.00  0.00    -0.191 NA
ENDBRANCH  14  22
BRANCH   7  24
ATOM     24  C   UNL     1       1.022   0.950   3.000  0.00  0.00    +0.129 C 
BRANCH  24  25
ATOM     25  S   UNL     1       0.039   2.445   3.297  0.00  0.00    -0.119 S 
BRANCH  25  26
ATOM     26  C   UNL     1       1.235   3.659   3.748  0.00  0.00    +0.008 A 
ATOM     27  C   UNL     1       2.582   3.322   3.805  0.00  0.00    +0.015 A 
ATOM     28  C   UNL     1       3.516   4.277   4.153  0.00  0.00    +0.004 A 
ATOM     29  C   UNL     1       3.112   5.564   4.456  0.00  0.00    -0.050 A 
ATOM     30  C   UNL     1       1.772   5.902   4.405  0.00  0.00    +0.004 A 
ATOM     31  C   UNL     1       0.832   4.954   4.052  0.00  0.00    +0.015 A 
ATOM     32  C   UNL     1       4.135   6.602   4.841  0.00  0.00    +0.044 C 
ENDBRANCH  25  26
ENDBRANCH  24  25
ENDBRANCH   7  24
TORSDOF 6
