REMARK  Name = ZINC39674351
REMARK  8 active torsions:
REMARK  status: ('A' for Active; 'I' for Inactive)
REMARK    1  A    between atoms: C_1  and  C_2
REMARK    2  A    between atoms: C_6  and  C_9
REMARK    3  A    between atoms: C_13  and  C_22
REMARK    4  A    between atoms: N_24  and  C_25
REMARK    5  A    between atoms: C_25  and  C_27
REMARK    6  A    between atoms: C_25  and  C_28
REMARK    7  A    between atoms: C_29  and  C_35
REMARK    8  A    between atoms: C_32  and  C_34
REMARK                            x       y       z     vdW  Elec       q    Type
REMARK                         _______ _______ _______ _____ _____    ______ ____
ROOT
ATOM      1  C   UNL     1       0.018  -2.523   1.769  0.00  0.00    +0.252 C 
ATOM      2  O   UNL     1       1.074  -2.728   2.338  0.00  0.00    -0.270 OA
ATOM      3  N   UNL     1      -1.146  -2.785   2.395  0.00  0.00    -0.296 N 
ATOM      4  C   UNL     1      -2.520  -2.609   1.868  0.00  0.00    +0.121 C 
ATOM      5  C   UNL     1      -3.298  -3.838   2.388  0.00  0.00    +0.100 C 
ATOM      6  C   UNL     1      -2.522  -4.296   3.634  0.00  0.00    -0.004 C 
ATOM      7  C   UNL     1      -1.342  -3.322   3.763  0.00  0.00    +0.115 C 
ATOM      8  C   UNL     1      -2.004  -5.718   3.441  0.00  0.00    -0.010 C 
ATOM      9  C   UNL     1      -1.285  -6.172   4.714  0.00  0.00    -0.082 C 
ATOM     10  N   UNL     1      -2.214  -6.117   5.849  0.00  0.00    +0.379 N 
ATOM     11  C   UNL     1      -2.635  -4.731   6.086  0.00  0.00    -0.082 C 
ATOM     12  C   UNL     1      -3.411  -4.217   4.870  0.00  0.00    -0.010 C 
ATOM     13  H   UNL     1      -3.024  -6.684   5.646  0.00  0.00    -0.086 HD
ATOM     14  H   UNL     1      -1.756  -6.474   6.675  0.00  0.00    -0.086 HD
ENDROOT
BRANCH   1  20
ATOM     15  C   UNL     1      -0.036   1.377  -1.349  0.00  0.00    +0.047 C 
ATOM     16  C   UNL     1      -0.013  -0.112  -1.113  0.00  0.00    -0.014 A 
ATOM     17  C   UNL     1       0.002  -0.980  -2.189  0.00  0.00    +0.009 A 
ATOM     18  C   UNL     1       0.023  -2.348  -1.985  0.00  0.00    +0.039 A 
ATOM     19  C   UNL     1       0.029  -2.858  -0.700  0.00  0.00    +0.138 A 
ATOM     20  C   UNL     1       0.013  -1.987   0.394  0.00  0.00    +0.107 A 
ATOM     21  C   UNL     1      -0.002  -0.605   0.178  0.00  0.00    +0.141 A 
ATOM     22  F   UNL     1      -0.011   0.245   1.228  0.00  0.00    -0.204 F 
ATOM     23  F   UNL     1       0.048  -4.194  -0.502  0.00  0.00    -0.205 F 
ENDBRANCH   1  20
BRANCH   5  24
ATOM     24  C   UNL     1      -3.314  -4.928   1.347  0.00  0.00    +0.219 C 
ATOM     25  O   UNL     1      -2.383  -5.047   0.579  0.00  0.00    -0.275 OA
ATOM     26  N   UNL     1      -4.364  -5.770   1.270  0.00  0.00    -0.309 N 
ATOM     27  H   UNL     1      -5.108  -5.675   1.884  0.00  0.00    +0.149 HD
BRANCH  26  28
ATOM     28  C   UNL     1      -4.379  -6.830   0.258  0.00  0.00    +0.100 C 
ATOM     29  C   UNL     1      -3.586  -8.034   0.768  0.00  0.00    +0.033 C 
BRANCH  28  30
ATOM     30  C   UNL     1      -5.803  -7.244  -0.014  0.00  0.00    -0.001 C 
ATOM     31  C   UNL     1      -6.462  -7.209  -1.174  0.00  0.00    +0.063 C 
ATOM     32  N   UNL     1      -7.726  -7.663  -1.022  0.00  0.00    -0.159 NA
ATOM     33  N   UNL     1      -8.010  -8.009   0.127  0.00  0.00    -0.180 NA
ATOM     34  C   UNL     1      -6.818  -7.803   0.967  0.00  0.00    +0.154 C 
ATOM     35  C   UNL     1      -7.109  -6.794   2.079  0.00  0.00    +0.039 C 
ATOM     36  C   UNL     1      -5.877  -6.729  -2.477  0.00  0.00    +0.067 C 
ENDBRANCH  28  30
ENDBRANCH  26  28
ENDBRANCH   5  24
TORSDOF 4
