REMARK  Name = ZINC27203568
REMARK  12 active torsions:
REMARK  status: ('A' for Active; 'I' for Inactive)
REMARK    1  A    between atoms: C_1  and  C_2
REMARK    2  A    between atoms: C_6  and  C_30
REMARK    3  A    between atoms: C_7  and  O_8
REMARK    4  A    between atoms: O_8  and  C_9
REMARK    5  A    between atoms: C_9  and  C_11
REMARK    6  A    between atoms: C_9  and  C_12
REMARK    7  A    between atoms: N_14  and  N_15
REMARK    8  A    between atoms: C_16  and  C_18
REMARK    9  A    between atoms: C_20  and  S_26
REMARK   10  A    between atoms: C_23  and  O_24
REMARK   11  A    between atoms: O_24  and  C_25
REMARK   12  A    between atoms: S_26  and  N_29
REMARK                            x       y       z     vdW  Elec       q    Type
REMARK                         _______ _______ _______ _____ _____    ______ ____
ROOT
ATOM      1  N   UNL     1      -2.075  -0.200   6.151  0.00  0.00    -0.230 N 
ATOM      2  C   UNL     1      -3.192  -0.180   6.904  0.00  0.00    +0.264 C 
ATOM      3  O   UNL     1      -4.279  -0.045   6.376  0.00  0.00    -0.269 OA
ATOM      4  H   UNL     1      -1.208  -0.308   6.572  0.00  0.00    +0.173 HD
ENDROOT
BRANCH   2   5
ATOM      5  C   UNL     1      -3.096  -0.322   8.370  0.00  0.00    +0.082 A 
ATOM      6  C   UNL     1      -1.849  -0.472   8.981  0.00  0.00    +0.045 A 
ATOM      7  C   UNL     1      -1.766  -0.604  10.350  0.00  0.00    +0.106 A 
ATOM      8  C   UNL     1      -2.915  -0.589  11.124  0.00  0.00    +0.032 A 
ATOM      9  C   UNL     1      -4.154  -0.442  10.533  0.00  0.00    +0.048 A 
ATOM     10  C   UNL     1      -4.255  -0.301   9.157  0.00  0.00    +0.132 A 
BRANCH   7  11
ATOM     11  S   UNL     1      -0.192  -0.793  11.119  0.00  0.00    +0.056 S 
ATOM     12  O   UNL     1      -0.423  -1.445  12.361  0.00  0.00    -0.153 OA
ATOM     13  O   UNL     1       0.681  -1.323  10.131  0.00  0.00    -0.153 OA
BRANCH  11  14
ATOM     14  N   UNL     1       0.364   0.725  11.477  0.00  0.00    -0.204 NA
ATOM     15  H   UNL     1      -0.172   1.502  11.254  0.00  0.00    +0.144 HD
ATOM     16  H   UNL     1       1.225   0.836  11.910  0.00  0.00    +0.144 HD
ENDBRANCH  11  14
ENDBRANCH   7  11
BRANCH  10  17
ATOM     17  O   UNL     1      -5.472  -0.150   8.575  0.00  0.00    -0.494 OA
ATOM     18  C   UNL     1      -6.608  -0.139   9.442  0.00  0.00    +0.277 C 
ENDBRANCH  10  17
ENDBRANCH   2   5
BRANCH   1  21
ATOM     19  C   UNL     1      -1.049  -0.086   4.005  0.00  0.00    +0.270 C 
ATOM     20  O   UNL     1       0.035  -0.221   4.532  0.00  0.00    -0.270 OA
ATOM     21  N   UNL     1      -2.166  -0.066   4.759  0.00  0.00    -0.231 N 
ATOM     22  H   UNL     1      -3.033   0.042   4.338  0.00  0.00    +0.173 HD
BRANCH  19  23
ATOM     23  C   UNL     1      -1.147   0.059   2.509  0.00  0.00    +0.257 C 
ATOM     24  C   UNL     1      -1.683   1.450   2.165  0.00  0.00    +0.062 C 
BRANCH  23  25
ATOM     25  O   UNL     1       0.148  -0.110   1.928  0.00  0.00    -0.479 OA
BRANCH  25  32
ATOM     26  C   UNL     1       0.141  -2.934   1.892  0.00  0.00    +0.047 C 
ATOM     27  C   UNL     1       0.205  -2.106   0.635  0.00  0.00    -0.007 A 
ATOM     28  C   UNL     1       0.257  -2.725  -0.599  0.00  0.00    +0.027 A 
ATOM     29  C   UNL     1       0.316  -1.965  -1.754  0.00  0.00    +0.042 A 
ATOM     30  C   UNL     1       0.323  -0.584  -1.675  0.00  0.00    +0.027 A 
ATOM     31  C   UNL     1       0.270   0.039  -0.443  0.00  0.00    -0.007 A 
ATOM     32  C   UNL     1       0.205  -0.721   0.715  0.00  0.00    +0.127 A 
ATOM     33  C   UNL     1       0.278   1.544  -0.358  0.00  0.00    +0.047 C 
ATOM     34 CL   UNL     1       0.383  -2.746  -3.303  0.00  0.00    -0.084 Cl
ENDBRANCH  25  32
ENDBRANCH  23  25
ENDBRANCH  19  23
ENDBRANCH   1  21
TORSDOF 8
