REMARK  Name = ZINC34683977
REMARK  7 active torsions:
REMARK  status: ('A' for Active; 'I' for Inactive)
REMARK    1  A    between atoms: C_4  and  O_34
REMARK    2  A    between atoms: C_5  and  C_7
REMARK    3  A    between atoms: C_7  and  N_8
REMARK    4  A    between atoms: C_11  and  N_14
REMARK    5  A    between atoms: N_14  and  C_15
REMARK    6  A    between atoms: N_14  and  S_24
REMARK    7  A    between atoms: S_24  and  C_27
REMARK                            x       y       z     vdW  Elec       q    Type
REMARK                         _______ _______ _______ _____ _____    ______ ____
ROOT
ATOM      1  N   UNL     1       1.228  -4.686   5.035  0.00  0.00    -0.200 N 
ENDROOT
BRANCH   1   2
ATOM      2  C   UNL     1       2.314  -4.141   5.729  0.00  0.00    +0.055 A 
ATOM      3  C   UNL     1       3.599  -4.266   5.217  0.00  0.00    +0.028 A 
ATOM      4  C   UNL     1       4.673  -3.729   5.902  0.00  0.00    +0.051 A 
ATOM      5  C   UNL     1       4.471  -3.064   7.100  0.00  0.00    +0.166 A 
ATOM      6  C   UNL     1       3.183  -2.937   7.616  0.00  0.00    +0.168 A 
ATOM      7  C   UNL     1       2.107  -3.471   6.927  0.00  0.00    +0.074 A 
ATOM      8  O   UNL     1       3.251  -2.249   8.794  0.00  0.00    -0.453 OA
ATOM      9  C   UNL     1       4.632  -2.313   9.197  0.00  0.00    +0.466 C 
ATOM     10  O   UNL     1       5.346  -2.455   7.955  0.00  0.00    -0.453 OA
ENDBRANCH   1   2
BRANCH   1  14
ATOM     11  N   UNL     1       1.110  -1.994   1.794  0.00  0.00    +0.383 N 
ATOM     12  C   UNL     1       0.010  -1.909   2.763  0.00  0.00    -0.077 C 
ATOM     13  C   UNL     1       0.426  -2.583   4.072  0.00  0.00    +0.006 C 
ATOM     14  C   UNL     1       0.757  -4.053   3.801  0.00  0.00    +0.095 C 
ATOM     15  C   UNL     1       1.853  -4.131   2.734  0.00  0.00    +0.006 C 
ATOM     16  C   UNL     1       1.384  -3.399   1.474  0.00  0.00    -0.077 C 
ATOM     17  H   UNL     1       1.937  -1.572   2.190  0.00  0.00    -0.081 HD
BRANCH  11  18
ATOM     18  C   UNL     1       0.736  -1.278   0.567  0.00  0.00    -0.039 C 
BRANCH  18  23
ATOM     19  C   UNL     1      -0.839   2.067   1.334  0.00  0.00    +0.000 A 
ATOM     20  C   UNL     1       0.273   2.884   1.429  0.00  0.00    +0.004 A 
ATOM     21  C   UNL     1       1.536   2.357   1.245  0.00  0.00    +0.045 A 
ATOM     22  C   UNL     1       1.690   1.007   0.966  0.00  0.00    +0.118 A 
ATOM     23  C   UNL     1       0.573   0.189   0.871  0.00  0.00    -0.022 A 
ATOM     24  C   UNL     1      -0.689   0.722   1.055  0.00  0.00    +0.005 A 
BRANCH  22  25
ATOM     25  O   UNL     1       2.932   0.486   0.784  0.00  0.00    -0.507 OA
ATOM     26  H   UNL     1       3.345   0.162   1.597  0.00  0.00    +0.292 HD
ENDBRANCH  22  25
ENDBRANCH  18  23
ENDBRANCH  11  18
ENDBRANCH   1  14
BRANCH   1  27
ATOM     27  S   UNL     1       0.476  -6.045   5.609  0.00  0.00    +0.075 S 
ATOM     28  O   UNL     1       0.853  -6.172   6.973  0.00  0.00    -0.150 OA
ATOM     29  O   UNL     1      -0.882  -5.962   5.198  0.00  0.00    -0.150 OA
BRANCH  27  30
ATOM     30  C   UNL     1       1.175  -7.423   4.763  0.00  0.00    +0.109 A 
ATOM     31  C   UNL     1       0.619  -7.859   3.575  0.00  0.00    +0.030 A 
ATOM     32  C   UNL     1       1.166  -8.941   2.911  0.00  0.00    +0.022 A 
ATOM     33  C   UNL     1       2.271  -9.587   3.436  0.00  0.00    +0.041 A 
ATOM     34  C   UNL     1       2.828  -9.150   4.625  0.00  0.00    +0.022 A 
ATOM     35  C   UNL     1       2.283  -8.065   5.285  0.00  0.00    +0.030 A 
ATOM     36 CL   UNL     1       2.959 -10.946   2.602  0.00  0.00    -0.084 Cl
ENDBRANCH  27  30
ENDBRANCH   1  27
TORSDOF 7
