REMARK  Name = ZINC00940743
REMARK  4 active torsions:
REMARK  status: ('A' for Active; 'I' for Inactive)
REMARK    1  A    between atoms: C_1  and  C_2
REMARK    2  A    between atoms: C_3  and  C_24
REMARK    3  A    between atoms: C_4  and  C_17
REMARK    4  A    between atoms: C_10  and  C_12
REMARK                            x       y       z     vdW  Elec       q    Type
REMARK                         _______ _______ _______ _____ _____    ______ ____
ROOT
ATOM      1  C   UNL     1       0.279   1.401   0.210  0.00  0.00    +0.064 C 
ATOM      2  C   UNL     1       0.176  -0.097   0.073  0.00  0.00    +0.026 C 
ATOM      3  C   UNL     1      -1.062  -0.677   0.060  0.00  0.00    +0.059 C 
ATOM      4  C   UNL     1      -1.119  -2.188  -0.080  0.00  0.00    +0.166 C 
ATOM      5  N   UNL     1       0.173  -2.875  -0.190  0.00  0.00    -0.209 N 
ATOM      6  C   UNL     1       1.329  -2.129  -0.159  0.00  0.00    +0.215 C 
ATOM      7  N   UNL     1       1.285  -0.809  -0.037  0.00  0.00    -0.330 N 
ATOM      8  N   UNL     1       2.360  -2.975  -0.274  0.00  0.00    -0.197 NA
ATOM      9  C   UNL     1       1.924  -4.221  -0.376  0.00  0.00    +0.153 C 
ATOM     10  N   UNL     1       0.551  -4.213  -0.329  0.00  0.00    -0.244 N 
ATOM     11  H   UNL     1       2.129  -0.331  -0.025  0.00  0.00    +0.168 HD
ATOM     12  H   UNL     1      -0.038  -4.982  -0.380  0.00  0.00    +0.172 HD
ENDROOT
BRANCH   4  13
ATOM     13  C   UNL     1      -1.925  -2.515  -1.310  0.00  0.00    +0.014 A 
ATOM     14  C   UNL     1      -2.127  -1.552  -2.281  0.00  0.00    +0.009 A 
ATOM     15  C   UNL     1      -2.867  -1.852  -3.409  0.00  0.00    +0.001 A 
ATOM     16  C   UNL     1      -3.406  -3.115  -3.569  0.00  0.00    +0.003 A 
ATOM     17  C   UNL     1      -3.205  -4.080  -2.600  0.00  0.00    +0.039 A 
ATOM     18  C   UNL     1      -2.459  -3.782  -1.472  0.00  0.00    +0.129 A 
ATOM     19  F   UNL     1      -2.258  -4.726  -0.526  0.00  0.00    -0.205 F 
ENDBRANCH   4  13
BRANCH   9  20
ATOM     20  C   UNL     1       2.765  -5.409  -0.517  0.00  0.00    +0.053 A 
ATOM     21  C   UNL     1       4.150  -5.500  -0.567  0.00  0.00    +0.019 A 
ATOM     22  C   UNL     1       4.659  -6.769  -0.707  0.00  0.00    +0.008 A 
ATOM     23  C   UNL     1       3.803  -7.818  -0.783  0.00  0.00    +0.046 A 
ATOM     24  S   UNL     1       2.280  -7.118  -0.662  0.00  0.00    -0.094 S 
ENDBRANCH   9  20
BRANCH   3  25
ATOM     25  C   UNL     1      -2.234   0.092   0.174  0.00  0.00    +0.241 C 
ATOM     26  O   UNL     1      -2.157   1.297   0.344  0.00  0.00    -0.271 OA
ATOM     27  N   UNL     1      -3.441  -0.502   0.094  0.00  0.00    -0.325 N 
ATOM     28  H   UNL     1      -3.503  -1.468   0.043  0.00  0.00    +0.145 HD
ATOM     29  H   UNL     1      -4.247   0.037   0.088  0.00  0.00    +0.145 HD
ENDBRANCH   3  25
TORSDOF 3
