REMARK  Name = ZINC61665298
REMARK  8 active torsions:
REMARK  status: ('A' for Active; 'I' for Inactive)
REMARK    1  A    between atoms: C_1  and  C_2
REMARK    2  A    between atoms: C_2  and  C_3
REMARK    3  A    between atoms: C_3  and  S_4
REMARK    4  A    between atoms: S_4  and  C_5
REMARK    5  A    between atoms: C_8  and  N_20
REMARK    6  A    between atoms: C_9  and  N_11
REMARK    7  A    between atoms: C_12  and  C_14
REMARK    8  A    between atoms: N_18  and  C_19
REMARK                            x       y       z     vdW  Elec       q    Type
REMARK                         _______ _______ _______ _____ _____    ______ ____
ROOT
ATOM      1  C   UNL     1       1.765  -2.651  -2.787  0.00  0.00    +0.010 A 
ATOM      2  C   UNL     1       2.739  -1.721  -3.130  0.00  0.00    +0.016 A 
ATOM      3  C   UNL     1       3.839  -2.111  -3.871  0.00  0.00    +0.025 A 
ATOM      4  C   UNL     1       3.973  -3.432  -4.273  0.00  0.00    +0.046 A 
ATOM      5  C   UNL     1       2.998  -4.367  -3.929  0.00  0.00    +0.056 A 
ATOM      6  C   UNL     1       1.898  -3.975  -3.182  0.00  0.00    +0.040 A 
ENDROOT
BRANCH   5   7
ATOM      7  N   UNL     1       3.131  -5.701  -4.335  0.00  0.00    -0.279 N 
ATOM      8  C   UNL     1       2.543  -6.683  -3.624  0.00  0.00    +0.266 C 
ATOM      9  O   UNL     1       1.865  -6.408  -2.652  0.00  0.00    -0.268 OA
ATOM     10  H   UNL     1       3.647  -5.918  -5.127  0.00  0.00    +0.155 HD
BRANCH   8  11
ATOM     11  C   UNL     1       2.721  -8.088  -4.023  0.00  0.00    +0.123 A 
ATOM     12  C   UNL     1       2.289  -9.209  -3.334  0.00  0.00    +0.054 A 
ATOM     13  C   UNL     1       2.693 -10.298  -4.110  0.00  0.00    +0.135 A 
ATOM     14  N   UNL     1       3.312  -9.832  -5.165  0.00  0.00    -0.179 NA
ATOM     15  N   UNL     1       3.341  -8.548  -5.150  0.00  0.00    -0.262 N 
ATOM     16  C   UNL     1       3.950  -7.705  -6.182  0.00  0.00    +0.173 C 
ENDBRANCH   8  11
ENDBRANCH   5   7
BRANCH   4  17
ATOM     17  N   UNL     1       5.089  -3.826  -5.025  0.00  0.00    -0.357 N 
ATOM     18  H   UNL     1       5.768  -3.175  -5.264  0.00  0.00    +0.142 HD
ATOM     19  H   UNL     1       5.183  -4.749  -5.306  0.00  0.00    +0.142 HD
ENDBRANCH   4  17
BRANCH   1  20
ATOM     20  S   UNL     1       0.364  -2.149  -1.843  0.00  0.00    -0.125 S 
BRANCH  20  21
ATOM     21  C   UNL     1       0.628  -0.375  -1.574  0.00  0.00    +0.074 C 
BRANCH  21  23
ATOM     22  C   UNL     1      -0.309   1.691  -0.528  0.00  0.00    +0.004 C 
ATOM     23  C   UNL     1      -0.532   0.195  -0.755  0.00  0.00    +0.008 C 
ENDBRANCH  21  23
ENDBRANCH  20  21
ENDBRANCH   1  20
TORSDOF 6
