REMARK  Name = ZINC36602622
REMARK  15 active torsions:
REMARK  status: ('A' for Active; 'I' for Inactive)
REMARK    1  A    between atoms: C_1  and  C_2
REMARK    2  A    between atoms: C_5  and  C_7
REMARK    3  A    between atoms: C_7  and  N_8
REMARK    4  A    between atoms: N_8  and  C_9
REMARK    5  A    between atoms: C_9  and  C_11
REMARK    6  A    between atoms: C_9  and  C_16
REMARK    7  A    between atoms: N_18  and  C_19
REMARK    8  A    between atoms: C_19  and  C_20
REMARK    9  A    between atoms: C_19  and  C_21
REMARK   10  A    between atoms: C_19  and  C_22
REMARK   11  A    between atoms: C_22  and  C_23
REMARK   12  A    between atoms: C_23  and  C_24
REMARK   13  A    between atoms: C_23  and  C_25
REMARK   14  A    between atoms: C_23  and  C_26
REMARK   15  A    between atoms: C_27  and  C_29
REMARK                            x       y       z     vdW  Elec       q    Type
REMARK                         _______ _______ _______ _____ _____    ______ ____
ROOT
ATOM      1  C   UNL     1       3.577  -1.138  -1.639  0.00  0.00    +0.229 C 
ENDROOT
BRANCH   1   2
ATOM      2  C   UNL     1       4.398  -1.269  -0.382  0.00  0.00    +0.134 A 
ATOM      3  C   UNL     1       5.590  -1.883  -0.281  0.00  0.00    +0.047 A 
ATOM      4  C   UNL     1       5.997  -1.770   1.068  0.00  0.00    +0.041 A 
ATOM      5  C   UNL     1       5.028  -1.093   1.711  0.00  0.00    +0.195 A 
ATOM      6  O   UNL     1       4.065  -0.787   0.827  0.00  0.00    -0.465 OA
ENDBRANCH   1   2
BRANCH   1   7
ATOM      7  C   UNL     1       3.782   0.232  -2.232  0.00  0.00    +0.242 C 
ATOM      8  O   UNL     1       2.858   1.016  -2.283  0.00  0.00    -0.273 OA
ATOM      9  N   UNL     1       4.993   0.587  -2.707  0.00  0.00    -0.308 N 
ATOM     10  H   UNL     1       5.732  -0.040  -2.666  0.00  0.00    +0.149 HD
BRANCH   9  11
ATOM     11  C   UNL     1       5.192   1.919  -3.283  0.00  0.00    +0.030 C 
ATOM     12  C   UNL     1       4.421   2.025  -4.601  0.00  0.00    +0.031 C 
ATOM     13  C   UNL     1       4.680   2.979  -2.306  0.00  0.00    +0.031 C 
BRANCH  11  14
ATOM     14  C   UNL     1       6.683   2.144  -3.545  0.00  0.00    +0.031 C 
BRANCH  14  15
ATOM     15  C   UNL     1       7.500   1.513  -2.415  0.00  0.00    -0.036 C 
ATOM     16  C   UNL     1       7.817   0.058  -2.767  0.00  0.00    +0.010 C 
ATOM     17  C   UNL     1       8.805   2.290  -2.234  0.00  0.00    +0.010 C 
ATOM     18  C   UNL     1       6.694   1.560  -1.116  0.00  0.00    +0.010 C 
ENDBRANCH  14  15
ENDBRANCH  11  14
ENDBRANCH   9  11
ENDBRANCH   1   7
BRANCH   1  19
ATOM     19  N   UNL     1       2.160  -1.324  -1.319  0.00  0.00    -0.272 N 
ATOM     20  C   UNL     1       1.494  -2.391  -1.804  0.00  0.00    +0.249 C 
ATOM     21  O   UNL     1       2.062  -3.183  -2.531  0.00  0.00    -0.270 OA
BRANCH  20  22
ATOM     22  C   UNL     1       0.074  -2.598  -1.453  0.00  0.00    +0.055 A 
ATOM     23  C   UNL     1      -0.588  -1.679  -0.635  0.00  0.00    +0.014 A 
ATOM     24  C   UNL     1      -1.913  -1.877  -0.311  0.00  0.00    +0.001 A 
ATOM     25  C   UNL     1      -2.589  -2.985  -0.794  0.00  0.00    +0.001 A 
ATOM     26  C   UNL     1      -1.942  -3.900  -1.603  0.00  0.00    +0.021 A 
ATOM     27  C   UNL     1      -0.615  -3.710  -1.941  0.00  0.00    +0.053 A 
ATOM     28 CL   UNL     1       0.195  -4.856  -2.964  0.00  0.00    -0.083 Cl
ENDBRANCH  20  22
BRANCH  19  29
ATOM     29  C   UNL     1       1.466  -0.351  -0.472  0.00  0.00    +0.183 C 
BRANCH  29  34
ATOM     30  C   UNL     1      -0.974  -2.825   3.184  0.00  0.00    +0.086 C 
ATOM     31  C   UNL     1       0.094  -2.054   2.453  0.00  0.00    +0.102 A 
ATOM     32  C   UNL     1       1.279  -1.673   2.963  0.00  0.00    +0.045 A 
ATOM     33  C   UNL     1       1.963  -0.980   1.939  0.00  0.00    +0.046 A 
ATOM     34  C   UNL     1       1.155  -0.978   0.863  0.00  0.00    +0.122 A 
ATOM     35  O   UNL     1       0.027  -1.636   1.178  0.00  0.00    -0.463 OA
ENDBRANCH  29  34
ENDBRANCH  19  29
ENDBRANCH   1  19
TORSDOF 9
