REMARK  Name = ZINC11788536
REMARK  8 active torsions:
REMARK  status: ('A' for Active; 'I' for Inactive)
REMARK    1  A    between atoms: C_4  and  N_7
REMARK    2  A    between atoms: C_10  and  C_12
REMARK    3  A    between atoms: C_12  and  N_68
REMARK    4  A    between atoms: C_13  and  N_68
REMARK    5  A    between atoms: N_16  and  C_19
REMARK    6  A    between atoms: C_22  and  C_25
REMARK    7  A    between atoms: C_31  and  C_34
REMARK    8  A    between atoms: C_34  and  O_35
REMARK                            x       y       z     vdW  Elec       q    Type
REMARK                         _______ _______ _______ _____ _____    ______ ____
ROOT
ATOM      1  C   UNL     1      -4.573   3.283  -9.120  0.00  0.00    -0.068 C 
ATOM      2  C   UNL     1      -5.161   3.871  -7.834  0.00  0.00    +0.003 C 
ATOM      3  C   UNL     1      -4.382   3.336  -6.631  0.00  0.00    +0.103 C 
ATOM      4  N   UNL     1      -2.967   3.707  -6.758  0.00  0.00    -0.330 N 
ATOM      5  C   UNL     1      -2.368   3.114  -7.960  0.00  0.00    +0.103 C 
ATOM      6  C   UNL     1      -3.087   3.643  -9.203  0.00  0.00    +0.003 C 
ENDROOT
BRANCH   4   7
ATOM      7  C   UNL     1      -2.255   3.350  -5.618  0.00  0.00    +0.030 A 
ATOM      8  C   UNL     1      -0.890   3.617  -5.540  0.00  0.00    +0.024 A 
ATOM      9  C   UNL     1      -0.182   3.266  -4.414  0.00  0.00    +0.015 A 
ATOM     10  C   UNL     1      -0.834   2.639  -3.348  0.00  0.00    +0.037 A 
ATOM     11  C   UNL     1      -2.203   2.367  -3.432  0.00  0.00    +0.015 A 
ATOM     12  C   UNL     1      -2.906   2.726  -4.558  0.00  0.00    +0.024 A 
BRANCH  10  13
ATOM     13  C   UNL     1      -0.078   2.260  -2.139  0.00  0.00    +0.247 C 
ATOM     14  O   UNL     1       1.032   1.776  -2.243  0.00  0.00    -0.270 OA
ATOM     15  N   UNL     1      -0.618   2.452  -0.919  0.00  0.00    -0.297 N 
ATOM     16  C   UNL     1      -1.901   3.151  -0.769  0.00  0.00    +0.108 C 
ATOM     17  C   UNL     1      -1.723   4.302   0.225  0.00  0.00    +0.019 C 
ATOM     18  C   UNL     1      -1.149   3.756   1.534  0.00  0.00    +0.009 C 
ATOM     19  C   UNL     1       0.225   3.127   1.271  0.00  0.00    +0.032 C 
ATOM     20  C   UNL     1       0.066   1.964   0.287  0.00  0.00    +0.113 C 
BRANCH  19  21
ATOM     21  C   UNL     1       0.815   2.608   2.584  0.00  0.00    +0.160 C 
BRANCH  21  22
ATOM     22  O   UNL     1       2.140   2.125   2.353  0.00  0.00    -0.395 OA
ATOM     23  H   UNL     1       2.576   1.780   3.144  0.00  0.00    +0.209 HD
ENDBRANCH  21  22
ENDBRANCH  19  21
ENDBRANCH  10  13
ENDBRANCH   4   7
BRANCH   1  24
ATOM     24  N   UNL     1      -5.284   3.848 -10.282  0.00  0.00    +0.385 N 
ATOM     25  H   UNL     1      -6.271   3.991 -10.038  0.00  0.00    -0.085 HD
ATOM     26  H   UNL     1      -4.859   4.748 -10.534  0.00  0.00    -0.085 HD
BRANCH  24  27
ATOM     27  C   UNL     1      -5.196   2.929 -11.433  0.00  0.00    -0.022 C 
BRANCH  27  31
ATOM     28  N   UNL     1      -7.463   4.091 -13.945  0.00  0.00    -0.150 N 
ATOM     29  N   UNL     1      -6.386   4.601 -14.428  0.00  0.00    -0.155 NA
ATOM     30  C   UNL     1      -5.383   4.296 -13.637  0.00  0.00    +0.158 A 
ATOM     31  C   UNL     1      -5.930   3.531 -12.603  0.00  0.00    +0.066 A 
ATOM     32  N   UNL     1      -7.216   3.450 -12.858  0.00  0.00    -0.154 NA
BRANCH  28  36
ATOM     33  C   UNL     1     -11.242   4.467 -15.666  0.00  0.00    +0.000 A 
ATOM     34  C   UNL     1     -10.147   5.057 -16.270  0.00  0.00    +0.002 A 
ATOM     35  C   UNL     1      -8.894   4.934 -15.702  0.00  0.00    +0.029 A 
ATOM     36  C   UNL     1      -8.734   4.218 -14.524  0.00  0.00    +0.086 A 
ATOM     37  C   UNL     1      -9.835   3.622 -13.922  0.00  0.00    +0.029 A 
ATOM     38  C   UNL     1     -11.086   3.753 -14.492  0.00  0.00    +0.002 A 
ENDBRANCH  28  36
ENDBRANCH  27  31
ENDBRANCH  24  27
ENDBRANCH   1  24
TORSDOF 8
