REMARK  Name = ZINC13899506
REMARK  15 active torsions:
REMARK  status: ('A' for Active; 'I' for Inactive)
REMARK    1  A    between atoms: C_1  and  C_2
REMARK    2  A    between atoms: C_2  and  C_3
REMARK    3  A    between atoms: C_5  and  C_37
REMARK    4  A    between atoms: C_7  and  O_9
REMARK    5  A    between atoms: O_9  and  C_10
REMARK    6  A    between atoms: C_10  and  C_11
REMARK    7  A    between atoms: C_11  and  O_12
REMARK    8  A    between atoms: O_12  and  C_13
REMARK    9  A    between atoms: C_16  and  C_21
REMARK   10  A    between atoms: C_18  and  O_19
REMARK   11  A    between atoms: O_19  and  C_20
REMARK   12  A    between atoms: C_31  and  C_33
REMARK   13  A    between atoms: C_33  and  C_34
REMARK   14  A    between atoms: C_34  and  C_35
REMARK   15  A    between atoms: C_34  and  C_36
REMARK                            x       y       z     vdW  Elec       q    Type
REMARK                         _______ _______ _______ _____ _____    ______ ____
ROOT
ATOM      1  C   UNL     1       7.734  -3.555  -1.960  0.00  0.00    +0.162 A 
ATOM      2  C   UNL     1       8.745  -3.015  -2.745  0.00  0.00    +0.050 A 
ATOM      3  C   UNL     1      10.065  -3.228  -2.416  0.00  0.00    +0.012 A 
ATOM      4  C   UNL     1      10.390  -3.992  -1.286  0.00  0.00    -0.021 A 
ATOM      5  C   UNL     1       9.368  -4.536  -0.496  0.00  0.00    +0.057 A 
ATOM      6  C   UNL     1       8.048  -4.312  -0.831  0.00  0.00    +0.162 A 
ENDROOT
BRANCH   4   7
ATOM      7  C   UNL     1      11.793  -4.221  -0.933  0.00  0.00    +0.024 C 
ATOM      8  C   UNL     1      12.736  -3.253  -1.195  0.00  0.00    +0.081 C 
ATOM      9  C   UNL     1      12.353  -1.891  -1.665  0.00  0.00    +0.152 C 
ATOM     10  N   UNL     1      11.252  -1.290  -1.302  0.00  0.00    -0.283 NA
ATOM     11  N   UNL     1      13.298  -1.315  -2.542  0.00  0.00    -0.152 N 
ATOM     12  C   UNL     1      14.594  -1.780  -2.474  0.00  0.00    +0.181 C 
ATOM     13  N   UNL     1      15.050  -2.772  -1.752  0.00  0.00    -0.152 NA
ATOM     14  C   UNL     1      14.188  -3.506  -1.019  0.00  0.00    +0.273 C 
ATOM     15  O   UNL     1      14.586  -4.356  -0.238  0.00  0.00    -0.268 OA
ATOM     16  S   UNL     1      15.431  -0.711  -3.616  0.00  0.00    -0.038 S 
ATOM     17  C   UNL     1      14.000   0.202  -4.174  0.00  0.00    +0.100 C 
ATOM     18  N   UNL     1      13.044  -0.317  -3.458  0.00  0.00    -0.169 NA
ATOM     19  H   UNL     1      11.050  -0.403  -1.639  0.00  0.00    +0.188 HD
BRANCH  17  20
ATOM     20  C   UNL     1      13.919   1.294  -5.210  0.00  0.00    +0.067 C 
BRANCH  20  21
ATOM     21  C   UNL     1      12.470   1.768  -5.340  0.00  0.00    -0.011 C 
ATOM     22  C   UNL     1      12.027   2.420  -4.029  0.00  0.00    +0.007 C 
ATOM     23  C   UNL     1      12.367   2.787  -6.477  0.00  0.00    +0.007 C 
ENDBRANCH  20  21
ENDBRANCH  17  20
ENDBRANCH   4   7
BRANCH   6  24
ATOM     24  O   UNL     1       7.054  -4.834  -0.064  0.00  0.00    -0.491 OA
ATOM     25  C   UNL     1       7.448  -5.598   1.077  0.00  0.00    +0.277 C 
ENDBRANCH   6  24
BRANCH   1  26
ATOM     26  O   UNL     1       6.434  -3.341  -2.291  0.00  0.00    -0.485 OA
BRANCH  26  27
ATOM     27  C   UNL     1       6.183  -2.558  -3.459  0.00  0.00    +0.270 C 
BRANCH  27  28
ATOM     28  C   UNL     1       4.673  -2.426  -3.669  0.00  0.00    +0.270 C 
BRANCH  28  29
ATOM     29  O   UNL     1       4.104  -1.686  -2.588  0.00  0.00    -0.489 OA
BRANCH  29  34
ATOM     30  C   UNL     1       0.779  -0.555  -1.639  0.00  0.00    -0.044 A 
ATOM     31  C   UNL     1       0.029  -1.053  -2.689  0.00  0.00    +0.007 A 
ATOM     32  C   UNL     1       0.642  -1.762  -3.705  0.00  0.00    -0.047 A 
ATOM     33  C   UNL     1       2.007  -1.975  -3.673  0.00  0.00    +0.049 A 
ATOM     34  C   UNL     1       2.762  -1.477  -2.621  0.00  0.00    +0.121 A 
ATOM     35  C   UNL     1       2.144  -0.761  -1.606  0.00  0.00    +0.049 A 
ATOM     36  C   UNL     1      -0.178  -2.303  -4.848  0.00  0.00    +0.044 C 
BRANCH  30  38
ATOM     37  C   UNL     1       0.081   1.704  -0.892  0.00  0.00    +0.009 C 
ATOM     38  C   UNL     1       0.106   0.217  -0.533  0.00  0.00    +0.032 C 
ENDBRANCH  30  38
ENDBRANCH  29  34
ENDBRANCH  28  29
ENDBRANCH  27  28
ENDBRANCH  26  27
ENDBRANCH   1  26
TORSDOF 10
