REMARK  Name = ZINC26614888
REMARK  8 active torsions:
REMARK  status: ('A' for Active; 'I' for Inactive)
REMARK    1  A    between atoms: C_1  and  C_2
REMARK    2  A    between atoms: C_2  and  C_4
REMARK    3  A    between atoms: C_2  and  S_18
REMARK    4  A    between atoms: C_4  and  C_6
REMARK    5  A    between atoms: C_6  and  C_16
REMARK    6  A    between atoms: S_18  and  C_19
REMARK    7  A    between atoms: C_22  and  C_27
REMARK    8  A    between atoms: N_23  and  C_24
REMARK                            x       y       z     vdW  Elec       q    Type
REMARK                         _______ _______ _______ _____ _____    ______ ____
ROOT
ATOM      1  S   UNL     1       4.735  -4.519  -0.105  0.00  0.00    -0.075 S 
ENDROOT
BRANCH   1   2
ATOM      2  C   UNL     1       3.305  -3.490  -0.062  0.00  0.00    +0.193 A 
ATOM      3  N   UNL     1       2.060  -3.890   0.047  0.00  0.00    -0.122 NA
ATOM      4  N   UNL     1       1.268  -2.878   0.051  0.00  0.00    -0.128 NA
ATOM      5  C   UNL     1       1.960  -1.767  -0.064  0.00  0.00    +0.167 A 
ATOM      6  N   UNL     1       3.286  -2.124  -0.137  0.00  0.00    -0.299 N 
BRANCH   5   7
ATOM      7  C   UNL     1       1.416  -0.395  -0.102  0.00  0.00    +0.044 A 
ATOM      8  C   UNL     1       2.129   0.761  -0.086  0.00  0.00    +0.095 A 
ATOM      9  N   UNL     1       1.278   1.827  -0.132  0.00  0.00    -0.360 N 
ATOM     10  H   UNL     1       1.679   2.851  -0.127  0.00  0.00    +0.165 HD
ATOM     11  C   UNL     1      -0.029   1.392  -0.181  0.00  0.00    +0.047 A 
ATOM     12  C   UNL     1      -0.005  -0.013  -0.164  0.00  0.00    +0.010 A 
ATOM     13  C   UNL     1      -1.199  -0.731  -0.204  0.00  0.00    +0.011 A 
ATOM     14  C   UNL     1      -2.398  -0.057  -0.260  0.00  0.00    +0.001 A 
ATOM     15  C   UNL     1      -2.423   1.330  -0.277  0.00  0.00    +0.002 A 
ATOM     16  C   UNL     1      -1.252   2.053  -0.233  0.00  0.00    +0.026 A 
ENDBRANCH   5   7
BRANCH   6  17
ATOM     17  C   UNL     1       4.438  -1.228  -0.267  0.00  0.00    +0.091 C 
ATOM     18  C   UNL     1       5.771  -1.848  -0.693  0.00  0.00    +0.027 C 
ATOM     19  C   UNL     1       5.571  -1.381   0.751  0.00  0.00    +0.027 C 
ENDBRANCH   6  17
ENDBRANCH   1   2
BRANCH   1  21
ATOM     20  C   UNL     1       3.095  -6.412  -1.198  0.00  0.00    +0.028 C 
ATOM     21  C   UNL     1       3.955  -6.146   0.040  0.00  0.00    +0.123 C 
BRANCH  21  22
ATOM     22  C   UNL     1       5.020  -7.206   0.149  0.00  0.00    +0.189 C 
ATOM     23  O   UNL     1       6.129  -7.003  -0.307  0.00  0.00    -0.290 OA
BRANCH  22  24
ATOM     24  C   UNL     1       4.733  -8.429   0.777  0.00  0.00    +0.123 C 
ATOM     25  C   UNL     1       5.728  -9.419   0.878  0.00  0.00    +0.091 C 
ATOM     26  N   UNL     1       7.009  -9.375   0.429  0.00  0.00    -0.307 N 
ATOM     27  C   UNL     1       7.851 -10.453   0.626  0.00  0.00    +0.046 A 
ATOM     28  C   UNL     1       9.194 -10.590   0.241  0.00  0.00    +0.024 A 
ATOM     29  C   UNL     1       9.888 -11.745   0.514  0.00  0.00    +0.002 A 
ATOM     30  C   UNL     1       9.289 -12.805   1.175  0.00  0.00    +0.001 A 
ATOM     31  C   UNL     1       7.965 -12.697   1.564  0.00  0.00    +0.017 A 
ATOM     32  C   UNL     1       7.270 -11.542   1.292  0.00  0.00    +0.035 A 
ATOM     33  S   UNL     1       5.611 -10.991   1.601  0.00  0.00    -0.071 S 
ATOM     34  H   UNL     1       7.378  -8.480  -0.094  0.00  0.00    +0.153 HD
BRANCH  24  35
ATOM     35  C   UNL     1       3.427  -8.669   1.314  0.00  0.00    +0.105 C 
ATOM     36  N   UNL     1       2.391  -8.859   1.740  0.00  0.00    -0.191 NA
ENDBRANCH  24  35
ENDBRANCH  22  24
ENDBRANCH  21  22
ENDBRANCH   1  21
TORSDOF 7
