REMARK  Name = ZINC21953863
REMARK  5 active torsions:
REMARK  status: ('A' for Active; 'I' for Inactive)
REMARK    1  A    between atoms: C_4  and  C_7
REMARK    2  A    between atoms: C_7  and  S_8
REMARK    3  A    between atoms: S_8  and  C_9
REMARK    4  A    between atoms: C_15  and  C_17
REMARK    5  A    between atoms: C_17  and  C_18
REMARK                            x       y       z     vdW  Elec       q    Type
REMARK                         _______ _______ _______ _____ _____    ______ ____
ROOT
ATOM      1  C   UNL     1       5.754  -1.850  -1.609  0.00  0.00    +0.160 A 
ATOM      2  N   UNL     1       6.420  -2.223  -0.526  0.00  0.00    -0.133 NA
ATOM      3  N   UNL     1       7.519  -2.838  -0.599  0.00  0.00    -0.125 NA
ATOM      4  C   UNL     1       8.074  -3.147  -1.759  0.00  0.00    +0.189 A 
ATOM      5  S   UNL     1       6.852  -2.472  -2.879  0.00  0.00    -0.024 S 
ATOM      6  N   UNL     1       9.267  -3.814  -2.031  0.00  0.00    -0.263 N 
ATOM      7  C   UNL     1      10.043  -4.248  -1.018  0.00  0.00    +0.225 C 
ATOM      8  O   UNL     1       9.703  -4.058   0.131  0.00  0.00    -0.275 OA
ATOM      9  H   UNL     1       9.575  -3.987  -3.073  0.00  0.00    +0.157 HD
ENDROOT
BRANCH   1  10
ATOM     10  S   UNL     1       4.221  -0.993  -1.756  0.00  0.00    -0.092 S 
BRANCH  10  11
ATOM     11  C   UNL     1       3.711  -0.707  -0.039  0.00  0.00    +0.111 C 
BRANCH  11  15
ATOM     12  C   UNL     1      -0.017   1.378   0.010  0.00  0.00    +0.000 A 
ATOM     13  C   UNL     1       1.171   2.086   0.002  0.00  0.00    +0.000 A 
ATOM     14  C   UNL     1       2.377   1.411  -0.014  0.00  0.00    +0.004 A 
ATOM     15  C   UNL     1       2.396   0.029  -0.022  0.00  0.00    -0.037 A 
ATOM     16  C   UNL     1       1.208  -0.679  -0.014  0.00  0.00    +0.004 A 
ATOM     17  C   UNL     1       0.002  -0.004   0.002  0.00  0.00    +0.000 A 
ENDBRANCH  11  15
ENDBRANCH  10  11
ENDBRANCH   1  10
BRANCH   7  18
ATOM     18  C   UNL     1      11.332  -4.969  -1.313  0.00  0.00    +0.154 C 
BRANCH  18  19
ATOM     19  C   UNL     1      12.005  -5.346  -0.018  0.00  0.00    +0.078 A 
ATOM     20  C   UNL     1      13.279  -6.065  -0.037  0.00  0.00    +0.011 A 
ATOM     21  C   UNL     1      13.911  -6.412  -1.232  0.00  0.00    +0.010 A 
ATOM     22  C   UNL     1      15.104  -7.078  -1.198  0.00  0.00    +0.001 A 
ATOM     23  C   UNL     1      15.701  -7.410   0.011  0.00  0.00    +0.001 A 
ATOM     24  C   UNL     1      15.103  -7.076   1.206  0.00  0.00    +0.014 A 
ATOM     25  C   UNL     1      13.886  -6.397   1.196  0.00  0.00    +0.050 A 
ATOM     26  C   UNL     1      13.198  -6.012   2.435  0.00  0.00    +0.272 A 
ATOM     27  O   UNL     1      13.680  -6.282   3.521  0.00  0.00    -0.266 OA
ATOM     28  N   UNL     1      12.023  -5.356   2.348  0.00  0.00    -0.242 N 
ATOM     29  H   UNL     1      11.490  -5.058   3.263  0.00  0.00    +0.192 HD
ATOM     30  N   UNL     1      11.450  -5.035   1.116  0.00  0.00    -0.175 NA
ENDBRANCH  18  19
ENDBRANCH   7  18
TORSDOF 5
