REMARK  Name = ZINC01094500
REMARK  6 active torsions:
REMARK  status: ('A' for Active; 'I' for Inactive)
REMARK    1  A    between atoms: C_1  and  N_2
REMARK    2  A    between atoms: N_7  and  C_10
REMARK    3  A    between atoms: C_11  and  C_24
REMARK    4  A    between atoms: C_27  and  O_30
REMARK    5  A    between atoms: O_30  and  C_31
REMARK    6  A    between atoms: C_31  and  C_33
REMARK                            x       y       z     vdW  Elec       q    Type
REMARK                         _______ _______ _______ _____ _____    ______ ____
ROOT
ATOM      1  C   UNL     1      12.134   3.098  -2.771  0.00  0.00    +0.155 C 
ATOM      2  N   UNL     1      11.059   4.092  -2.721  0.00  0.00    -0.284 N 
ATOM      3  C   UNL     1      10.488   4.420  -1.511  0.00  0.00    +0.116 A 
ATOM      4  C   UNL     1       9.486   5.341  -1.474  0.00  0.00    +0.067 A 
ATOM      5  C   UNL     1       9.066   5.939  -2.679  0.00  0.00    +0.262 A 
ATOM      6  O   UNL     1       8.173   6.769  -2.670  0.00  0.00    -0.267 OA
ATOM      7  N   UNL     1       9.653   5.592  -3.839  0.00  0.00    -0.264 N 
ATOM      8  C   UNL     1      10.639   4.676  -3.857  0.00  0.00    +0.333 A 
ATOM      9  O   UNL     1      11.156   4.372  -4.915  0.00  0.00    -0.246 OA
ATOM     10  C   UNL     1       9.216   6.215  -5.091  0.00  0.00    +0.157 C 
ATOM     11  C   UNL     1       8.806   5.746  -0.191  0.00  0.00    +0.093 C 
ATOM     12  C   UNL     1       9.609   5.248   0.982  0.00  0.00    +0.034 C 
ATOM     13  C   UNL     1      10.614   4.323   0.851  0.00  0.00    +0.048 C 
ATOM     14  N   UNL     1      10.957   3.798  -0.374  0.00  0.00    -0.299 N 
ATOM     15  C   UNL     1      11.188   4.051   2.174  0.00  0.00    +0.007 A 
ATOM     16  C   UNL     1      12.208   3.208   2.584  0.00  0.00    +0.010 A 
ATOM     17  C   UNL     1      12.507   3.193   3.950  0.00  0.00    +0.001 A 
ATOM     18  C   UNL     1      11.827   3.976   4.852  0.00  0.00    +0.001 A 
ATOM     19  C   UNL     1      10.795   4.832   4.454  0.00  0.00    +0.012 A 
ATOM     20  C   UNL     1      10.488   4.856   3.107  0.00  0.00    +0.031 A 
ATOM     21  C   UNL     1       9.480   5.620   2.339  0.00  0.00    +0.193 C 
ATOM     22  O   UNL     1       8.685   6.421   2.793  0.00  0.00    -0.287 OA
ATOM     23  H   UNL     1      11.516   3.008  -0.436  0.00  0.00    +0.154 HD
ENDROOT
BRANCH  11  24
ATOM     24  C   UNL     1       7.424   5.147  -0.144  0.00  0.00    -0.035 A 
ATOM     25  C   UNL     1       6.317   5.971  -0.058  0.00  0.00    +0.008 A 
ATOM     26  C   UNL     1       5.049   5.425  -0.014  0.00  0.00    +0.046 A 
ATOM     27  C   UNL     1       4.887   4.047  -0.058  0.00  0.00    +0.132 A 
ATOM     28  C   UNL     1       5.999   3.222  -0.140  0.00  0.00    +0.046 A 
ATOM     29  C   UNL     1       7.265   3.774  -0.189  0.00  0.00    +0.008 A 
BRANCH  27  30
ATOM     30  O   UNL     1       3.641   3.507  -0.015  0.00  0.00    -0.422 OA
BRANCH  30  31
ATOM     31  C   UNL     1       2.914   3.555  -1.148  0.00  0.00    +0.344 C 
ATOM     32  O   UNL     1       3.343   4.142  -2.121  0.00  0.00    -0.245 OA
BRANCH  31  33
ATOM     33  C   UNL     1       1.595   2.893  -1.208  0.00  0.00    +0.059 A 
ATOM     34  C   UNL     1       1.099   2.215  -0.092  0.00  0.00    +0.016 A 
ATOM     35  C   UNL     1      -0.133   1.599  -0.154  0.00  0.00    +0.016 A 
ATOM     36  C   UNL     1      -0.878   1.650  -1.321  0.00  0.00    +0.018 A 
ATOM     37  C   UNL     1      -0.391   2.319  -2.431  0.00  0.00    +0.016 A 
ATOM     38  C   UNL     1       0.839   2.940  -2.382  0.00  0.00    +0.016 A 
ATOM     39 BR   UNL     1      -2.566   0.802  -1.397  0.00  0.00    -0.050 Br
ENDBRANCH  31  33
ENDBRANCH  30  31
ENDBRANCH  27  30
ENDBRANCH  11  24
TORSDOF 4
