REMARK  Name = ZINC35934527
REMARK  11 active torsions:
REMARK  status: ('A' for Active; 'I' for Inactive)
REMARK    1  A    between atoms: C_1  and  C_2
REMARK    2  A    between atoms: C_5  and  C_8
REMARK    3  A    between atoms: C_8  and  N_9
REMARK    4  A    between atoms: C_15  and  C_17
REMARK    5  A    between atoms: C_17  and  N_18
REMARK    6  A    between atoms: C_24  and  C_31
REMARK    7  A    between atoms: N_29  and  C_30
REMARK    8  A    between atoms: C_34  and  C_37
REMARK    9  A    between atoms: C_37  and  C_38
REMARK   10  A    between atoms: C_37  and  C_39
REMARK   11  A    between atoms: C_37  and  C_40
REMARK                            x       y       z     vdW  Elec       q    Type
REMARK                         _______ _______ _______ _____ _____    ______ ____
ROOT
ATOM      1  N   UNL     1       5.568  -9.136   1.870  0.00  0.00    -0.283 N 
ATOM      2  C   UNL     1       7.022  -9.274   1.698  0.00  0.00    +0.160 C 
ATOM      3  C   UNL     1       7.480 -10.079   2.894  0.00  0.00    +0.042 C 
ATOM      4  C   UNL     1       6.375 -10.338   3.622  0.00  0.00    +0.058 C 
ATOM      5  C   UNL     1       5.239  -9.769   3.010  0.00  0.00    +0.247 C 
ATOM      6  O   UNL     1       4.108  -9.845   3.454  0.00  0.00    -0.270 OA
ATOM      7  C   UNL     1       6.543 -11.142   4.896  0.00  0.00    +0.142 C 
ATOM      8  N   UNL     1       7.909 -11.577   5.234  0.00  0.00    -0.288 N 
ATOM      9  C   UNL     1       8.915 -11.238   4.403  0.00  0.00    +0.307 C 
ATOM     10  O   UNL     1      10.046 -11.593   4.674  0.00  0.00    -0.252 OA
ATOM     11  N   UNL     1       8.709 -10.525   3.289  0.00  0.00    -0.260 N 
ATOM     12  C   UNL     1       9.864 -10.206   2.447  0.00  0.00    +0.139 C 
ATOM     13  H   UNL     1       8.081 -12.094   6.036  0.00  0.00    +0.151 HD
ENDROOT
BRANCH   7  14
ATOM     14  C   UNL     1       6.023 -10.312   6.041  0.00  0.00    -0.023 A 
ATOM     15  C   UNL     1       6.808  -9.311   6.582  0.00  0.00    +0.006 A 
ATOM     16  C   UNL     1       6.331  -8.550   7.633  0.00  0.00    +0.004 A 
ATOM     17  C   UNL     1       5.069  -8.790   8.143  0.00  0.00    -0.042 A 
ATOM     18  C   UNL     1       4.283  -9.791   7.601  0.00  0.00    +0.004 A 
ATOM     19  C   UNL     1       4.759 -10.549   6.548  0.00  0.00    +0.006 A 
BRANCH  17  20
ATOM     20  C   UNL     1       4.549  -7.962   9.289  0.00  0.00    -0.013 C 
ATOM     21  C   UNL     1       4.506  -6.489   8.875  0.00  0.00    +0.015 C 
ATOM     22  C   UNL     1       3.139  -8.429   9.658  0.00  0.00    +0.015 C 
ATOM     23  C   UNL     1       5.473  -8.126  10.497  0.00  0.00    +0.015 C 
ENDBRANCH  17  20
ENDBRANCH   7  14
BRANCH   1  24
ATOM     24  C   UNL     1       4.650  -8.434   0.970  0.00  0.00    +0.204 C 
BRANCH  24  31
ATOM     25  N   UNL     1       1.451  -4.747  -0.032  0.00  0.00    -0.295 NA
ATOM     26  C   UNL     1       2.137  -4.388   1.216  0.00  0.00    +0.103 C 
ATOM     27  C   UNL     1       3.625  -4.734   1.094  0.00  0.00    +0.123 C 
ATOM     28  N   UNL     1       3.746  -6.147   0.702  0.00  0.00    -0.298 N 
ATOM     29  C   UNL     1       2.976  -6.614  -0.461  0.00  0.00    +0.123 C 
ATOM     30  C   UNL     1       1.514  -6.194  -0.278  0.00  0.00    +0.103 C 
ATOM     31  C   UNL     1       4.541  -6.990   1.389  0.00  0.00    +0.233 C 
ATOM     32  O   UNL     1       5.169  -6.588   2.346  0.00  0.00    -0.274 OA
BRANCH  25  33
ATOM     33  C   UNL     1       0.059  -4.275  -0.021  0.00  0.00    +0.119 C 
BRANCH  33  38
ATOM     34  C   UNL     1      -0.018   1.503   0.010  0.00  0.00    +0.044 C 
ATOM     35  C   UNL     1       0.002  -0.004   0.002  0.00  0.00    -0.050 A 
ATOM     36  C   UNL     1       0.006  -0.689  -1.199  0.00  0.00    +0.003 A 
ATOM     37  C   UNL     1       0.025  -2.071  -1.206  0.00  0.00    +0.005 A 
ATOM     38  C   UNL     1       0.040  -2.768  -0.013  0.00  0.00    -0.033 A 
ATOM     39  C   UNL     1       0.037  -2.084   1.188  0.00  0.00    +0.005 A 
ATOM     40  C   UNL     1       0.023  -0.702   1.195  0.00  0.00    +0.003 A 
ENDBRANCH  33  38
ENDBRANCH  25  33
ENDBRANCH  24  31
ENDBRANCH   1  24
TORSDOF 6
