REMARK  Name = ZINC40057718
REMARK  5 active torsions:
REMARK  status: ('A' for Active; 'I' for Inactive)
REMARK    1  A    between atoms: C_1  and  S_2
REMARK    2  A    between atoms: S_2  and  N_5
REMARK    3  A    between atoms: C_10  and  C_12
REMARK    4  A    between atoms: N_14  and  C_15
REMARK    5  A    between atoms: C_18  and  C_21
REMARK                            x       y       z     vdW  Elec       q    Type
REMARK                         _______ _______ _______ _____ _____    ______ ____
ROOT
ATOM      1  C   UNL     1       5.011  -0.383   0.654  0.00  0.00    +0.033 A 
ATOM      2  C   UNL     1       4.473  -0.935   1.811  0.00  0.00    +0.024 A 
ATOM      3  C   UNL     1       5.201  -0.933   2.980  0.00  0.00    +0.013 A 
ATOM      4  C   UNL     1       6.482  -0.376   3.002  0.00  0.00    +0.017 A 
ATOM      5  C   UNL     1       7.020   0.176   1.838  0.00  0.00    +0.013 A 
ATOM      6  C   UNL     1       6.287   0.166   0.670  0.00  0.00    +0.024 A 
ENDROOT
BRANCH   4   7
ATOM      7  C   UNL     1       7.266  -0.372   4.254  0.00  0.00    +0.136 A 
ATOM      8  C   UNL     1       8.511   0.143   4.392  0.00  0.00    +0.058 A 
ATOM      9  C   UNL     1       8.888  -0.072   5.790  0.00  0.00    +0.021 A 
ATOM     10  C   UNL     1      10.021   0.223   6.550  0.00  0.00    +0.011 A 
ATOM     11  C   UNL     1      10.060  -0.122   7.872  0.00  0.00    +0.001 A 
ATOM     12  C   UNL     1       8.980  -0.764   8.462  0.00  0.00    +0.004 A 
ATOM     13  C   UNL     1       7.852  -1.064   7.728  0.00  0.00    +0.047 A 
ATOM     14  C   UNL     1       7.791  -0.722   6.383  0.00  0.00    +0.136 A 
ATOM     15  O   UNL     1       6.847  -0.875   5.432  0.00  0.00    -0.455 OA
ENDBRANCH   4   7
BRANCH   1  18
ATOM     16  C   UNL     1       2.928  -0.253  -0.487  0.00  0.00    +0.236 C 
ATOM     17  O   UNL     1       2.376  -0.022   0.568  0.00  0.00    -0.274 OA
ATOM     18  N   UNL     1       4.268  -0.386  -0.531  0.00  0.00    -0.284 N 
ATOM     19  H   UNL     1       4.718  -0.484  -1.385  0.00  0.00    +0.155 HD
BRANCH  16  25
ATOM     20  N   UNL     1       1.233   0.774  -1.896  0.00  0.00    -0.170 NA
ATOM     21  C   UNL     1       0.247   0.780  -2.986  0.00  0.00    +0.110 C 
ATOM     22  C   UNL     1      -0.598  -0.494  -2.893  0.00  0.00    +0.017 C 
ATOM     23  C   UNL     1       0.325  -1.715  -2.887  0.00  0.00    +0.003 C 
ATOM     24  C   UNL     1       1.245  -1.656  -1.665  0.00  0.00    +0.030 C 
ATOM     25  C   UNL     1       2.115  -0.392  -1.748  0.00  0.00    +0.165 C 
BRANCH  20  27
ATOM     26  C   UNL     1       0.303   1.619   0.553  0.00  0.00    +0.215 C 
ATOM     27  S   UNL     1       1.353   2.059  -0.860  0.00  0.00    +0.030 S 
ATOM     28  O   UNL     1       0.784   3.151  -1.569  0.00  0.00    -0.158 OA
ATOM     29  O   UNL     1       2.718   2.083  -0.467  0.00  0.00    -0.158 OA
ENDBRANCH  20  27
ENDBRANCH  16  25
ENDBRANCH   1  18
TORSDOF 4
