REMARK  Name = ZINC12551858
REMARK  6 active torsions:
REMARK  status: ('A' for Active; 'I' for Inactive)
REMARK    1  A    between atoms: C_1  and  C_2
REMARK    2  A    between atoms: C_2  and  O_3
REMARK    3  A    between atoms: O_3  and  C_4
REMARK    4  A    between atoms: C_5  and  O_31
REMARK    5  A    between atoms: C_7  and  C_11
REMARK    6  A    between atoms: O_31  and  C_32
REMARK                            x       y       z     vdW  Elec       q    Type
REMARK                         _______ _______ _______ _____ _____    ______ ____
ROOT
ATOM      1  C   UNL     1       1.107  -6.045  -1.850  0.00  0.00    +0.209 C 
ATOM      2  N   UNL     1       0.639  -6.421  -3.197  0.00  0.00    -0.294 N 
ATOM      3  C   UNL     1      -0.728  -6.542  -3.399  0.00  0.00    +0.159 C 
ATOM      4  N   UNL     1      -1.421  -7.356  -2.501  0.00  0.00    -0.259 N 
ATOM      5  C   UNL     1      -0.936  -7.338  -1.194  0.00  0.00    +0.205 A 
ATOM      6  N   UNL     1       0.255  -6.731  -0.873  0.00  0.00    -0.288 N 
ATOM      7  C   UNL     1       0.452  -6.896   0.482  0.00  0.00    +0.076 A 
ATOM      8  C   UNL     1       1.454  -6.519   1.366  0.00  0.00    +0.077 A 
ATOM      9  C   UNL     1       1.345  -6.843   2.705  0.00  0.00    +0.164 A 
ATOM     10  C   UNL     1       0.239  -7.547   3.173  0.00  0.00    +0.164 A 
ATOM     11  C   UNL     1      -0.762  -7.933   2.306  0.00  0.00    +0.079 A 
ATOM     12  C   UNL     1      -0.665  -7.611   0.950  0.00  0.00    +0.095 A 
ATOM     13  N   UNL     1      -1.473  -7.849  -0.126  0.00  0.00    -0.214 NA
ATOM     14  O   UNL     1       0.148  -7.854   4.501  0.00  0.00    -0.488 OA
ATOM     15  C   UNL     1       1.093  -8.809   4.988  0.00  0.00    +0.232 C 
ATOM     16  C   UNL     1       2.406  -8.132   5.349  0.00  0.00    +0.082 C 
ATOM     17  C   UNL     1       3.102  -7.533   4.137  0.00  0.00    +0.232 C 
ATOM     18  O   UNL     1       2.326  -6.471   3.580  0.00  0.00    -0.488 OA
ATOM     19  N   UNL     1      -1.334  -5.927  -4.375  0.00  0.00    -0.375 N 
ATOM     20  H   UNL     1       1.268  -6.580  -3.919  0.00  0.00    +0.151 HD
ATOM     21  H   UNL     1      -0.828  -5.367  -4.984  0.00  0.00    +0.158 HD
ATOM     22  H   UNL     1      -2.182  -7.894  -2.767  0.00  0.00    +0.158 HD
ATOM     23  H   UNL     1      -2.291  -6.029  -4.492  0.00  0.00    +0.158 HD
ENDROOT
BRANCH   1  27
ATOM     24  C   UNL     1       0.777  -1.811  -1.336  0.00  0.00    +0.176 A 
ATOM     25  C   UNL     1       1.877  -2.491  -0.823  0.00  0.00    +0.163 A 
ATOM     26  C   UNL     1       1.980  -3.863  -0.991  0.00  0.00    +0.056 A 
ATOM     27  C   UNL     1       0.992  -4.553  -1.668  0.00  0.00    -0.002 A 
ATOM     28  C   UNL     1      -0.101  -3.878  -2.179  0.00  0.00    +0.026 A 
ATOM     29  C   UNL     1      -0.213  -2.510  -2.009  0.00  0.00    +0.063 A 
ATOM     30 BR   UNL     1      -1.714  -1.591  -2.702  0.00  0.00    -0.046 Br
BRANCH  25  31
ATOM     31  O   UNL     1       2.849  -1.811  -0.157  0.00  0.00    -0.491 OA
ATOM     32  C   UNL     1       3.948  -2.574   0.343  0.00  0.00    +0.277 C 
ENDBRANCH  25  31
BRANCH  24  33
ATOM     33  O   UNL     1       0.671  -0.465  -1.174  0.00  0.00    -0.487 OA
BRANCH  33  35
ATOM     34  C   UNL     1      -0.019   1.526   0.010  0.00  0.00    +0.048 C 
ATOM     35  C   UNL     1       0.002  -0.004   0.002  0.00  0.00    +0.226 C 
ENDBRANCH  33  35
ENDBRANCH  24  33
ENDBRANCH   1  27
TORSDOF 4
