REMARK  Name = ZINC06768088
REMARK  11 active torsions:
REMARK  status: ('A' for Active; 'I' for Inactive)
REMARK    1  A    between atoms: C_1  and  C_2
REMARK    2  A    between atoms: C_11  and  C_13
REMARK    3  A    between atoms: C_11  and  C_14
REMARK    4  A    between atoms: C_16  and  C_17
REMARK    5  A    between atoms: N_19  and  C_20
REMARK    6  A    between atoms: C_20  and  C_21
REMARK    7  A    between atoms: C_21  and  C_22
REMARK    8  A    between atoms: C_25  and  O_30
REMARK    9  A    between atoms: C_26  and  O_28
REMARK   10  A    between atoms: O_28  and  C_29
REMARK   11  A    between atoms: O_30  and  C_31
REMARK                            x       y       z     vdW  Elec       q    Type
REMARK                         _______ _______ _______ _____ _____    ______ ____
ROOT
ATOM      1  C   UNL     1      -0.962  -2.891  -0.907  0.00  0.00    +0.048 C 
ATOM      2  C   UNL     1       0.528  -3.045  -0.744  0.00  0.00    +0.008 A 
ATOM      3  C   UNL     1       1.441  -2.038  -0.349  0.00  0.00    +0.034 A 
ATOM      4  C   UNL     1       2.713  -2.639  -0.334  0.00  0.00    +0.137 A 
ATOM      5  C   UNL     1       3.826  -1.885   0.020  0.00  0.00    +0.050 A 
ATOM      6  C   UNL     1       3.693  -0.553   0.358  0.00  0.00    +0.050 A 
ATOM      7  C   UNL     1       2.446   0.055   0.350  0.00  0.00    +0.130 A 
ATOM      8  C   UNL     1       1.312  -0.682  -0.002  0.00  0.00    +0.028 A 
ATOM      9  C   UNL     1       0.002  -0.004   0.002  0.00  0.00    +0.012 C 
ATOM     10  C   UNL     1      -0.016   1.329   0.009  0.00  0.00    +0.020 C 
ATOM     11  C   UNL     1       1.280   2.098   0.001  0.00  0.00    +0.124 C 
ATOM     12  O   UNL     1       2.299   1.365   0.681  0.00  0.00    -0.482 OA
ATOM     13  C   UNL     1       1.713   2.343  -1.446  0.00  0.00    +0.060 C 
ATOM     14  C   UNL     1       1.074   3.444   0.699  0.00  0.00    +0.060 C 
ATOM     15  O   UNL     1       2.555  -3.928  -0.702  0.00  0.00    -0.450 OA
ATOM     16  C   UNL     1       1.251  -4.177  -0.948  0.00  0.00    +0.193 A 
ENDROOT
BRANCH  16  17
ATOM     17  C   UNL     1       0.699  -5.471  -1.371  0.00  0.00    +0.280 C 
ATOM     18  O   UNL     1      -0.496  -5.588  -1.567  0.00  0.00    -0.267 OA
ATOM     19  N   UNL     1       1.517  -6.529  -1.543  0.00  0.00    -0.309 N 
ATOM     20  H   UNL     1       2.470  -6.435  -1.387  0.00  0.00    +0.149 HD
BRANCH  19  21
ATOM     21  C   UNL     1       0.967  -7.819  -1.965  0.00  0.00    +0.109 C 
BRANCH  21  22
ATOM     22  C   UNL     1       2.099  -8.841  -2.084  0.00  0.00    +0.054 C 
BRANCH  22  23
ATOM     23  C   UNL     1       1.533 -10.169  -2.519  0.00  0.00    -0.042 A 
ATOM     24  C   UNL     1       1.121 -11.087  -1.570  0.00  0.00    +0.007 A 
ATOM     25  C   UNL     1       0.597 -12.304  -1.964  0.00  0.00    +0.049 A 
ATOM     26  C   UNL     1       0.492 -12.610  -3.311  0.00  0.00    +0.161 A 
ATOM     27  C   UNL     1       0.912 -11.689  -4.265  0.00  0.00    +0.162 A 
ATOM     28  C   UNL     1       1.432 -10.469  -3.864  0.00  0.00    +0.053 A 
BRANCH  27  29
ATOM     29  O   UNL     1       0.811 -11.985  -5.589  0.00  0.00    -0.491 OA
ATOM     30  C   UNL     1       1.260 -10.991  -6.512  0.00  0.00    +0.277 C 
ENDBRANCH  27  29
BRANCH  26  31
ATOM     31  O   UNL     1      -0.019 -13.809  -3.700  0.00  0.00    -0.491 OA
ATOM     32  C   UNL     1      -0.429 -14.705  -2.665  0.00  0.00    +0.277 C 
ENDBRANCH  26  31
ENDBRANCH  22  23
ENDBRANCH  21  22
ENDBRANCH  19  21
ENDBRANCH  16  17
TORSDOF 6
