REMARK  Name = ZINC00873252
REMARK  7 active torsions:
REMARK  status: ('A' for Active; 'I' for Inactive)
REMARK    1  A    between atoms: C_1  and  C_2
REMARK    2  A    between atoms: C_2  and  C_3
REMARK    3  A    between atoms: C_9  and  C_11
REMARK    4  A    between atoms: C_11  and  S_12
REMARK    5  A    between atoms: S_12  and  C_13
REMARK    6  A    between atoms: C_16  and  C_25
REMARK    7  A    between atoms: N_17  and  C_18
REMARK                            x       y       z     vdW  Elec       q    Type
REMARK                         _______ _______ _______ _____ _____    ______ ____
ROOT
ATOM      1  C   UNL     1       5.191  -3.409  -8.529  0.00  0.00    +0.197 A 
ATOM      2  N   UNL     1       4.218  -3.504  -9.406  0.00  0.00    -0.122 NA
ATOM      3  N   UNL     1       4.681  -3.919 -10.530  0.00  0.00    -0.133 NA
ATOM      4  C   UNL     1       5.966  -4.112 -10.443  0.00  0.00    +0.142 A 
ATOM      5  N   UNL     1       6.341  -3.789  -9.165  0.00  0.00    -0.274 N 
ENDROOT
BRANCH   5   6
ATOM      6  C   UNL     1       7.633  -3.840  -8.622  0.00  0.00    +0.052 A 
ATOM      7  C   UNL     1       8.623  -2.993  -9.102  0.00  0.00    +0.026 A 
ATOM      8  C   UNL     1       9.894  -3.045  -8.566  0.00  0.00    +0.003 A 
ATOM      9  C   UNL     1      10.183  -3.939  -7.551  0.00  0.00    +0.020 A 
ATOM     10  C   UNL     1       9.198  -4.785  -7.071  0.00  0.00    +0.043 A 
ATOM     11  C   UNL     1       7.922  -4.732  -7.600  0.00  0.00    +0.046 A 
ATOM     12 CL   UNL     1       9.564  -5.907  -5.797  0.00  0.00    -0.083 Cl
ENDBRANCH   5   6
BRANCH   4  13
ATOM     13  C   UNL     1       6.874  -4.596 -11.544  0.00  0.00    +0.057 C 
ATOM     14  C   UNL     1       6.820  -3.616 -12.717  0.00  0.00    +0.011 C 
ATOM     15  C   UNL     1       7.742  -4.108 -13.835  0.00  0.00    +0.001 C 
ATOM     16  C   UNL     1       7.283  -5.490 -14.304  0.00  0.00    +0.000 C 
ATOM     17  C   UNL     1       7.337  -6.470 -13.130  0.00  0.00    +0.001 C 
ATOM     18  C   UNL     1       6.415  -5.979 -12.012  0.00  0.00    +0.011 C 
ENDBRANCH   4  13
BRANCH   1  19
ATOM     19  S   UNL     1       5.044  -2.884  -6.854  0.00  0.00    -0.076 S 
BRANCH  19  20
ATOM     20  C   UNL     1       3.275  -2.533  -6.657  0.00  0.00    +0.173 C 
BRANCH  20  27
ATOM     21  C   UNL     1       0.707  -0.490  -1.238  0.00  0.00    +0.103 A 
ATOM     22  N   UNL     1       1.983  -0.759  -1.434  0.00  0.00    -0.145 NA
ATOM     23  N   UNL     1       2.358  -1.161  -2.572  0.00  0.00    -0.126 NA
ATOM     24  C   UNL     1       1.510  -1.319  -3.570  0.00  0.00    +0.188 A 
ATOM     25  S   UNL     1       0.050  -0.872  -2.855  0.00  0.00    -0.035 S 
ATOM     26  N   UNL     1       1.756  -1.748  -4.870  0.00  0.00    -0.263 N 
ATOM     27  C   UNL     1       3.009  -2.068  -5.248  0.00  0.00    +0.229 C 
ATOM     28  O   UNL     1       3.923  -1.982  -4.455  0.00  0.00    -0.275 OA
ATOM     29  H   UNL     1       1.025  -1.817  -5.504  0.00  0.00    +0.157 HD
BRANCH  21  31
ATOM     30  C   UNL     1      -0.019   1.526   0.010  0.00  0.00    +0.011 C 
ATOM     31  C   UNL     1       0.002  -0.004   0.002  0.00  0.00    +0.061 C 
ENDBRANCH  21  31
ENDBRANCH  20  27
ENDBRANCH  19  20
ENDBRANCH   1  19
TORSDOF 6
