REMARK  Name = ZINC13680570
REMARK  8 active torsions:
REMARK  status: ('A' for Active; 'I' for Inactive)
REMARK    1  A    between atoms: C_4  and  C_7
REMARK    2  A    between atoms: C_7  and  S_8
REMARK    3  A    between atoms: S_8  and  C_9
REMARK    4  A    between atoms: C_9  and  C_10
REMARK    5  A    between atoms: C_10  and  N_11
REMARK    6  A    between atoms: C_12  and  C_14
REMARK    7  A    between atoms: N_17  and  S_25
REMARK    8  A    between atoms: S_25  and  C_28
REMARK                            x       y       z     vdW  Elec       q    Type
REMARK                         _______ _______ _______ _____ _____    ______ ____
ROOT
ATOM      1  C   UNL     1       2.323   4.138   0.429  0.00  0.00    +0.277 C 
ATOM      2  C   UNL     1       3.534   3.557  -0.315  0.00  0.00    +0.186 C 
ATOM      3  N   UNL     1       3.592   2.116  -0.013  0.00  0.00    -0.195 N 
ATOM      4  C   UNL     1       2.384   1.401  -0.011  0.00  0.00    +0.093 A 
ATOM      5  C   UNL     1       2.397   0.015  -0.019  0.00  0.00    +0.028 A 
ATOM      6  C   UNL     1       1.205  -0.685  -0.012  0.00  0.00    +0.002 A 
ATOM      7  C   UNL     1       0.002  -0.004   0.002  0.00  0.00    +0.004 A 
ATOM      8  C   UNL     1      -0.017   1.378   0.010  0.00  0.00    +0.047 A 
ATOM      9  C   UNL     1       1.174   2.089   0.002  0.00  0.00    +0.144 A 
ATOM     10  O   UNL     1       1.146   3.448   0.002  0.00  0.00    -0.476 OA
ENDROOT
BRANCH   1  12
ATOM     11  N   UNL     1       3.150   6.468   0.504  0.00  0.00    -0.311 N 
ATOM     12  C   UNL     1       2.192   5.605   0.112  0.00  0.00    +0.255 C 
ATOM     13  O   UNL     1       1.224   6.010  -0.498  0.00  0.00    -0.272 OA
ATOM     14  H   UNL     1       3.924   6.144   0.992  0.00  0.00    +0.149 HD
BRANCH  11  15
ATOM     15  C   UNL     1       3.022   7.894   0.196  0.00  0.00    +0.115 C 
BRANCH  15  16
ATOM     16  C   UNL     1       4.234   8.646   0.750  0.00  0.00    +0.088 C 
BRANCH  16  17
ATOM     17  S   UNL     1       4.076  10.413   0.368  0.00  0.00    -0.155 S 
BRANCH  17  18
ATOM     18  C   UNL     1       5.571  11.152   1.082  0.00  0.00    +0.104 C 
BRANCH  18  22
ATOM     19  C   UNL     1       5.556  15.364   0.373  0.00  0.00    +0.000 A 
ATOM     20  C   UNL     1       4.979  14.854   1.522  0.00  0.00    +0.000 A 
ATOM     21  C   UNL     1       4.984  13.491   1.751  0.00  0.00    +0.004 A 
ATOM     22  C   UNL     1       5.566  12.638   0.832  0.00  0.00    -0.038 A 
ATOM     23  C   UNL     1       6.147  13.148  -0.314  0.00  0.00    +0.004 A 
ATOM     24  C   UNL     1       6.137  14.511  -0.546  0.00  0.00    +0.000 A 
ENDBRANCH  18  22
ENDBRANCH  17  18
ENDBRANCH  16  17
ENDBRANCH  15  16
ENDBRANCH  11  15
ENDBRANCH   1  12
BRANCH   3  25
ATOM     25  S   UNL     1       5.032   1.366   0.310  0.00  0.00    +0.075 S 
ATOM     26  O   UNL     1       5.920   2.374   0.776  0.00  0.00    -0.150 OA
ATOM     27  O   UNL     1       4.725   0.209   1.076  0.00  0.00    -0.150 OA
BRANCH  25  28
ATOM     28  C   UNL     1       5.680   0.796  -1.226  0.00  0.00    +0.109 A 
ATOM     29  C   UNL     1       5.364  -0.470  -1.682  0.00  0.00    +0.030 A 
ATOM     30  C   UNL     1       5.867  -0.916  -2.890  0.00  0.00    +0.022 A 
ATOM     31  C   UNL     1       6.696  -0.098  -3.637  0.00  0.00    +0.041 A 
ATOM     32  C   UNL     1       7.017   1.167  -3.178  0.00  0.00    +0.022 A 
ATOM     33  C   UNL     1       6.508   1.613  -1.972  0.00  0.00    +0.030 A 
ATOM     34 CL   UNL     1       7.335  -0.660  -5.151  0.00  0.00    -0.084 Cl
ENDBRANCH  25  28
ENDBRANCH   3  25
TORSDOF 8
