REMARK  Name = ZINC65146859
REMARK  8 active torsions:
REMARK  status: ('A' for Active; 'I' for Inactive)
REMARK    1  A    between atoms: C_1  and  C_2
REMARK    2  A    between atoms: C_2  and  C_3
REMARK    3  A    between atoms: C_2  and  N_4
REMARK    4  A    between atoms: N_7  and  C_8
REMARK    5  A    between atoms: C_13  and  C_14
REMARK    6  A    between atoms: N_16  and  N_17
REMARK    7  A    between atoms: N_20  and  C_21
REMARK    8  A    between atoms: C_21  and  C_22
REMARK                            x       y       z     vdW  Elec       q    Type
REMARK                         _______ _______ _______ _____ _____    ______ ____
ROOT
ATOM      1  C   UNL     1       3.844  -1.770  -4.802  0.00  0.00    +0.262 C 
ATOM      2  O   UNL     1       2.635  -1.644  -4.756  0.00  0.00    -0.269 OA
ATOM      3  N   UNL     1       4.433  -2.216  -5.929  0.00  0.00    -0.229 N 
ATOM      4  H   UNL     1       5.397  -2.316  -5.965  0.00  0.00    +0.173 HD
ENDROOT
BRANCH   1  10
ATOM      5  C   UNL     1       4.051  -1.075  -2.414  0.00  0.00    +0.047 A 
ATOM      6  C   UNL     1       4.834  -0.766  -1.310  0.00  0.00    +0.024 A 
ATOM      7  C   UNL     1       6.210  -0.805  -1.407  0.00  0.00    +0.002 A 
ATOM      8  C   UNL     1       6.821  -1.153  -2.601  0.00  0.00    +0.001 A 
ATOM      9  C   UNL     1       6.059  -1.463  -3.707  0.00  0.00    +0.015 A 
ATOM     10  C   UNL     1       4.665  -1.433  -3.624  0.00  0.00    +0.059 A 
BRANCH   5  14
ATOM     11  N   UNL     1       0.721  -0.011  -1.524  0.00  0.00    -0.297 N 
ATOM     12  C   UNL     1       2.065  -0.108  -1.545  0.00  0.00    +0.304 C 
ATOM     13  O   UNL     1       2.739   0.641  -0.865  0.00  0.00    -0.253 OA
ATOM     14  N   UNL     1       2.662  -1.036  -2.320  0.00  0.00    -0.269 N 
ATOM     15  H   UNL     1       0.183  -0.609  -2.066  0.00  0.00    +0.151 HD
ATOM     16  H   UNL     1       2.124  -1.676  -2.811  0.00  0.00    +0.156 HD
BRANCH  11  18
ATOM     17  C   UNL     1       0.010   2.327  -1.435  0.00  0.00    +0.027 C 
ATOM     18  C   UNL     1       0.072   0.997  -0.681  0.00  0.00    +0.068 C 
ATOM     19  C   UNL     1      -1.346   0.538  -0.337  0.00  0.00    +0.027 C 
ENDBRANCH  11  18
ENDBRANCH   5  14
ENDBRANCH   1  10
BRANCH   3  20
ATOM     20  N   UNL     1       3.653  -2.536  -7.048  0.00  0.00    -0.218 N 
ATOM     21  C   UNL     1       4.242  -2.983  -8.174  0.00  0.00    +0.316 C 
ATOM     22  O   UNL     1       3.565  -3.260  -9.146  0.00  0.00    -0.251 OA
ATOM     23  N   UNL     1       5.582  -3.122  -8.225  0.00  0.00    -0.296 N 
ATOM     24  H   UNL     1       2.689  -2.436  -7.011  0.00  0.00    +0.174 HD
ATOM     25  H   UNL     1       6.122  -2.900  -7.450  0.00  0.00    +0.150 HD
BRANCH  23  26
ATOM     26  C   UNL     1       6.222  -3.607  -9.450  0.00  0.00    +0.137 C 
BRANCH  26  27
ATOM     27  C   UNL     1       7.737  -3.672  -9.242  0.00  0.00    +0.135 C 
ATOM     28  C   UNL     1       8.430  -4.072 -10.562  0.00  0.00    +0.035 C 
ATOM     29  C   UNL     1       9.553  -5.024 -10.069  0.00  0.00    +0.031 C 
ATOM     30  C   UNL     1       8.856  -5.703  -8.864  0.00  0.00    +0.160 C 
ATOM     31  O   UNL     1       8.051  -4.673  -8.267  0.00  0.00    -0.375 OA
ENDBRANCH  26  27
ENDBRANCH  23  26
ENDBRANCH   3  20
TORSDOF 6
