REMARK  Name = ZINC14885149
REMARK  12 active torsions:
REMARK  status: ('A' for Active; 'I' for Inactive)
REMARK    1  A    between atoms: C_1  and  C_2
REMARK    2  A    between atoms: C_2  and  C_3
REMARK    3  A    between atoms: C_2  and  C_4
REMARK    4  A    between atoms: C_4  and  C_5
REMARK    5  A    between atoms: C_8  and  C_11
REMARK    6  A    between atoms: C_11  and  N_12
REMARK    7  A    between atoms: C_18  and  C_22
REMARK    8  A    between atoms: C_22  and  C_24
REMARK    9  A    between atoms: C_22  and  N_27
REMARK   10  A    between atoms: C_24  and  C_25
REMARK   11  A    between atoms: C_24  and  C_26
REMARK   12  A    between atoms: C_28  and  C_30
REMARK                            x       y       z     vdW  Elec       q    Type
REMARK                         _______ _______ _______ _____ _____    ______ ____
ROOT
ATOM      1  N   UNL     1       2.352  -0.618  -0.347  0.00  0.00    -0.296 NA
ATOM      2  C   UNL     1       2.668   0.664  -0.980  0.00  0.00    +0.092 C 
ATOM      3  C   UNL     1       2.498   1.797   0.037  0.00  0.00    +0.091 C 
ATOM      4  C   UNL     1       1.068   2.271   0.004  0.00  0.00    +0.135 A 
ATOM      5  N   UNL     1       0.636   3.497  -0.021  0.00  0.00    -0.134 NA
ATOM      6  N   UNL     1      -0.652   3.500  -0.011  0.00  0.00    -0.132 NA
ATOM      7  C   UNL     1      -1.096   2.271   0.014  0.00  0.00    +0.154 A 
ATOM      8  N   UNL     1      -0.018   1.459   0.010  0.00  0.00    -0.312 N 
ATOM      9  C   UNL     1       0.002  -0.004   0.002  0.00  0.00    +0.140 C 
ATOM     10  C   UNL     1       1.294  -0.494   0.662  0.00  0.00    +0.106 C 
ENDROOT
BRANCH   1  11
ATOM     11  C   UNL     1       2.004  -1.630  -1.353  0.00  0.00    +0.119 C 
BRANCH  11  15
ATOM     12  C   UNL     1       5.402  -2.413  -3.820  0.00  0.00    -0.047 A 
ATOM     13  C   UNL     1       5.198  -3.152  -2.669  0.00  0.00    +0.004 A 
ATOM     14  C   UNL     1       4.098  -2.899  -1.871  0.00  0.00    +0.005 A 
ATOM     15  C   UNL     1       3.203  -1.906  -2.223  0.00  0.00    -0.033 A 
ATOM     16  C   UNL     1       3.404  -1.171  -3.376  0.00  0.00    +0.005 A 
ATOM     17  C   UNL     1       4.506  -1.422  -4.172  0.00  0.00    +0.004 A 
BRANCH  12  18
ATOM     18  C   UNL     1       6.602  -2.689  -4.689  0.00  0.00    +0.038 C 
BRANCH  18  20
ATOM     19  C   UNL     1       7.417  -3.933  -6.697  0.00  0.00    +0.007 C 
ATOM     20  C   UNL     1       6.240  -3.744  -5.737  0.00  0.00    -0.013 C 
ATOM     21  C   UNL     1       5.933  -5.071  -5.040  0.00  0.00    +0.007 C 
ENDBRANCH  18  20
ENDBRANCH  12  18
ENDBRANCH  11  15
ENDBRANCH   1  11
BRANCH   7  22
ATOM     22  C   UNL     1      -2.540   1.841   0.041  0.00  0.00    +0.144 C 
BRANCH  22  23
ATOM     23  N   UNL     1      -3.301   2.623  -0.936  0.00  0.00    -0.305 N 
ATOM     24  C   UNL     1      -4.438   2.124  -1.461  0.00  0.00    +0.219 C 
ATOM     25  O   UNL     1      -4.830   1.027  -1.125  0.00  0.00    -0.275 OA
ATOM     26  H   UNL     1      -2.945   3.618  -1.242  0.00  0.00    +0.149 HD
BRANCH  24  27
ATOM     27  C   UNL     1      -5.220   2.929  -2.466  0.00  0.00    +0.103 C 
ATOM     28  C   UNL     1      -6.476   2.152  -2.921  0.00  0.00    +0.043 C 
ATOM     29  C   UNL     1      -6.270   1.962  -4.440  0.00  0.00    +0.160 C 
ATOM     30  O   UNL     1      -4.841   2.047  -4.632  0.00  0.00    -0.379 OA
ATOM     31  C   UNL     1      -4.404   3.115  -3.764  0.00  0.00    +0.172 C 
ENDBRANCH  24  27
ENDBRANCH  22  23
BRANCH  22  32
ATOM     32  C   UNL     1      -3.115   2.073   1.440  0.00  0.00    +0.011 C 
ATOM     33  C   UNL     1      -3.134   3.574   1.740  0.00  0.00    +0.009 C 
ATOM     34  C   UNL     1      -4.541   1.523   1.503  0.00  0.00    +0.009 C 
ENDBRANCH  22  32
ENDBRANCH   7  22
TORSDOF 8
