REMARK  Name = ZINC29124821
REMARK  9 active torsions:
REMARK  status: ('A' for Active; 'I' for Inactive)
REMARK    1  A    between atoms: C_1  and  C_2
REMARK    2  A    between atoms: N_5  and  C_11
REMARK    3  A    between atoms: C_7  and  C_10
REMARK    4  A    between atoms: C_13  and  N_19
REMARK    5  A    between atoms: C_16  and  O_17
REMARK    6  A    between atoms: O_17  and  C_18
REMARK    7  A    between atoms: N_19  and  S_20
REMARK    8  A    between atoms: S_20  and  C_23
REMARK    9  A    between atoms: C_26  and  C_28
REMARK                            x       y       z     vdW  Elec       q    Type
REMARK                         _______ _______ _______ _____ _____    ______ ____
ROOT
ATOM      1  C   UNL     1      -2.112  -2.818  -0.740  0.00  0.00    +0.074 A 
ATOM      2  C   UNL     1      -1.527  -3.263  -1.915  0.00  0.00    +0.053 A 
ATOM      3  C   UNL     1      -2.245  -4.075  -2.782  0.00  0.00    +0.076 A 
ATOM      4  C   UNL     1      -3.548  -4.441  -2.472  0.00  0.00    +0.030 A 
ATOM      5  C   UNL     1      -4.132  -3.998  -1.300  0.00  0.00    +0.049 A 
ATOM      6  C   UNL     1      -3.418  -3.192  -0.430  0.00  0.00    +0.141 A 
ENDROOT
BRANCH   1  10
ATOM      7  C   UNL     1      -0.019   1.526   0.010  0.00  0.00    -0.012 C 
ATOM      8  C   UNL     1       0.002  -0.004   0.002  0.00  0.00    -0.057 C 
ATOM      9  C   UNL     1      -1.435  -0.535   0.013  0.00  0.00    +0.089 C 
ATOM     10  N   UNL     1      -1.391  -2.000   0.137  0.00  0.00    -0.330 N 
ATOM     11  C   UNL     1      -0.566  -2.580   1.208  0.00  0.00    +0.089 C 
ATOM     12  C   UNL     1       0.830  -1.953   1.140  0.00  0.00    -0.057 C 
ATOM     13  N   UNL     1       0.712  -0.491   1.192  0.00  0.00    +0.384 N 
ATOM     14  C   UNL     1       1.666  -2.440   2.326  0.00  0.00    -0.012 C 
ATOM     15  H   UNL     1       1.633  -0.081   1.223  0.00  0.00    -0.085 HD
ATOM     16  H   UNL     1       0.200  -0.225   2.019  0.00  0.00    -0.085 HD
ENDBRANCH   1  10
BRANCH   6  17
ATOM     17  O   UNL     1      -3.993  -2.761   0.727  0.00  0.00    -0.493 OA
ATOM     18  C   UNL     1      -5.334  -3.183   0.980  0.00  0.00    +0.277 C 
ENDBRANCH   6  17
BRANCH   3  19
ATOM     19  N   UNL     1      -1.656  -4.524  -3.969  0.00  0.00    -0.097 NA
BRANCH  19  20
ATOM     20  S   UNL     1      -2.513  -5.493  -5.004  0.00  0.00    +0.098 S 
ATOM     21  O   UNL     1      -2.730  -6.721  -4.324  0.00  0.00    -0.148 OA
ATOM     22  O   UNL     1      -3.580  -4.703  -5.510  0.00  0.00    -0.148 OA
BRANCH  20  23
ATOM     23  C   UNL     1      -1.462  -5.853  -6.371  0.00  0.00    +0.148 A 
ATOM     24  C   UNL     1      -0.595  -6.887  -6.533  0.00  0.00    +0.037 A 
ATOM     25  C   UNL     1       0.135  -6.974  -7.697  0.00  0.00    +0.019 A 
ATOM     26  C   UNL     1      -0.037  -6.011  -8.656  0.00  0.00    +0.039 A 
ATOM     27  S   UNL     1      -1.266  -4.958  -7.903  0.00  0.00    -0.067 S 
BRANCH  26  28
ATOM     28  C   UNL     1       0.619  -5.882  -9.973  0.00  0.00    +0.078 A 
ATOM     29  C   UNL     1       0.298  -4.807 -10.804  0.00  0.00    +0.029 A 
ATOM     30  C   UNL     1       0.922  -4.700 -12.034  0.00  0.00    +0.004 A 
ATOM     31  C   UNL     1       1.847  -5.671 -12.395  0.00  0.00    +0.020 A 
ATOM     32  C   UNL     1       2.118  -6.709 -11.524  0.00  0.00    +0.111 A 
ATOM     33  N   UNL     1       1.515  -6.786 -10.355  0.00  0.00    -0.254 NA
ENDBRANCH  26  28
ENDBRANCH  20  23
ENDBRANCH  19  20
ENDBRANCH   3  19
TORSDOF 6
