REMARK  Name = ZINC38704798
REMARK  7 active torsions:
REMARK  status: ('A' for Active; 'I' for Inactive)
REMARK    1  A    between atoms: C_1  and  C_2
REMARK    2  A    between atoms: C_4  and  C_35
REMARK    3  A    between atoms: C_5  and  C_9
REMARK    4  A    between atoms: C_6  and  O_8
REMARK    5  A    between atoms: N_17  and  C_28
REMARK    6  A    between atoms: C_18  and  C_20
REMARK    7  A    between atoms: C_28  and  C_29
REMARK                            x       y       z     vdW  Elec       q    Type
REMARK                         _______ _______ _______ _____ _____    ______ ____
ROOT
ATOM      1  C   UNL     1       0.217  -3.921  -0.025  0.00  0.00    +0.102 A 
ATOM      2  C   UNL     1       0.209  -4.758   1.096  0.00  0.00    +0.035 A 
ATOM      3  C   UNL     1       0.529  -6.018   0.627  0.00  0.00    +0.126 A 
ATOM      4  N   UNL     1       0.711  -5.886  -0.721  0.00  0.00    -0.272 N 
ATOM      5  H   UNL     1       0.946  -6.608  -1.324  0.00  0.00    +0.189 HD
ATOM      6  N   UNL     1       0.518  -4.665  -1.071  0.00  0.00    -0.173 NA
ATOM      7  C   UNL     1       0.537  -6.950   1.760  0.00  0.00    +0.266 C 
ATOM      8  O   UNL     1       0.783  -8.138   1.680  0.00  0.00    -0.268 OA
ATOM      9  N   UNL     1       0.234  -6.303   2.900  0.00  0.00    -0.283 N 
ATOM     10  C   UNL     1       0.006  -4.888   2.580  0.00  0.00    +0.141 C 
ENDROOT
BRANCH   1  15
ATOM     11  C   UNL     1      -0.887   1.735  -0.069  0.00  0.00    +0.044 C 
ATOM     12  C   UNL     1      -0.601   0.256  -0.056  0.00  0.00    -0.047 A 
ATOM     13  C   UNL     1       0.537  -0.231  -0.675  0.00  0.00    +0.007 A 
ATOM     14  C   UNL     1       0.807  -1.585  -0.667  0.00  0.00    -0.037 A 
ATOM     15  C   UNL     1      -0.069  -2.464  -0.035  0.00  0.00    +0.047 A 
ATOM     16  C   UNL     1      -1.217  -1.970   0.589  0.00  0.00    +0.127 A 
ATOM     17  C   UNL     1      -1.473  -0.608   0.579  0.00  0.00    +0.049 A 
ATOM     18  C   UNL     1       2.047  -2.111  -1.343  0.00  0.00    +0.044 C 
BRANCH  16  19
ATOM     19  O   UNL     1      -2.076  -2.820   1.209  0.00  0.00    -0.506 OA
ATOM     20  H   UNL     1      -1.927  -2.906   2.160  0.00  0.00    +0.292 HD
ENDBRANCH  16  19
ENDBRANCH   1  15
BRANCH  10  21
ATOM     21  C   UNL     1       0.996  -4.023   3.317  0.00  0.00    -0.021 A 
ATOM     22  C   UNL     1       2.349  -4.158   3.070  0.00  0.00    +0.007 A 
ATOM     23  C   UNL     1       3.258  -3.365   3.745  0.00  0.00    +0.022 A 
ATOM     24  C   UNL     1       2.813  -2.436   4.668  0.00  0.00    +0.059 A 
ATOM     25  C   UNL     1       1.458  -2.300   4.916  0.00  0.00    +0.060 A 
ATOM     26  C   UNL     1       0.549  -3.091   4.235  0.00  0.00    +0.027 A 
ATOM     27 CL   UNL     1       0.899  -1.135   6.075  0.00  0.00    -0.082 Cl
ATOM     28 CL   UNL     1       3.955  -1.440   5.517  0.00  0.00    -0.082 Cl
ENDBRANCH  10  21
BRANCH   9  29
ATOM     29  C   UNL     1       0.146  -6.907   4.232  0.00  0.00    +0.140 C 
BRANCH  29  30
ATOM     30  C   UNL     1       1.544  -6.994   4.846  0.00  0.00    +0.136 C 
ATOM     31  C   UNL     1       1.474  -7.717   6.208  0.00  0.00    +0.035 C 
ATOM     32  C   UNL     1       2.482  -6.903   7.066  0.00  0.00    +0.031 C 
ATOM     33  C   UNL     1       2.279  -5.480   6.487  0.00  0.00    +0.160 C 
ATOM     34  O   UNL     1       2.055  -5.676   5.080  0.00  0.00    -0.375 OA
ENDBRANCH  29  30
ENDBRANCH   9  29
TORSDOF 5
