REMARK  Name = ZINC64918191
REMARK  2 active torsions:
REMARK  status: ('A' for Active; 'I' for Inactive)
REMARK    1  A    between atoms: C_4  and  C_7
REMARK    2  A    between atoms: C_13  and  C_15
REMARK                            x       y       z     vdW  Elec       q    Type
REMARK                         _______ _______ _______ _____ _____    ______ ____
ROOT
ATOM      1  C   UNL     1       3.699  -0.689  -0.037  0.00  0.00    +0.170 A 
ATOM      2  N   UNL     1       3.744  -2.010  -0.050  0.00  0.00    -0.204 NA
ATOM      3  C   UNL     1       4.934  -2.582  -0.065  0.00  0.00    +0.185 A 
ATOM      4  S   UNL     1       5.978  -1.266  -0.060  0.00  0.00    +0.050 S 
ATOM      5  N   UNL     1       4.842  -0.033  -0.046  0.00  0.00    -0.187 NA
ATOM      6  N   UNL     1       5.244  -3.933  -0.079  0.00  0.00    -0.259 N 
ATOM      7  C   UNL     1       6.533  -4.329  -0.093  0.00  0.00    +0.253 C 
ATOM      8  O   UNL     1       7.423  -3.501  -0.092  0.00  0.00    -0.270 OA
ATOM      9  H   UNL     1       4.534  -4.594  -0.079  0.00  0.00    +0.157 HD
ENDROOT
BRANCH   7  10
ATOM     10  C   UNL     1       6.863  -5.768  -0.108  0.00  0.00    +0.074 A 
ATOM     11  C   UNL     1       5.847  -6.732  -0.114  0.00  0.00    +0.019 A 
ATOM     12  C   UNL     1       6.209  -8.066  -0.129  0.00  0.00    +0.041 A 
ATOM     13  C   UNL     1       7.552  -8.405  -0.137  0.00  0.00    +0.131 A 
ATOM     14  N   UNL     1       8.490  -7.475  -0.130  0.00  0.00    -0.223 NA
ATOM     15  C   UNL     1       8.195  -6.190  -0.122  0.00  0.00    +0.143 A 
ATOM     16 CL   UNL     1       9.472  -5.014  -0.121  0.00  0.00    -0.061 Cl
ATOM     17 CL   UNL     1       8.011 -10.079  -0.155  0.00  0.00    -0.062 Cl
ENDBRANCH   7  10
BRANCH   1  21
ATOM     18  C   UNL     1      -0.017   1.379   0.010  0.00  0.00    +0.000 A 
ATOM     19  C   UNL     1       1.169   2.092   0.002  0.00  0.00    +0.001 A 
ATOM     20  C   UNL     1       2.377   1.426  -0.013  0.00  0.00    +0.011 A 
ATOM     21  C   UNL     1       2.402   0.033  -0.021  0.00  0.00    +0.020 A 
ATOM     22  C   UNL     1       1.205  -0.680  -0.013  0.00  0.00    +0.011 A 
ATOM     23  C   UNL     1       0.002  -0.004   0.002  0.00  0.00    +0.001 A 
ENDBRANCH   1  21
TORSDOF 2
