REMARK  Name = ZINC19890021
REMARK  5 active torsions:
REMARK  status: ('A' for Active; 'I' for Inactive)
REMARK    1  A    between atoms: C_1  and  C_2
REMARK    2  A    between atoms: C_9  and  C_11
REMARK    3  A    between atoms: C_14  and  N_17
REMARK    4  A    between atoms: C_21  and  N_25
REMARK    5  A    between atoms: N_25  and  C_26
REMARK                            x       y       z     vdW  Elec       q    Type
REMARK                         _______ _______ _______ _____ _____    ______ ____
ROOT
ATOM      1  N   UNL     1      -3.542   3.792   1.233  0.00  0.00    -0.212 N 
ATOM      2  C   UNL     1      -3.013   4.305   2.351  0.00  0.00    +0.225 C 
ATOM      3  O   UNL     1      -3.633   4.873   3.224  0.00  0.00    -0.275 OA
ATOM      4  C   UNL     1      -1.519   4.063   2.352  0.00  0.00    +0.090 C 
ATOM      5  C   UNL     1      -1.274   3.313   1.027  0.00  0.00    +0.026 C 
ATOM      6  C   UNL     1      -2.655   3.210   0.416  0.00  0.00    +0.213 C 
ATOM      7  O   UNL     1      -2.916   2.684  -0.644  0.00  0.00    -0.277 OA
ENDROOT
BRANCH   1  11
ATOM      8  C   UNL     1      -7.617   3.989   0.367  0.00  0.00    +0.007 A 
ATOM      9  C   UNL     1      -7.165   3.211   1.434  0.00  0.00    +0.012 A 
ATOM     10  C   UNL     1      -5.818   3.147   1.718  0.00  0.00    +0.024 A 
ATOM     11  C   UNL     1      -4.910   3.858   0.942  0.00  0.00    +0.044 A 
ATOM     12  C   UNL     1      -5.356   4.638  -0.118  0.00  0.00    +0.024 A 
ATOM     13  C   UNL     1      -6.701   4.701  -0.410  0.00  0.00    +0.012 A 
BRANCH   8  22
ATOM     14  C   UNL     1     -15.279   4.408  -1.324  0.00  0.00    +0.044 C 
ATOM     15  C   UNL     1     -13.902   4.140  -0.773  0.00  0.00    -0.049 A 
ATOM     16  C   UNL     1     -13.736   3.306   0.324  0.00  0.00    +0.005 A 
ATOM     17  C   UNL     1     -12.507   3.046   0.844  0.00  0.00    +0.029 A 
ATOM     18  C   UNL     1     -11.344   3.621   0.279  0.00  0.00    +0.079 A 
ATOM     19  C   UNL     1     -11.546   4.466  -0.838  0.00  0.00    +0.040 A 
ATOM     20  C   UNL     1     -12.792   4.723  -1.355  0.00  0.00    +0.020 A 
ATOM     21  S   UNL     1      -9.890   4.976  -1.231  0.00  0.00    -0.067 S 
ATOM     22  C   UNL     1      -9.061   4.059   0.060  0.00  0.00    +0.109 A 
ATOM     23  N   UNL     1     -10.064   3.466   0.670  0.00  0.00    -0.239 NA
ENDBRANCH   8  22
ENDBRANCH   1  11
BRANCH   5  24
ATOM     24  N   UNL     1      -0.721   1.976   1.284  0.00  0.00    +0.389 N 
ATOM     25  H   UNL     1       0.003   2.032   2.110  0.00  0.00    -0.084 HD
ATOM     26  H   UNL     1      -1.536   1.289   1.557  0.00  0.00    -0.084 HD
BRANCH  24  27
ATOM     27  C   UNL     1      -0.040   1.450   0.094  0.00  0.00    -0.071 C 
ATOM     28  C   UNL     1       1.399   1.968   0.060  0.00  0.00    -0.016 C 
ATOM     29  C   UNL     1       2.219   1.131  -0.925  0.00  0.00    -0.002 C 
ATOM     30  C   UNL     1       1.868   1.539  -2.357  0.00  0.00    -0.000 C 
ATOM     31  C   UNL     1       0.509   0.948  -2.737  0.00  0.00    -0.000 C 
ATOM     32  C   UNL     1       0.436  -0.507  -2.271  0.00  0.00    -0.000 C 
ATOM     33  C   UNL     1      -0.607  -0.636  -1.159  0.00  0.00    -0.002 C 
ATOM     34  C   UNL     1      -0.032  -0.079   0.145  0.00  0.00    -0.016 C 
ENDBRANCH  24  27
ENDBRANCH   5  24
TORSDOF 4
