REMARK  Name = ZINC20841712
REMARK  9 active torsions:
REMARK  status: ('A' for Active; 'I' for Inactive)
REMARK    1  A    between atoms: C_1  and  C_2
REMARK    2  A    between atoms: C_2  and  C_3
REMARK    3  A    between atoms: C_2  and  C_4
REMARK    4  A    between atoms: C_2  and  C_5
REMARK    5  A    between atoms: C_8  and  S_11
REMARK    6  A    between atoms: N_9  and  N_10
REMARK    7  A    between atoms: S_11  and  C_12
REMARK    8  A    between atoms: C_12  and  C_13
REMARK    9  A    between atoms: N_15  and  C_16
REMARK                            x       y       z     vdW  Elec       q    Type
REMARK                         _______ _______ _______ _____ _____    ______ ____
ROOT
ATOM      1  C   UNL     1       1.175   2.253  -4.560  0.00  0.00    +0.173 C 
ENDROOT
BRANCH   1   2
ATOM      2  C   UNL     1       2.506   2.217  -5.266  0.00  0.00    +0.224 C 
ATOM      3  O   UNL     1       3.494   1.830  -4.678  0.00  0.00    -0.275 OA
ATOM      4  N   UNL     1       2.599   2.616  -6.550  0.00  0.00    -0.311 N 
ATOM      5  H   UNL     1       1.703   2.967  -7.083  0.00  0.00    +0.149 HD
BRANCH   4   6
ATOM      6  C   UNL     1       3.893   2.582  -7.236  0.00  0.00    +0.079 C 
ATOM      7  C   UNL     1       4.665   3.868  -6.934  0.00  0.00    +0.010 C 
ATOM      8  C   UNL     1       6.016   3.832  -7.651  0.00  0.00    +0.009 C 
ATOM      9  C   UNL     1       5.790   3.714  -9.160  0.00  0.00    -0.010 C 
ATOM     10  C   UNL     1       4.985   4.919  -9.650  0.00  0.00    +0.007 C 
ATOM     11  C   UNL     1       3.634   4.955  -8.933  0.00  0.00    -0.010 C 
ATOM     12  C   UNL     1       3.860   5.073  -7.425  0.00  0.00    +0.009 C 
ATOM     13  C   UNL     1       2.862   3.669  -9.235  0.00  0.00    +0.009 C 
ATOM     14  C   UNL     1       3.667   2.464  -8.745  0.00  0.00    +0.010 C 
ATOM     15  C   UNL     1       5.018   2.428  -9.462  0.00  0.00    +0.009 C 
ENDBRANCH   4   6
ENDBRANCH   1   2
BRANCH   1  16
ATOM     16  S   UNL     1       1.377   1.661  -2.862  0.00  0.00    -0.075 S 
BRANCH  16  20
ATOM     17  C   UNL     1      -2.079   1.768  -1.057  0.00  0.00    +0.156 A 
ATOM     18  N   UNL     1      -2.369   2.211  -2.248  0.00  0.00    -0.131 NA
ATOM     19  N   UNL     1      -1.313   2.232  -2.980  0.00  0.00    -0.121 NA
ATOM     20  C   UNL     1      -0.282   1.804  -2.288  0.00  0.00    +0.209 A 
ATOM     21  N   UNL     1      -0.741   1.490  -1.041  0.00  0.00    -0.227 N 
BRANCH  17  23
ATOM     22  C   UNL     1      -2.591   2.461   1.268  0.00  0.00    +0.019 C 
ATOM     23  C   UNL     1      -3.042   1.595   0.090  0.00  0.00    +0.024 C 
ATOM     24  C   UNL     1      -4.443   2.022  -0.351  0.00  0.00    +0.019 C 
ATOM     25  C   UNL     1      -3.067   0.126   0.517  0.00  0.00    +0.019 C 
ENDBRANCH  17  23
BRANCH  21  26
ATOM     26  N   UNL     1      -0.012   1.005   0.008  0.00  0.00    -0.295 N 
ATOM     27  H   UNL     1       1.067   0.823  -0.110  0.00  0.00    +0.163 HD
ATOM     28  H   UNL     1      -0.503   0.796   0.969  0.00  0.00    +0.163 HD
ENDBRANCH  21  26
ENDBRANCH  16  20
ENDBRANCH   1  16
TORSDOF 6
