REMARK  Name = ZINC29224297
REMARK  8 active torsions:
REMARK  status: ('A' for Active; 'I' for Inactive)
REMARK    1  A    between atoms: C_1  and  C_2
REMARK    2  A    between atoms: C_2  and  C_3
REMARK    3  A    between atoms: C_3  and  C_4
REMARK    4  A    between atoms: C_4  and  C_5
REMARK    5  A    between atoms: C_7  and  C_10
REMARK    6  A    between atoms: C_10  and  N_11
REMARK    7  A    between atoms: C_14  and  C_18
REMARK    8  A    between atoms: C_14  and  C_19
REMARK                            x       y       z     vdW  Elec       q    Type
REMARK                         _______ _______ _______ _____ _____    ______ ____
ROOT
ATOM      1  N   UNL     1       1.356   2.010  -0.000  0.00  0.00    -0.215 N 
ATOM      2  C   UNL     1       2.075   2.271   1.109  0.00  0.00    +0.251 C 
ATOM      3  O   UNL     1       1.720   2.136   2.261  0.00  0.00    -0.272 OA
ATOM      4  C   UNL     1       3.421   2.767   0.618  0.00  0.00    +0.136 C 
ATOM      5  N   UNL     1       3.289   2.732  -0.848  0.00  0.00    -0.281 N 
ATOM      6  C   UNL     1       2.050   2.276  -1.112  0.00  0.00    +0.310 C 
ATOM      7  O   UNL     1       1.612   2.124  -2.235  0.00  0.00    -0.252 OA
ATOM      8  C   UNL     1       4.544   1.836   1.081  0.00  0.00    +0.047 C 
ATOM      9  H   UNL     1       4.129   3.048  -1.484  0.00  0.00    +0.152 HD
ENDROOT
BRANCH   4  10
ATOM     10  C   UNL     1       3.671   4.175   1.094  0.00  0.00    +0.003 A 
ATOM     11  C   UNL     1       3.776   5.205   0.179  0.00  0.00    +0.009 A 
ATOM     12  C   UNL     1       4.006   6.497   0.614  0.00  0.00    +0.020 A 
ATOM     13  C   UNL     1       4.132   6.759   1.967  0.00  0.00    +0.042 A 
ATOM     14  C   UNL     1       4.027   5.728   2.884  0.00  0.00    +0.040 A 
ATOM     15  C   UNL     1       3.791   4.437   2.447  0.00  0.00    +0.048 A 
ATOM     16 CL   UNL     1       3.651   3.144   3.597  0.00  0.00    -0.083 Cl
ATOM     17 CL   UNL     1       4.421   8.381   2.514  0.00  0.00    -0.083 Cl
ENDBRANCH   4  10
BRANCH   1  18
ATOM     18  C   UNL     1      -0.018   1.503   0.010  0.00  0.00    +0.216 C 
BRANCH  18  21
ATOM     19  C   UNL     1       0.036  -2.044   0.564  0.00  0.00    +0.172 A 
ATOM     20  N   UNL     1       0.028  -0.790   1.051  0.00  0.00    -0.195 NA
ATOM     21  C   UNL     1       0.002  -0.004   0.002  0.00  0.00    +0.245 A 
ATOM     22  O   UNL     1       0.003  -0.794  -1.076  0.00  0.00    -0.336 OA
ATOM     23  N   UNL     1       0.023  -1.957  -0.733  0.00  0.00    -0.061 NA
BRANCH  19  24
ATOM     24  C   UNL     1       0.062  -3.315   1.372  0.00  0.00    +0.080 C 
BRANCH  24  25
ATOM     25  C   UNL     1       1.513  -3.725   1.632  0.00  0.00    +0.008 C 
BRANCH  25  27
ATOM     26  C   UNL     1       2.990  -5.426   2.713  0.00  0.00    +0.004 C 
ATOM     27  C   UNL     1       1.539  -5.016   2.453  0.00  0.00    -0.003 C 
ENDBRANCH  25  27
ENDBRANCH  24  25
ENDBRANCH  19  24
ENDBRANCH  18  21
ENDBRANCH   1  18
TORSDOF 6
