REMARK  Name = ZINC39683466
REMARK  11 active torsions:
REMARK  status: ('A' for Active; 'I' for Inactive)
REMARK    1  A    between atoms: C_1  and  C_2
REMARK    2  A    between atoms: C_2  and  C_3
REMARK    3  A    between atoms: C_3  and  C_4
REMARK    4  A    between atoms: C_4  and  N_5
REMARK    5  A    between atoms: C_8  and  C_11
REMARK    6  A    between atoms: C_11  and  N_12
REMARK    7  A    between atoms: C_13  and  C_15
REMARK    8  A    between atoms: C_26  and  C_28
REMARK    9  A    between atoms: C_28  and  C_30
REMARK   10  A    between atoms: C_28  and  C_31
REMARK   11  A    between atoms: C_31  and  C_32
REMARK                            x       y       z     vdW  Elec       q    Type
REMARK                         _______ _______ _______ _____ _____    ______ ____
ROOT
ATOM      1  C   UNL     1       5.344  -6.984   7.019  0.00  0.00    +0.100 C 
ATOM      2  C   UNL     1       5.644  -8.063   5.955  0.00  0.00    +0.121 C 
ATOM      3  N   UNL     1       7.084  -8.369   6.128  0.00  0.00    -0.300 N 
ATOM      4  C   UNL     1       7.291  -8.352   7.596  0.00  0.00    +0.115 C 
ATOM      5  C   UNL     1       6.424  -7.180   8.096  0.00  0.00    -0.004 C 
ATOM      6  C   UNL     1       5.780  -7.532   9.433  0.00  0.00    -0.010 C 
ATOM      7  C   UNL     1       6.870  -7.664  10.501  0.00  0.00    -0.082 C 
ATOM      8  N   UNL     1       7.608  -6.399  10.608  0.00  0.00    +0.379 N 
ATOM      9  C   UNL     1       8.301  -6.115   9.346  0.00  0.00    -0.082 C 
ATOM     10  C   UNL     1       7.271  -5.918   8.229  0.00  0.00    -0.010 C 
ATOM     11  C   UNL     1       7.999  -8.608   5.167  0.00  0.00    +0.218 C 
ATOM     12  O   UNL     1       7.691  -8.508   3.998  0.00  0.00    -0.275 OA
ATOM     13  H   UNL     1       6.962  -5.651  10.812  0.00  0.00    -0.086 HD
ATOM     14  H   UNL     1       8.284  -6.469  11.354  0.00  0.00    -0.086 HD
ENDROOT
BRANCH   1  16
ATOM     15  N   UNL     1       4.696  -4.600   6.899  0.00  0.00    -0.315 N 
ATOM     16  C   UNL     1       5.448  -5.608   6.415  0.00  0.00    +0.218 C 
ATOM     17  O   UNL     1       6.210  -5.407   5.492  0.00  0.00    -0.275 OA
ATOM     18  H   UNL     1       4.087  -4.761   7.637  0.00  0.00    +0.149 HD
BRANCH  15  19
ATOM     19  C   UNL     1       4.797  -3.262   6.311  0.00  0.00    +0.107 C 
BRANCH  19  23
ATOM     20  N   UNL     1       3.467   0.162   8.499  0.00  0.00    +0.380 N 
ATOM     21  C   UNL     1       2.964   0.023   7.127  0.00  0.00    -0.079 C 
ATOM     22  C   UNL     1       3.857  -0.945   6.348  0.00  0.00    -0.014 C 
ATOM     23  C   UNL     1       3.845  -2.312   7.040  0.00  0.00    +0.003 C 
ATOM     24  C   UNL     1       4.301  -2.142   8.492  0.00  0.00    -0.014 C 
ATOM     25  C   UNL     1       3.392  -1.130   9.191  0.00  0.00    -0.079 C 
ATOM     26  H   UNL     1       4.427   0.473   8.473  0.00  0.00    -0.082 HD
BRANCH  20  27
ATOM     27  C   UNL     1       2.654   1.151   9.220  0.00  0.00    -0.079 C 
BRANCH  27  28
ATOM     28  C   UNL     1       2.831   2.526   8.572  0.00  0.00    -0.019 C 
BRANCH  28  30
ATOM     29  C   UNL     1       2.160   4.930   8.675  0.00  0.00    +0.004 C 
ATOM     30  C   UNL     1       1.984   3.555   9.323  0.00  0.00    -0.005 C 
ENDBRANCH  28  30
ENDBRANCH  27  28
ENDBRANCH  20  27
ENDBRANCH  19  23
ENDBRANCH  15  19
ENDBRANCH   1  16
BRANCH  11  31
ATOM     31  C   UNL     1       9.405  -8.998   5.546  0.00  0.00    +0.072 C 
ATOM     32  C   UNL     1       9.482 -10.517   5.720  0.00  0.00    +0.017 C 
BRANCH  31  33
ATOM     33  C   UNL     1      10.370  -8.562   4.442  0.00  0.00    +0.009 C 
ATOM     34  C   UNL     1      11.808  -8.846   4.880  0.00  0.00    +0.004 C 
ENDBRANCH  31  33
ENDBRANCH  11  31
TORSDOF 8
