REMARK  Name = ZINC60352300
REMARK  7 active torsions:
REMARK  status: ('A' for Active; 'I' for Inactive)
REMARK    1  A    between atoms: C_1  and  C_2
REMARK    2  A    between atoms: C_5  and  N_8
REMARK    3  A    between atoms: N_8  and  C_9
REMARK    4  A    between atoms: C_10  and  C_12
REMARK    5  A    between atoms: C_14  and  C_22
REMARK    6  A    between atoms: C_18  and  C_21
REMARK    7  A    between atoms: C_25  and  C_27
REMARK                            x       y       z     vdW  Elec       q    Type
REMARK                         _______ _______ _______ _____ _____    ______ ____
ROOT
ATOM      1  C   UNL     1       0.083  -6.227   0.907  0.00  0.00    +0.053 A 
ATOM      2  C   UNL     1      -0.076  -6.870  -0.316  0.00  0.00    +0.043 A 
ATOM      3  C   UNL     1      -0.018  -8.268  -0.363  0.00  0.00    +0.082 A 
ATOM      4  N   UNL     1       0.184  -8.988   0.733  0.00  0.00    -0.209 NA
ATOM      5  C   UNL     1       0.341  -8.425   1.920  0.00  0.00    +0.260 A 
ATOM      6  C   UNL     1       0.302  -7.025   2.050  0.00  0.00    +0.076 A 
ATOM      7  C   UNL     1       0.513  -6.730   3.465  0.00  0.00    +0.091 A 
ATOM      8  N   UNL     1       0.664  -7.864   4.080  0.00  0.00    -0.080 NA
ATOM      9  O   UNL     1       0.554  -8.926   3.154  0.00  0.00    -0.334 OA
ATOM     10  C   UNL     1       0.550  -5.361   4.096  0.00  0.00    +0.070 C 
ENDROOT
BRANCH   3  11
ATOM     11  C   UNL     1      -0.185  -8.955  -1.657  0.00  0.00    +0.038 A 
ATOM     12  C   UNL     1      -0.171 -10.299  -1.931  0.00  0.00    +0.018 A 
ATOM     13  C   UNL     1      -0.351 -10.711  -3.231  0.00  0.00    +0.011 A 
ATOM     14  C   UNL     1      -0.537  -9.779  -4.202  0.00  0.00    -0.013 A 
ATOM     15  S   UNL     1      -0.468  -8.255  -3.275  0.00  0.00    -0.092 S 
ATOM     16  C   UNL     1      -0.753  -9.980  -5.679  0.00  0.00    +0.051 C 
ENDBRANCH   3  11
BRANCH   1  19
ATOM     17  N   UNL     1      -1.049  -4.085   0.549  0.00  0.00    -0.270 N 
ATOM     18  C   UNL     1      -2.214  -4.824   0.057  0.00  0.00    +0.138 C 
ATOM     19  C   UNL     1       0.030  -4.752   1.005  0.00  0.00    +0.251 C 
ATOM     20  O   UNL     1       0.959  -4.141   1.497  0.00  0.00    -0.270 OA
BRANCH  17  25
ATOM     21  C   UNL     1      -1.082   1.587   0.542  0.00  0.00    +0.044 C 
ATOM     22  C   UNL     1      -1.073   0.081   0.544  0.00  0.00    -0.050 A 
ATOM     23  C   UNL     1      -2.102  -0.616  -0.063  0.00  0.00    +0.005 A 
ATOM     24  C   UNL     1      -2.097  -1.997  -0.063  0.00  0.00    +0.024 A 
ATOM     25  C   UNL     1      -1.057  -2.686   0.547  0.00  0.00    +0.036 A 
ATOM     26  C   UNL     1      -0.025  -1.984   1.155  0.00  0.00    +0.024 A 
ATOM     27  C   UNL     1      -0.033  -0.603   1.147  0.00  0.00    +0.005 A 
ENDBRANCH  17  25
ENDBRANCH   1  19
TORSDOF 3
