REMARK  Name = ZINC67033914
REMARK  4 active torsions:
REMARK  status: ('A' for Active; 'I' for Inactive)
REMARK    1  A    between atoms: C_1  and  C_2
REMARK    2  A    between atoms: C_5  and  C_8
REMARK    3  A    between atoms: C_8  and  N_9
REMARK    4  A    between atoms: C_16  and  C_18
REMARK                            x       y       z     vdW  Elec       q    Type
REMARK                         _______ _______ _______ _____ _____    ______ ____
ROOT
ATOM      1  N   UNL     1       1.447  -4.746  -0.032  0.00  0.00    -0.295 N 
ATOM      2  C   UNL     1       1.710  -6.067  -0.040  0.00  0.00    +0.303 C 
ATOM      3  O   UNL     1       0.796  -6.870  -0.040  0.00  0.00    -0.253 OA
ATOM      4  N   UNL     1       2.986  -6.500  -0.050  0.00  0.00    -0.278 N 
ATOM      5  C   UNL     1       4.185  -5.642  -0.045  0.00  0.00    +0.110 C 
ATOM      6  C   UNL     1       5.301  -6.516  -0.670  0.00  0.00    +0.021 C 
ATOM      7  C   UNL     1       4.957  -7.916  -0.098  0.00  0.00    +0.029 C 
ATOM      8  C   UNL     1       3.414  -7.907  -0.060  0.00  0.00    +0.111 C 
ATOM      9  H   UNL     1       2.176  -4.106  -0.032  0.00  0.00    +0.151 HD
ENDROOT
BRANCH   8  10
ATOM     10  C   UNL     1       2.926  -8.600   1.186  0.00  0.00    +0.018 A 
ATOM     11  C   UNL     1       2.534  -7.855   2.282  0.00  0.00    +0.009 A 
ATOM     12  C   UNL     1       2.085  -8.487   3.426  0.00  0.00    +0.004 A 
ATOM     13  C   UNL     1       2.029  -9.868   3.479  0.00  0.00    +0.049 A 
ATOM     14  C   UNL     1       2.421 -10.621   2.383  0.00  0.00    +0.162 A 
ATOM     15  C   UNL     1       2.864  -9.985   1.229  0.00  0.00    +0.167 A 
ATOM     16  O   UNL     1       3.242 -10.705   0.138  0.00  0.00    -0.485 OA
ATOM     17  C   UNL     1       3.521 -12.093   0.348  0.00  0.00    +0.270 C 
ATOM     18  C   UNL     1       2.392 -12.686   1.202  0.00  0.00    +0.270 C 
ATOM     19  O   UNL     1       2.363 -11.979   2.451  0.00  0.00    -0.485 OA
ENDBRANCH   8  10
BRANCH   1  20
ATOM     20  C   UNL     1       0.059  -4.275  -0.021  0.00  0.00    +0.141 C 
BRANCH  20  25
ATOM     21  C   UNL     1      -0.018   1.503   0.010  0.00  0.00    +0.044 C 
ATOM     22  C   UNL     1       0.002  -0.004   0.002  0.00  0.00    -0.050 A 
ATOM     23  C   UNL     1       0.006  -0.689  -1.199  0.00  0.00    +0.003 A 
ATOM     24  C   UNL     1       0.025  -2.071  -1.206  0.00  0.00    +0.005 A 
ATOM     25  C   UNL     1       0.040  -2.768  -0.013  0.00  0.00    -0.030 A 
ATOM     26  C   UNL     1       0.037  -2.084   1.188  0.00  0.00    +0.005 A 
ATOM     27  C   UNL     1       0.023  -0.702   1.195  0.00  0.00    +0.003 A 
ENDBRANCH  20  25
ENDBRANCH   1  20
TORSDOF 3
