REMARK  Name = ZINC17211232
REMARK  11 active torsions:
REMARK  status: ('A' for Active; 'I' for Inactive)
REMARK    1  A    between atoms: C_1  and  O_2
REMARK    2  A    between atoms: O_2  and  C_3
REMARK    3  A    between atoms: C_3  and  C_5
REMARK    4  A    between atoms: C_5  and  C_7
REMARK    5  A    between atoms: C_5  and  C_20
REMARK    6  A    between atoms: C_7  and  C_8
REMARK    7  A    between atoms: C_20  and  C_22
REMARK    8  A    between atoms: C_20  and  N_36
REMARK    9  A    between atoms: N_24  and  C_25
REMARK   10  A    between atoms: C_28  and  N_32
REMARK   11  A    between atoms: N_36  and  O_37
REMARK                            x       y       z     vdW  Elec       q    Type
REMARK                         _______ _______ _______ _____ _____    ______ ____
ROOT
ATOM      1  C   UNL     1      -5.047   2.749   0.784  0.00  0.00    +0.181 C 
ENDROOT
BRANCH   1   2
ATOM      2  C   UNL     1      -5.134   2.040   2.111  0.00  0.00    +0.237 C 
ATOM      3  O   UNL     1      -6.216   1.719   2.557  0.00  0.00    -0.274 OA
ATOM      4  N   UNL     1      -4.011   1.763   2.803  0.00  0.00    -0.282 N 
ATOM      5  H   UNL     1      -3.034   2.091   2.418  0.00  0.00    +0.155 HD
BRANCH   4   6
ATOM      6  C   UNL     1      -4.088   1.058   4.010  0.00  0.00    +0.071 A 
ATOM      7  C   UNL     1      -4.694  -0.191   4.050  0.00  0.00    +0.066 A 
ATOM      8  C   UNL     1      -4.772  -0.882   5.245  0.00  0.00    +0.054 A 
ATOM      9  C   UNL     1      -4.239  -0.335   6.397  0.00  0.00    +0.129 A 
ATOM     10  C   UNL     1      -3.631   0.906   6.361  0.00  0.00    +0.054 A 
ATOM     11  C   UNL     1      -3.554   1.605   5.171  0.00  0.00    +0.066 A 
ATOM     12 CL   UNL     1      -2.791   3.164   5.126  0.00  0.00    -0.082 Cl
ATOM     13 CL   UNL     1      -5.357  -0.882   2.602  0.00  0.00    -0.082 Cl
BRANCH   9  14
ATOM     14  N   UNL     1      -4.319  -1.081   7.674  0.00  0.00    +0.057 N 
ATOM     15  O   UNL     1      -4.855  -2.174   7.708  0.00  0.00    -0.126 OA
ATOM     16  O   UNL     1      -3.851  -0.600   8.690  0.00  0.00    -0.126 OA
ENDBRANCH   9  14
ENDBRANCH   4   6
ENDBRANCH   1   2
BRANCH   1  17
ATOM     17  N   UNL     1      -5.972   2.120  -0.168  0.00  0.00    -0.191 NA
ATOM     18  H   UNL     1      -5.886   2.536  -1.084  0.00  0.00    +0.154 HD
BRANCH  17  19
ATOM     19  O   UNL     1      -7.351   2.194   0.313  0.00  0.00    -0.314 OA
ATOM     20  H   UNL     1      -8.167   1.766  -0.288  0.00  0.00    +0.236 HD
ENDBRANCH  17  19
ENDBRANCH   1  17
BRANCH   1  21
ATOM     21  C   UNL     1      -5.425   4.220   0.966  0.00  0.00    +0.132 C 
BRANCH  21  22
ATOM     22  C   UNL     1      -4.374   4.910   1.798  0.00  0.00    +0.312 C 
ATOM     23  O   UNL     1      -3.333   5.255   1.290  0.00  0.00    -0.250 OA
BRANCH  22  25
ATOM     24  C   UNL     1      -3.538   5.809   3.840  0.00  0.00    +0.280 C 
ATOM     25  O   UNL     1      -4.595   5.141   3.102  0.00  0.00    -0.468 OA
ENDBRANCH  22  25
ENDBRANCH  21  22
BRANCH  21  26
ATOM     26  C   UNL     1      -5.517   4.896  -0.403  0.00  0.00    +0.077 C 
BRANCH  26  27
ATOM     27  C   UNL     1      -6.008   6.311  -0.233  0.00  0.00    +0.107 A 
ATOM     28  C   UNL     1      -6.175   7.173  -1.408  0.00  0.00    +0.271 A 
ATOM     29  O   UNL     1      -5.919   6.753  -2.522  0.00  0.00    -0.266 OA
ATOM     30  N   UNL     1      -6.620   8.438  -1.240  0.00  0.00    -0.319 N 
ATOM     31  H   UNL     1      -6.756   9.093  -2.113  0.00  0.00    +0.169 HD
ATOM     32  C   UNL     1      -6.896   8.885   0.036  0.00  0.00    +0.068 A 
ATOM     33  C   UNL     1      -7.351  10.184   0.243  0.00  0.00    +0.028 A 
ATOM     34  C   UNL     1      -7.622  10.619   1.521  0.00  0.00    +0.002 A 
ATOM     35  C   UNL     1      -7.446   9.772   2.607  0.00  0.00    +0.002 A 
ATOM     36  C   UNL     1      -7.002   8.495   2.429  0.00  0.00    +0.030 A 
ATOM     37  C   UNL     1      -6.717   8.026   1.137  0.00  0.00    +0.088 A 
ATOM     38  N   UNL     1      -6.277   6.766   0.957  0.00  0.00    -0.245 NA
ENDBRANCH  26  27
ENDBRANCH  21  26
ENDBRANCH   1  21
TORSDOF 10
