REMARK  Name = ZINC10516952
REMARK  8 active torsions:
REMARK  status: ('A' for Active; 'I' for Inactive)
REMARK    1  A    between atoms: C_1  and  C_2
REMARK    2  A    between atoms: C_2  and  C_3
REMARK    3  A    between atoms: C_2  and  N_4
REMARK    4  A    between atoms: N_4  and  C_5
REMARK    5  A    between atoms: N_4  and  S_17
REMARK    6  A    between atoms: C_5  and  C_6
REMARK    7  A    between atoms: C_9  and  C_11
REMARK    8  A    between atoms: S_17  and  C_20
REMARK                            x       y       z     vdW  Elec       q    Type
REMARK                         _______ _______ _______ _____ _____    ______ ____
ROOT
ATOM      1  N   UNL     1      -0.095   6.102  -1.549  0.00  0.00    -0.165 NA
ENDROOT
BRANCH   1   3
ATOM      2  C   UNL     1      -1.478   7.759  -2.700  0.00  0.00    +0.025 C 
ATOM      3  C   UNL     1      -1.373   6.305  -2.236  0.00  0.00    +0.074 C 
ATOM      4  C   UNL     1      -1.452   5.376  -3.450  0.00  0.00    +0.025 C 
ENDBRANCH   1   3
BRANCH   1   5
ATOM      5  S   UNL     1      -0.074   5.605   0.030  0.00  0.00    +0.062 S 
ATOM      6  O   UNL     1      -1.320   5.992   0.594  0.00  0.00    -0.153 OA
ATOM      7  O   UNL     1       1.171   6.026   0.572  0.00  0.00    -0.153 OA
BRANCH   5   8
ATOM      8  C   UNL     1      -0.050   3.843   0.022  0.00  0.00    +0.111 A 
ATOM      9  C   UNL     1       1.156   3.169   0.008  0.00  0.00    +0.067 A 
ATOM     10  C   UNL     1       1.176   1.785   0.000  0.00  0.00    +0.128 A 
ATOM     11  C   UNL     1      -0.013   1.076   0.008  0.00  0.00    +0.076 A 
ATOM     12  C   UNL     1      -1.220   1.752   0.017  0.00  0.00    +0.128 A 
ATOM     13  C   UNL     1      -1.238   3.137   0.029  0.00  0.00    +0.067 A 
ATOM     14  F   UNL     1      -2.381   1.062   0.019  0.00  0.00    -0.205 F 
ATOM     15  F   UNL     1       2.356   1.126  -0.014  0.00  0.00    -0.205 F 
ENDBRANCH   5   8
ENDBRANCH   1   5
BRANCH   1  16
ATOM     16  C   UNL     1       1.164   6.339  -2.260  0.00  0.00    +0.207 C 
BRANCH  16  17
ATOM     17  C   UNL     1       1.547   5.102  -3.030  0.00  0.00    +0.233 A 
ATOM     18  N   UNL     1       1.206   4.823  -4.257  0.00  0.00    -0.111 NA
ATOM     19  N   UNL     1       1.708   3.687  -4.595  0.00  0.00    -0.107 NA
ATOM     20  C   UNL     1       2.391   3.199  -3.586  0.00  0.00    +0.248 A 
ATOM     21  O   UNL     1       2.306   4.089  -2.578  0.00  0.00    -0.419 OA
BRANCH  20  22
ATOM     22  C   UNL     1       3.122   1.914  -3.563  0.00  0.00    +0.038 A 
ATOM     23  C   UNL     1       3.814   1.522  -2.416  0.00  0.00    +0.013 A 
ATOM     24  C   UNL     1       4.490   0.320  -2.398  0.00  0.00    +0.001 A 
ATOM     25  C   UNL     1       4.492  -0.492  -3.519  0.00  0.00    +0.000 A 
ATOM     26  C   UNL     1       3.813  -0.107  -4.661  0.00  0.00    +0.001 A 
ATOM     27  C   UNL     1       3.128   1.090  -4.689  0.00  0.00    +0.013 A 
ENDBRANCH  20  22
ENDBRANCH  16  17
ENDBRANCH   1  16
TORSDOF 6
