REMARK  Name = ZINC18482268
REMARK  10 active torsions:
REMARK  status: ('A' for Active; 'I' for Inactive)
REMARK    1  A    between atoms: C_1  and  C_2
REMARK    2  A    between atoms: C_2  and  N_3
REMARK    3  A    between atoms: N_3  and  C_4
REMARK    4  A    between atoms: C_4  and  C_5
REMARK    5  A    between atoms: N_7  and  C_8
REMARK    6  A    between atoms: C_16  and  C_18
REMARK    7  A    between atoms: C_18  and  S_19
REMARK    8  A    between atoms: S_19  and  C_20
REMARK    9  A    between atoms: C_23  and  C_28
REMARK   10  A    between atoms: N_24  and  C_25
REMARK                            x       y       z     vdW  Elec       q    Type
REMARK                         _______ _______ _______ _____ _____    ______ ____
ROOT
ATOM      1  N   UNL     1       1.451  -9.421   0.257  0.00  0.00    -0.292 N 
ATOM      2  C   UNL     1       2.228  -8.326   0.140  0.00  0.00    +0.226 C 
ATOM      3  O   UNL     1       3.431  -8.444   0.049  0.00  0.00    -0.275 OA
ENDROOT
BRANCH   1   5
ATOM      4  C   UNL     1      -0.625  -9.300  -1.031  0.00  0.00    +0.024 C 
ATOM      5  C   UNL     1      -0.003  -9.280   0.367  0.00  0.00    +0.105 C 
ENDBRANCH   1   5
BRANCH   1   6
ATOM      6  C   UNL     1       2.060 -10.754   0.272  0.00  0.00    +0.203 C 
BRANCH   6   7
ATOM      7  C   UNL     1       2.383 -11.141   1.692  0.00  0.00    +0.231 C 
ATOM      8  O   UNL     1       2.129 -10.380   2.602  0.00  0.00    -0.274 OA
ATOM      9  N   UNL     1       2.954 -12.334   1.952  0.00  0.00    -0.310 N 
ATOM     10  H   UNL     1       3.157 -12.944   1.225  0.00  0.00    +0.149 HD
BRANCH   9  11
ATOM     11  C   UNL     1       3.268 -12.711   3.332  0.00  0.00    +0.095 C 
ATOM     12  C   UNL     1       4.654 -12.168   3.716  0.00  0.00    +0.046 C 
ATOM     13  C   UNL     1       5.130 -12.820   5.037  0.00  0.00    +0.168 C 
ATOM     14  S   UNL     1       4.279 -14.451   5.011  0.00  0.00    -0.029 S 
ATOM     15  O   UNL     1       3.384 -14.523   6.112  0.00  0.00    -0.174 OA
ATOM     16  O   UNL     1       5.246 -15.475   4.827  0.00  0.00    -0.174 OA
ATOM     17  C   UNL     1       3.304 -14.261   3.459  0.00  0.00    +0.188 C 
ENDBRANCH   9  11
ENDBRANCH   6   7
ENDBRANCH   1   6
BRANCH   2  18
ATOM     18  C   UNL     1       1.601  -6.956   0.124  0.00  0.00    +0.173 C 
BRANCH  18  19
ATOM     19  S   UNL     1       2.896  -5.702  -0.042  0.00  0.00    -0.077 S 
BRANCH  19  20
ATOM     20  C   UNL     1       1.911  -4.242  -0.034  0.00  0.00    +0.193 A 
ATOM     21  N   UNL     1       0.602  -4.185   0.069  0.00  0.00    -0.122 NA
ATOM     22  N   UNL     1       0.210  -2.961   0.046  0.00  0.00    -0.128 NA
ATOM     23  C   UNL     1       1.243  -2.162  -0.082  0.00  0.00    +0.168 A 
ATOM     24  N   UNL     1       2.365  -2.957  -0.133  0.00  0.00    -0.299 N 
BRANCH  23  25
ATOM     25  C   UNL     1       1.209  -0.686  -0.151  0.00  0.00    +0.054 A 
ATOM     26  C   UNL     1       2.084   0.073   0.628  0.00  0.00    +0.014 A 
ATOM     27  C   UNL     1       2.046   1.450   0.560  0.00  0.00    +0.001 A 
ATOM     28  C   UNL     1       1.145   2.081  -0.280  0.00  0.00    +0.003 A 
ATOM     29  C   UNL     1       0.275   1.337  -1.056  0.00  0.00    +0.039 A 
ATOM     30  C   UNL     1       0.301  -0.043  -0.997  0.00  0.00    +0.134 A 
ATOM     31  F   UNL     1      -0.549  -0.770  -1.756  0.00  0.00    -0.205 F 
ENDBRANCH  23  25
BRANCH  24  32
ATOM     32  C   UNL     1       3.756  -2.518  -0.267  0.00  0.00    +0.091 C 
ATOM     33  C   UNL     1       4.789  -3.563  -0.693  0.00  0.00    +0.027 C 
ATOM     34  C   UNL     1       4.767  -3.053   0.750  0.00  0.00    +0.027 C 
ENDBRANCH  24  32
ENDBRANCH  19  20
ENDBRANCH  18  19
ENDBRANCH   2  18
TORSDOF 9
