REMARK  Name = ZINC12155048
REMARK  13 active torsions:
REMARK  status: ('A' for Active; 'I' for Inactive)
REMARK    1  A    between atoms: C_1  and  C_2
REMARK    2  A    between atoms: C_7  and  C_8
REMARK    3  A    between atoms: N_10  and  C_11
REMARK    4  A    between atoms: C_15  and  C_24
REMARK    5  A    between atoms: C_19  and  C_20
REMARK    6  A    between atoms: C_20  and  O_22
REMARK    7  A    between atoms: O_22  and  C_23
REMARK    8  A    between atoms: C_24  and  N_61
REMARK    9  A    between atoms: C_25  and  N_61
REMARK   10  A    between atoms: C_26  and  C_27
REMARK   11  A    between atoms: C_26  and  N_61
REMARK   12  A    between atoms: C_28  and  C_34
REMARK   13  A    between atoms: C_32  and  C_33
REMARK                            x       y       z     vdW  Elec       q    Type
REMARK                         _______ _______ _______ _____ _____    ______ ____
ROOT
ATOM      1  C   UNL     1       2.356   1.172  -1.004  0.00  0.00    +0.064 A 
ATOM      2  C   UNL     1       1.136   1.526  -1.712  0.00  0.00    +0.030 A 
ATOM      3  C   UNL     1       0.149   0.667  -2.258  0.00  0.00    +0.014 A 
ATOM      4  C   UNL     1      -0.934   1.220  -2.898  0.00  0.00    +0.022 A 
ATOM      5  C   UNL     1      -1.062   2.597  -2.999  0.00  0.00    +0.026 A 
ATOM      6  N   UNL     1      -0.142   3.393  -2.490  0.00  0.00    -0.246 NA
ATOM      7  C   UNL     1       0.915   2.912  -1.871  0.00  0.00    +0.111 A 
ATOM      8  S   UNL     1       2.319   3.663  -1.084  0.00  0.00    -0.060 S 
ATOM      9  C   UNL     1       3.173   2.189  -0.559  0.00  0.00    +0.120 A 
ENDROOT
BRANCH   1  12
ATOM     10  C   UNL     1       1.744  -1.033  -0.384  0.00  0.00    +0.249 C 
ATOM     11  O   UNL     1       0.583  -0.682  -0.312  0.00  0.00    -0.270 OA
ATOM     12  N   UNL     1       2.690  -0.159  -0.780  0.00  0.00    -0.280 N 
ATOM     13  H   UNL     1       3.604  -0.458  -0.909  0.00  0.00    +0.155 HD
BRANCH  10  20
ATOM     14  C   UNL     1      -0.239  -2.811   0.746  0.00  0.00    +0.044 C 
ATOM     15  C   UNL     1       1.171  -3.287   0.509  0.00  0.00    -0.038 A 
ATOM     16  C   UNL     1       1.528  -4.581   0.831  0.00  0.00    +0.004 A 
ATOM     17  C   UNL     1       2.821  -5.019   0.613  0.00  0.00    +0.000 A 
ATOM     18  C   UNL     1       3.766  -4.165   0.072  0.00  0.00    +0.001 A 
ATOM     19  C   UNL     1       3.422  -2.871  -0.258  0.00  0.00    +0.013 A 
ATOM     20  C   UNL     1       2.119  -2.420  -0.036  0.00  0.00    +0.040 A 
ENDBRANCH  10  20
ENDBRANCH   1  12
BRANCH   9  21
ATOM     21  C   UNL     1       4.398   2.088   0.146  0.00  0.00    +0.348 C 
ATOM     22  O   UNL     1       4.792   1.002   0.527  0.00  0.00    -0.244 OA
BRANCH  21  23
ATOM     23  O   UNL     1       5.127   3.196   0.395  0.00  0.00    -0.464 OA
ATOM     24  C   UNL     1       6.351   3.020   1.111  0.00  0.00    +0.280 C 
ENDBRANCH  21  23
ENDBRANCH   9  21
BRANCH   5  25
ATOM     25  C   UNL     1      -2.259   3.189  -3.699  0.00  0.00    -0.022 C 
BRANCH  25  27
ATOM     26  C   UNL     1      -3.822   2.305  -2.075  0.00  0.00    -0.095 C 
ATOM     27  N   UNL     1      -3.279   3.536  -2.688  0.00  0.00    +0.384 N 
ATOM     28  H   UNL     1      -2.843   4.108  -1.956  0.00  0.00    -0.081 HD
BRANCH  27  29
ATOM     29  C   UNL     1      -4.370   4.310  -3.316  0.00  0.00    -0.039 C 
BRANCH  29  30
ATOM     30  C   UNL     1      -5.278   4.837  -2.235  0.00  0.00    -0.021 A 
ATOM     31  C   UNL     1      -5.141   6.016  -1.585  0.00  0.00    +0.035 A 
ATOM     32  N   UNL     1      -6.152   6.115  -0.696  0.00  0.00    -0.281 N 
ATOM     33  H   UNL     1      -6.312   6.879  -0.071  0.00  0.00    +0.189 HD
ATOM     34  N   UNL     1      -6.935   4.959  -0.803  0.00  0.00    -0.179 NA
ATOM     35  C   UNL     1      -6.414   4.196  -1.729  0.00  0.00    +0.061 A 
ATOM     36  C   UNL     1      -6.944   2.857  -2.173  0.00  0.00    +0.068 C 
ATOM     37  C   UNL     1      -4.055   7.035  -1.813  0.00  0.00    +0.065 C 
ENDBRANCH  29  30
ENDBRANCH  27  29
ENDBRANCH  25  27
ENDBRANCH   5  25
TORSDOF 8
