REMARK  Name = ZINC39687251
REMARK  8 active torsions:
REMARK  status: ('A' for Active; 'I' for Inactive)
REMARK    1  A    between atoms: C_4  and  C_7
REMARK    2  A    between atoms: C_7  and  C_8
REMARK    3  A    between atoms: C_8  and  C_9
REMARK    4  A    between atoms: C_13  and  C_22
REMARK    5  A    between atoms: N_24  and  C_25
REMARK    6  A    between atoms: C_25  and  C_27
REMARK    7  A    between atoms: C_25  and  C_34
REMARK    8  A    between atoms: C_27  and  C_28
REMARK                            x       y       z     vdW  Elec       q    Type
REMARK                         _______ _______ _______ _____ _____    ______ ____
ROOT
ATOM      1  C   UNL     1       5.002  -1.169   1.603  0.00  0.00    +0.216 C 
ATOM      2  O   UNL     1       5.278  -1.312   0.431  0.00  0.00    -0.276 OA
ATOM      3  N   UNL     1       5.792  -1.708   2.553  0.00  0.00    -0.300 N 
ATOM      4  C   UNL     1       5.617  -1.647   4.023  0.00  0.00    +0.121 C 
ATOM      5  C   UNL     1       6.026  -3.051   4.523  0.00  0.00    +0.100 C 
ATOM      6  C   UNL     1       6.957  -3.601   3.430  0.00  0.00    -0.004 C 
ATOM      7  C   UNL     1       7.031  -2.500   2.362  0.00  0.00    +0.115 C 
ATOM      8  C   UNL     1       6.371  -4.874   2.827  0.00  0.00    -0.010 C 
ATOM      9  C   UNL     1       7.342  -5.433   1.783  0.00  0.00    -0.082 C 
ATOM     10  N   UNL     1       8.634  -5.718   2.418  0.00  0.00    +0.379 N 
ATOM     11  C   UNL     1       9.235  -4.474   2.913  0.00  0.00    -0.082 C 
ATOM     12  C   UNL     1       8.344  -3.874   4.005  0.00  0.00    -0.010 C 
ATOM     13  H   UNL     1       8.496  -6.354   3.189  0.00  0.00    -0.086 HD
ATOM     14  H   UNL     1       9.252  -6.143   1.743  0.00  0.00    -0.086 HD
ENDROOT
BRANCH   5  15
ATOM     15  C   UNL     1       4.811  -3.930   4.671  0.00  0.00    +0.219 C 
ATOM     16  O   UNL     1       4.664  -4.598   5.673  0.00  0.00    -0.275 OA
ATOM     17  N   UNL     1       3.887  -3.974   3.691  0.00  0.00    -0.303 N 
ATOM     18  H   UNL     1       4.004  -3.439   2.890  0.00  0.00    +0.149 HD
BRANCH  17  19
ATOM     19  C   UNL     1       2.706  -4.828   3.835  0.00  0.00    +0.163 C 
BRANCH  19  20
ATOM     20  C   UNL     1       2.177  -5.189   2.471  0.00  0.00    +0.236 C 
ATOM     21  O   UNL     1       2.455  -4.502   1.512  0.00  0.00    -0.274 OA
ATOM     22  N   UNL     1       1.395  -6.276   2.317  0.00  0.00    -0.300 N 
ATOM     23  C   UNL     1       1.133  -7.176   3.449  0.00  0.00    +0.108 C 
ATOM     24  C   UNL     1      -0.382  -7.338   3.608  0.00  0.00    +0.019 C 
ATOM     25  C   UNL     1      -0.983  -7.806   2.281  0.00  0.00    +0.003 C 
ATOM     26  C   UNL     1      -0.721  -6.754   1.201  0.00  0.00    +0.019 C 
ATOM     27  C   UNL     1       0.785  -6.581   1.016  0.00  0.00    +0.108 C 
ENDBRANCH  19  20
BRANCH  19  28
ATOM     28  C   UNL     1       1.626  -4.078   4.618  0.00  0.00    +0.067 C 
BRANCH  28  29
ATOM     29  C   UNL     1       2.098  -3.850   6.031  0.00  0.00    -0.045 A 
ATOM     30  C   UNL     1       1.833  -4.791   7.009  0.00  0.00    +0.004 A 
ATOM     31  C   UNL     1       2.265  -4.582   8.305  0.00  0.00    +0.000 A 
ATOM     32  C   UNL     1       2.963  -3.432   8.624  0.00  0.00    +0.000 A 
ATOM     33  C   UNL     1       3.228  -2.491   7.646  0.00  0.00    +0.000 A 
ATOM     34  C   UNL     1       2.799  -2.702   6.349  0.00  0.00    +0.004 A 
ENDBRANCH  28  29
ENDBRANCH  19  28
ENDBRANCH  17  19
ENDBRANCH   5  15
BRANCH   1  35
ATOM     35  C   UNL     1       3.774  -0.390   1.998  0.00  0.00    +0.100 C 
BRANCH  35  36
ATOM     36  C   UNL     1       3.060   0.109   0.741  0.00  0.00    +0.044 C 
BRANCH  36  40
ATOM     37  C   UNL     1      -0.421   2.318   1.858  0.00  0.00    +0.000 A 
ATOM     38  C   UNL     1       0.791   2.967   1.709  0.00  0.00    +0.000 A 
ATOM     39  C   UNL     1       1.917   2.252   1.347  0.00  0.00    +0.003 A 
ATOM     40  C   UNL     1       1.832   0.888   1.136  0.00  0.00    -0.047 A 
ATOM     41  C   UNL     1       0.620   0.240   1.286  0.00  0.00    +0.003 A 
ATOM     42  C   UNL     1      -0.506   0.955   1.646  0.00  0.00    +0.000 A 
ENDBRANCH  36  40
ENDBRANCH  35  36
ENDBRANCH   1  35
TORSDOF 8
