REMARK  Name = ZINC44785760
REMARK  5 active torsions:
REMARK  status: ('A' for Active; 'I' for Inactive)
REMARK    1  A    between atoms: C_1  and  C_2
REMARK    2  A    between atoms: C_2  and  C_3
REMARK    3  A    between atoms: C_9  and  C_11
REMARK    4  A    between atoms: C_11  and  C_18
REMARK    5  A    between atoms: N_19  and  O_20
REMARK                            x       y       z     vdW  Elec       q    Type
REMARK                         _______ _______ _______ _____ _____    ______ ____
ROOT
ATOM      1  C   UNL     1       0.686  -4.376  -4.537  0.00  0.00    +0.105 C 
ATOM      2  C   UNL     1      -0.049  -5.184  -3.448  0.00  0.00    +0.024 C 
ATOM      3  C   UNL     1      -1.393  -4.550  -3.209  0.00  0.00    +0.001 C 
ATOM      4  C   UNL     1      -2.510  -5.204  -4.045  0.00  0.00    +0.000 C 
ATOM      5  C   UNL     1      -2.072  -5.514  -5.489  0.00  0.00    +0.000 C 
ATOM      6  C   UNL     1      -1.258  -4.403  -6.095  0.00  0.00    +0.001 C 
ATOM      7  C   UNL     1       0.237  -4.716  -5.879  0.00  0.00    +0.024 C 
ENDROOT
BRANCH   1  14
ATOM      8  C   UNL     1       2.492  -0.048  -6.425  0.00  0.00    -0.008 C 
ATOM      9  C   UNL     1       1.704   0.279  -5.154  0.00  0.00    +0.022 C 
ATOM     10  C   UNL     1       0.446  -0.594  -5.100  0.00  0.00    +0.108 C 
ATOM     11  N   UNL     1       0.843  -2.003  -5.218  0.00  0.00    -0.301 N 
ATOM     12  C   UNL     1       1.680  -2.409  -6.356  0.00  0.00    +0.108 C 
ATOM     13  C   UNL     1       2.924  -1.516  -6.396  0.00  0.00    +0.022 C 
ATOM     14  C   UNL     1       0.448  -2.907  -4.300  0.00  0.00    +0.229 C 
ATOM     15  O   UNL     1      -0.100  -2.538  -3.283  0.00  0.00    -0.275 OA
BRANCH   8  17
ATOM     16  C   UNL     1       3.299   2.306  -6.654  0.00  0.00    +0.004 C 
ATOM     17  C   UNL     1       3.732   0.846  -6.500  0.00  0.00    +0.000 C 
ENDBRANCH   8  17
ENDBRANCH   1  14
BRANCH   1  18
ATOM     18  C   UNL     1       2.164  -4.653  -4.432  0.00  0.00    +0.147 C 
ATOM     19  N   UNL     1       2.778  -5.255  -5.396  0.00  0.00    -0.076 NA
ATOM     20  N   UNL     1       2.860  -4.264  -3.309  0.00  0.00    -0.343 N 
ATOM     21  H   UNL     1       2.423  -3.727  -2.630  0.00  0.00    +0.144 HD
ATOM     22  H   UNL     1       3.787  -4.527  -3.198  0.00  0.00    +0.144 HD
BRANCH  19  23
ATOM     23  O   UNL     1       4.167  -5.515  -5.298  0.00  0.00    -0.408 OA
ATOM     24  H   UNL     1       4.537  -5.968  -6.068  0.00  0.00    +0.328 HD
ENDBRANCH  19  23
ENDBRANCH   1  18
TORSDOF 4
