REMARK  Name = ZINC40400260
REMARK  10 active torsions:
REMARK  status: ('A' for Active; 'I' for Inactive)
REMARK    1  A    between atoms: C_1  and  C_2
REMARK    2  A    between atoms: C_5  and  N_8
REMARK    3  A    between atoms: C_10  and  C_32
REMARK    4  A    between atoms: C_14  and  C_16
REMARK    5  A    between atoms: C_16  and  N_17
REMARK    6  A    between atoms: N_17  and  C_18
REMARK    7  A    between atoms: N_17  and  S_22
REMARK    8  A    between atoms: C_18  and  C_19
REMARK    9  A    between atoms: S_22  and  C_25
REMARK   10  A    between atoms: C_28  and  C_31
REMARK                            x       y       z     vdW  Elec       q    Type
REMARK                         _______ _______ _______ _____ _____    ______ ____
ROOT
ATOM      1  N   UNL     1       0.058  -4.172  -0.021  0.00  0.00    -0.287 N 
ATOM      2  C   UNL     1      -0.778  -4.995  -0.737  0.00  0.00    +0.122 A 
ATOM      3  C   UNL     1      -0.412  -6.270  -0.451  0.00  0.00    +0.091 A 
ATOM      4  N   UNL     1       0.621  -6.224   0.417  0.00  0.00    -0.214 NA
ATOM      5  C   UNL     1       0.913  -4.974   0.676  0.00  0.00    +0.207 A 
ATOM      6  N   UNL     1       1.923  -4.537   1.522  0.00  0.00    -0.254 N 
ATOM      7  C   UNL     1       2.705  -5.434   2.157  0.00  0.00    +0.235 C 
ATOM      8  O   UNL     1       2.526  -6.621   1.989  0.00  0.00    -0.274 OA
ATOM      9  H   UNL     1       2.067  -3.588   1.657  0.00  0.00    +0.158 HD
ENDROOT
BRANCH   1  14
ATOM     10  C   UNL     1      -0.018   1.503   0.010  0.00  0.00    +0.044 C 
ATOM     11  C   UNL     1       0.002  -0.004   0.002  0.00  0.00    -0.050 A 
ATOM     12  C   UNL     1       0.006  -0.688  -1.200  0.00  0.00    +0.005 A 
ATOM     13  C   UNL     1       0.024  -2.068  -1.211  0.00  0.00    +0.026 A 
ATOM     14  C   UNL     1       0.040  -2.771  -0.013  0.00  0.00    +0.049 A 
ATOM     15  C   UNL     1       0.036  -2.082   1.192  0.00  0.00    +0.026 A 
ATOM     16  C   UNL     1       0.023  -0.700   1.196  0.00  0.00    +0.005 A 
ENDBRANCH   1  14
BRANCH   3  17
ATOM     17  C   UNL     1      -1.039  -7.499  -0.997  0.00  0.00    +0.002 A 
ATOM     18  C   UNL     1      -2.101  -7.403  -1.894  0.00  0.00    +0.010 A 
ATOM     19  C   UNL     1      -2.680  -8.550  -2.399  0.00  0.00    +0.001 A 
ATOM     20  C   UNL     1      -2.208  -9.793  -2.015  0.00  0.00    +0.000 A 
ATOM     21  C   UNL     1      -1.154  -9.893  -1.124  0.00  0.00    +0.001 A 
ATOM     22  C   UNL     1      -0.563  -8.753  -0.619  0.00  0.00    +0.010 A 
ENDBRANCH   3  17
BRANCH   7  23
ATOM     23  C   UNL     1       3.802  -4.960   3.076  0.00  0.00    +0.205 C 
BRANCH  23  24
ATOM     24  N   UNL     1       4.502  -6.117   3.638  0.00  0.00    -0.168 NA
BRANCH  24  25
ATOM     25  S   UNL     1       4.060  -6.713   5.119  0.00  0.00    +0.061 S 
ATOM     26  O   UNL     1       5.192  -7.400   5.634  0.00  0.00    -0.153 OA
ATOM     27  O   UNL     1       3.434  -5.645   5.816  0.00  0.00    -0.153 OA
BRANCH  25  28
ATOM     28  C   UNL     1       2.816  -7.930   4.841  0.00  0.00    +0.106 A 
ATOM     29  C   UNL     1       1.484  -7.563   4.813  0.00  0.00    +0.029 A 
ATOM     30  C   UNL     1       0.508  -8.517   4.595  0.00  0.00    +0.005 A 
ATOM     31  C   UNL     1       0.865  -9.839   4.404  0.00  0.00    -0.050 A 
ATOM     32  C   UNL     1       2.198 -10.206   4.430  0.00  0.00    +0.005 A 
ATOM     33  C   UNL     1       3.174  -9.251   4.644  0.00  0.00    +0.029 A 
ATOM     34  C   UNL     1      -0.199 -10.880   4.167  0.00  0.00    +0.044 C 
ENDBRANCH  25  28
ENDBRANCH  24  25
BRANCH  24  35
ATOM     35  C   UNL     1       5.593  -6.748   2.891  0.00  0.00    +0.113 C 
BRANCH  35  36
ATOM     36  C   UNL     1       6.900  -6.005   3.173  0.00  0.00    +0.005 C 
ATOM     37  C   UNL     1       7.581  -5.301   1.997  0.00  0.00    +0.005 C 
ATOM     38  C   UNL     1       8.184  -6.583   2.575  0.00  0.00    +0.005 C 
ENDBRANCH  35  36
ENDBRANCH  24  35
ENDBRANCH  23  24
ENDBRANCH   7  23
TORSDOF 8
