REMARK  Name = ZINC16075406
REMARK  6 active torsions:
REMARK  status: ('A' for Active; 'I' for Inactive)
REMARK    1  A    between atoms: C_1  and  C_2
REMARK    2  A    between atoms: N_5  and  C_11
REMARK    3  A    between atoms: C_7  and  C_10
REMARK    4  A    between atoms: C_11  and  N_12
REMARK    5  A    between atoms: N_15  and  C_23
REMARK    6  A    between atoms: C_16  and  C_18
REMARK                            x       y       z     vdW  Elec       q    Type
REMARK                         _______ _______ _______ _____ _____    ______ ____
ROOT
ATOM      1  N   UNL     1      -2.741   2.922  -2.505  0.00  0.00    -0.225 N 
ATOM      2  C   UNL     1      -3.006   1.797  -3.199  0.00  0.00    +0.184 A 
ATOM      3  S   UNL     1      -1.886   0.897  -4.130  0.00  0.00    -0.011 S 
ATOM      4  N   UNL     1      -4.311   1.506  -3.026  0.00  0.00    -0.269 N 
ATOM      5  C   UNL     1      -4.867   2.479  -2.214  0.00  0.00    +0.203 A 
ATOM      6  N   UNL     1      -3.933   3.334  -1.895  0.00  0.00    -0.146 NA
ENDROOT
BRANCH   4   7
ATOM      7  C   UNL     1      -4.988   0.411  -3.579  0.00  0.00    +0.051 A 
ATOM      8  C   UNL     1      -5.505  -0.577  -2.751  0.00  0.00    +0.026 A 
ATOM      9  C   UNL     1      -6.177  -1.652  -3.298  0.00  0.00    +0.002 A 
ATOM     10  C   UNL     1      -6.326  -1.751  -4.669  0.00  0.00    +0.000 A 
ATOM     11  C   UNL     1      -5.807  -0.772  -5.496  0.00  0.00    +0.002 A 
ATOM     12  C   UNL     1      -5.139   0.309  -4.955  0.00  0.00    +0.026 A 
ENDBRANCH   4   7
BRANCH   5  13
ATOM     13  C   UNL     1      -6.274   2.539  -1.783  0.00  0.00    +0.172 A 
ATOM     14  C   UNL     1      -6.896   3.619  -1.234  0.00  0.00    +0.053 A 
ATOM     15  C   UNL     1      -8.226   3.233  -0.978  0.00  0.00    +0.042 A 
ATOM     16  C   UNL     1      -8.351   1.952  -1.379  0.00  0.00    +0.196 A 
ATOM     17  O   UNL     1      -7.171   1.537  -1.869  0.00  0.00    -0.460 OA
ENDBRANCH   5  13
BRANCH   1  18
ATOM     18  C   UNL     1      -1.443   3.595  -2.410  0.00  0.00    +0.233 C 
BRANCH  18  22
ATOM     19  C   UNL     1      -0.731   1.580   1.266  0.00  0.00    +0.039 C 
ATOM     20  C   UNL     1      -0.013   1.086   0.008  0.00  0.00    +0.130 C 
ATOM     21  C   UNL     1      -0.748   1.594  -1.235  0.00  0.00    +0.117 C 
ATOM     22  N   UNL     1      -0.698   3.063  -1.261  0.00  0.00    -0.279 NA
ATOM     23  C   UNL     1       0.694   3.537  -1.270  0.00  0.00    +0.117 C 
ATOM     24  C   UNL     1       1.415   3.009  -0.027  0.00  0.00    +0.130 C 
ATOM     25  O   UNL     1       1.329   1.582  -0.002  0.00  0.00    -0.371 OA
ATOM     26  C   UNL     1       2.885   3.432  -0.070  0.00  0.00    +0.039 C 
ENDBRANCH  18  22
ENDBRANCH   1  18
TORSDOF 4
