REMARK  Name = ZINC50829108
REMARK  4 active torsions:
REMARK  status: ('A' for Active; 'I' for Inactive)
REMARK    1  A    between atoms: C_1  and  C_2
REMARK    2  A    between atoms: C_2  and  N_3
REMARK    3  A    between atoms: C_7  and  C_10
REMARK    4  A    between atoms: C_10  and  N_11
REMARK                            x       y       z     vdW  Elec       q    Type
REMARK                         _______ _______ _______ _____ _____    ______ ____
ROOT
ATOM      1  N   UNL     1       0.176  -6.455  -2.993  0.00  0.00    -0.220 N 
ATOM      2  C   UNL     1      -0.952  -6.965  -2.455  0.00  0.00    +0.247 C 
ATOM      3  O   UNL     1      -1.208  -7.104  -1.278  0.00  0.00    -0.273 OA
ATOM      4  C   UNL     1      -1.826  -7.325  -3.630  0.00  0.00    +0.113 C 
ATOM      5  C   UNL     1      -2.150  -8.825  -3.636  0.00  0.00    +0.035 C 
ATOM      6  C   UNL     1      -3.566  -8.905  -3.008  0.00  0.00    +0.003 C 
ATOM      7  C   UNL     1      -4.265  -7.642  -3.572  0.00  0.00    +0.003 C 
ATOM      8  C   UNL     1      -3.155  -6.568  -3.586  0.00  0.00    +0.035 C 
ATOM      9  N   UNL     1      -1.035  -6.949  -4.803  0.00  0.00    -0.285 N 
ATOM     10  C   UNL     1       0.122  -6.444  -4.331  0.00  0.00    +0.310 C 
ATOM     11  O   UNL     1       1.017  -6.027  -5.041  0.00  0.00    -0.252 OA
ATOM     12  H   UNL     1      -1.293  -7.043  -5.733  0.00  0.00    +0.151 HD
ENDROOT
BRANCH   1  13
ATOM     13  C   UNL     1       1.315  -5.968  -2.211  0.00  0.00    +0.154 C 
BRANCH  13  18
ATOM     14  N   UNL     1       0.688  -0.476  -1.203  0.00  0.00    -0.329 N 
ATOM     15  C   UNL     1       0.831  -1.840  -1.432  0.00  0.00    +0.119 A 
ATOM     16  C   UNL     1       0.316  -2.751  -0.515  0.00  0.00    +0.044 A 
ATOM     17  C   UNL     1       0.466  -4.105  -0.755  0.00  0.00    +0.010 A 
ATOM     18  C   UNL     1       1.128  -4.504  -1.909  0.00  0.00    -0.011 A 
ATOM     19  C   UNL     1       1.614  -3.546  -2.775  0.00  0.00    +0.118 A 
ATOM     20  N   UNL     1       1.452  -2.261  -2.523  0.00  0.00    -0.240 NA
ATOM     21  H   UNL     1       1.042   0.162  -1.842  0.00  0.00    +0.147 HD
BRANCH  14  23
ATOM     22  C   UNL     1      -0.019   1.526   0.010  0.00  0.00    +0.024 C 
ATOM     23  C   UNL     1       0.002  -0.004   0.002  0.00  0.00    +0.099 C 
ENDBRANCH  14  23
ENDBRANCH  13  18
ENDBRANCH   1  13
TORSDOF 3
