REMARK  Name = ZINC16431192
REMARK  4 active torsions:
REMARK  status: ('A' for Active; 'I' for Inactive)
REMARK    1  A    between atoms: N_11  and  C_12
REMARK    2  A    between atoms: C_12  and  C_13
REMARK    3  A    between atoms: C_13  and  C_14
REMARK    4  A    between atoms: N_16  and  C_17
REMARK                            x       y       z     vdW  Elec       q    Type
REMARK                         _______ _______ _______ _____ _____    ______ ____
ROOT
ATOM      1  C   UNL     1      -2.081   8.483  -1.379  0.00  0.00    +0.215 C 
ATOM      2  O   UNL     1      -2.472   8.933  -0.323  0.00  0.00    -0.276 OA
ATOM      3  N   UNL     1      -2.537   8.995  -2.539  0.00  0.00    -0.310 N 
ATOM      4  H   UNL     1      -2.224   8.635  -3.384  0.00  0.00    +0.149 HD
ENDROOT
BRANCH   3   5
ATOM      5  C   UNL     1      -3.504  10.095  -2.525  0.00  0.00    +0.035 C 
ATOM      6  C   UNL     1      -4.772   9.650  -1.795  0.00  0.00    +0.029 C 
ATOM      7  C   UNL     1      -5.782  10.799  -1.780  0.00  0.00    -0.008 C 
ATOM      8  C   UNL     1      -6.132  11.189  -3.217  0.00  0.00    +0.007 C 
ATOM      9  C   UNL     1      -4.864  11.634  -3.948  0.00  0.00    -0.008 C 
ATOM     10  C   UNL     1      -3.854  10.485  -3.963  0.00  0.00    +0.029 C 
ATOM     11  C   UNL     1      -4.256  12.839  -3.226  0.00  0.00    +0.007 C 
ATOM     12  C   UNL     1      -3.906  12.448  -1.789  0.00  0.00    -0.008 C 
ATOM     13  C   UNL     1      -5.175  12.003  -1.058  0.00  0.00    +0.007 C 
ATOM     14  C   UNL     1      -2.896  11.299  -1.803  0.00  0.00    +0.029 C 
ENDBRANCH   3   5
BRANCH   1  15
ATOM     15  C   UNL     1      -1.086   7.351  -1.393  0.00  0.00    +0.117 C 
BRANCH  15  16
ATOM     16  C   UNL     1      -0.737   6.961   0.044  0.00  0.00    +0.138 C 
BRANCH  16  27
ATOM     17  C   UNL     1      -1.232   2.405   0.021  0.00  0.00    +0.022 A 
ATOM     18  C   UNL     1      -1.258   3.786   0.034  0.00  0.00    +0.031 A 
ATOM     19  C   UNL     1      -0.069   4.498   0.026  0.00  0.00    +0.090 A 
ATOM     20  C   UNL     1       1.151   3.822   0.011  0.00  0.00    +0.158 A 
ATOM     21  C   UNL     1       1.168   2.436   0.004  0.00  0.00    +0.068 A 
ATOM     22  C   UNL     1      -0.021   1.732   0.012  0.00  0.00    +0.045 A 
ATOM     23 CL   UNL     1       0.002  -0.004   0.002  0.00  0.00    -0.083 Cl
ATOM     24  O   UNL     1       2.130   4.759   0.007  0.00  0.00    -0.407 OA
ATOM     25  C   UNL     1       1.573   5.980   0.018  0.00  0.00    +0.421 A 
ATOM     26  O   UNL     1       2.185   7.031   0.018  0.00  0.00    -0.223 OA
ATOM     27  N   UNL     1       0.231   5.861   0.030  0.00  0.00    -0.274 N 
ENDBRANCH  16  27
ENDBRANCH  15  16
ENDBRANCH   1  15
TORSDOF 4
