REMARK  Name = ZINC62738693
REMARK  7 active torsions:
REMARK  status: ('A' for Active; 'I' for Inactive)
REMARK    1  A    between atoms: C_1  and  C_2
REMARK    2  A    between atoms: C_2  and  C_3
REMARK    3  A    between atoms: C_2  and  C_4
REMARK    4  A    between atoms: C_2  and  N_5
REMARK    5  A    between atoms: N_5  and  C_6
REMARK    6  A    between atoms: C_6  and  C_7
REMARK    7  A    between atoms: C_8  and  N_15
REMARK                            x       y       z     vdW  Elec       q    Type
REMARK                         _______ _______ _______ _____ _____    ______ ____
ROOT
ATOM      1  C   UNL     1       2.773  -0.455  -2.457  0.00  0.00    +0.053 A 
ATOM      2  C   UNL     1       3.473  -1.603  -2.577  0.00  0.00    +0.175 A 
ATOM      3  N   UNL     1       3.947  -1.677  -3.833  0.00  0.00    -0.202 NA
ATOM      4  C   UNL     1       3.568  -0.620  -4.492  0.00  0.00    +0.180 A 
ATOM      5  N   UNL     1       2.816   0.197  -3.689  0.00  0.00    -0.297 N 
ATOM      6  C   UNL     1       2.335   1.358  -4.254  0.00  0.00    +0.100 A 
ATOM      7  C   UNL     1       2.596   1.656  -5.526  0.00  0.00    +0.067 A 
ATOM      8  S   UNL     1       3.593   0.264  -6.034  0.00  0.00    -0.058 S 
ENDROOT
BRANCH   2   9
ATOM      9  N   UNL     1       3.671  -2.556  -1.565  0.00  0.00    -0.219 N 
ATOM     10  C   UNL     1       3.938  -3.869  -1.749  0.00  0.00    +0.136 A 
ATOM     11  C   UNL     1       4.060  -4.439  -0.527  0.00  0.00    +0.079 A 
ATOM     12  C   UNL     1       3.862  -3.443   0.435  0.00  0.00    +0.154 A 
ATOM     13  N   UNL     1       3.635  -2.313  -0.186  0.00  0.00    -0.172 NA
ATOM     14 CL   UNL     1       4.402  -6.112  -0.210  0.00  0.00    -0.080 Cl
ENDBRANCH   2   9
BRANCH   1  15
ATOM     15  C   UNL     1       2.068   0.031  -1.217  0.00  0.00    -0.023 C 
BRANCH  15  16
ATOM     16  N   UNL     1       0.690  -0.478  -1.207  0.00  0.00    +0.386 N 
ATOM     17  H   UNL     1       0.703  -1.487  -1.212  0.00  0.00    -0.085 HD
ATOM     18  H   UNL     1       0.202  -0.144  -2.024  0.00  0.00    -0.085 HD
BRANCH  16  20
ATOM     19  C   UNL     1      -0.019   1.526   0.010  0.00  0.00    -0.011 C 
ATOM     20  C   UNL     1       0.002  -0.004   0.002  0.00  0.00    -0.076 C 
ATOM     21  C   UNL     1       0.742  -0.511   1.242  0.00  0.00    -0.011 C 
ATOM     22  C   UNL     1      -1.433  -0.534   0.013  0.00  0.00    -0.011 C 
ENDBRANCH  16  20
ENDBRANCH  15  16
ENDBRANCH   1  15
TORSDOF 4
