REMARK  Name = ZINC09389605
REMARK  5 active torsions:
REMARK  status: ('A' for Active; 'I' for Inactive)
REMARK    1  A    between atoms: N_11  and  C_12
REMARK    2  A    between atoms: C_17  and  C_18
REMARK    3  A    between atoms: C_17  and  N_59
REMARK    4  A    between atoms: C_21  and  C_31
REMARK    5  A    between atoms: C_24  and  C_26
REMARK                            x       y       z     vdW  Elec       q    Type
REMARK                         _______ _______ _______ _____ _____    ______ ____
ROOT
ATOM      1  C   UNL     1      -4.019  -2.699   0.008  0.00  0.00    +0.021 C 
ENDROOT
BRANCH   1   7
ATOM      2  C   UNL     1      -5.874  -6.326  -1.288  0.00  0.00    +0.089 C 
ATOM      3  C   UNL     1      -4.797  -6.377  -0.201  0.00  0.00    +0.006 C 
ATOM      4  C   UNL     1      -3.952  -5.103  -0.267  0.00  0.00    -0.076 C 
ATOM      5  C   UNL     1      -5.827  -3.835  -1.132  0.00  0.00    -0.076 C 
ATOM      6  C   UNL     1      -6.728  -5.071  -1.091  0.00  0.00    +0.006 C 
ATOM      7  N   UNL     1      -4.828  -3.933  -0.046  0.00  0.00    +0.386 N 
ATOM      8  H   UNL     1      -5.319  -4.050   0.848  0.00  0.00    -0.081 HD
BRANCH   2  19
ATOM      9  C   UNL     1      -7.651 -10.642  -3.740  0.00  0.00    +0.002 A 
ATOM     10  C   UNL     1      -6.776  -9.695  -4.245  0.00  0.00    +0.002 A 
ATOM     11  C   UNL     1      -6.402  -8.611  -3.475  0.00  0.00    +0.028 A 
ATOM     12  C   UNL     1      -6.904  -8.471  -2.191  0.00  0.00    +0.070 A 
ATOM     13  C   UNL     1      -7.786  -9.425  -1.681  0.00  0.00    +0.067 A 
ATOM     14  C   UNL     1      -8.156 -10.510  -2.461  0.00  0.00    +0.028 A 
ATOM     15  N   UNL     1      -8.114  -9.021  -0.389  0.00  0.00    -0.306 N 
ATOM     16  H   UNL     1      -8.710  -9.487   0.218  0.00  0.00    +0.170 HD
ATOM     17  C   UNL     1      -7.456  -7.877  -0.123  0.00  0.00    +0.328 A 
ATOM     18  O   UNL     1      -7.518  -7.260   0.925  0.00  0.00    -0.247 OA
ATOM     19  N   UNL     1      -6.723  -7.516  -1.193  0.00  0.00    -0.289 N 
ENDBRANCH   2  19
ENDBRANCH   1   7
BRANCH   1  20
ATOM     20  C   UNL     1      -3.176  -2.726   1.257  0.00  0.00    +0.219 C 
ATOM     21  O   UNL     1      -3.315  -3.622   2.063  0.00  0.00    -0.276 OA
ATOM     22  N   UNL     1      -2.268  -1.755   1.479  0.00  0.00    -0.186 N 
ATOM     23  C   UNL     1      -1.383  -1.662   2.651  0.00  0.00    +0.143 C 
ATOM     24  C   UNL     1      -0.563  -0.384   2.386  0.00  0.00    +0.088 C 
ATOM     25  C   UNL     1      -1.093   0.122   1.064  0.00  0.00    +0.075 C 
ATOM     26  N   UNL     1      -2.012  -0.677   0.634  0.00  0.00    -0.180 NA
BRANCH  25  27
ATOM     27  C   UNL     1      -0.630   1.330   0.373  0.00  0.00    +0.035 A 
ATOM     28  C   UNL     1      -1.052   1.860  -0.834  0.00  0.00    +0.017 A 
ATOM     29  C   UNL     1      -0.464   3.021  -1.279  0.00  0.00    +0.008 A 
ATOM     30  C   UNL     1       0.509   3.603  -0.529  0.00  0.00    +0.046 A 
ATOM     31  S   UNL     1       0.626   2.498   0.867  0.00  0.00    -0.095 S 
ENDBRANCH  25  27
BRANCH  23  32
ATOM     32  C   UNL     1      -0.476  -2.863   2.728  0.00  0.00    +0.013 A 
ATOM     33  C   UNL     1      -0.067  -3.556   3.818  0.00  0.00    +0.013 A 
ATOM     34  C   UNL     1       0.777  -4.638   3.648  0.00  0.00    +0.008 A 
ATOM     35  C   UNL     1       1.169  -4.974   2.395  0.00  0.00    +0.045 A 
ATOM     36  S   UNL     1       0.334  -3.746   1.404  0.00  0.00    -0.100 S 
ENDBRANCH  23  32
ENDBRANCH   1  20
TORSDOF 5
