REMARK  Name = ZINC03323705
REMARK  6 active torsions:
REMARK  status: ('A' for Active; 'I' for Inactive)
REMARK    1  A    between atoms: C_1  and  C_2
REMARK    2  A    between atoms: C_5  and  N_8
REMARK    3  A    between atoms: C_9  and  C_26
REMARK    4  A    between atoms: N_13  and  C_16
REMARK    5  A    between atoms: C_16  and  C_17
REMARK    6  A    between atoms: N_19  and  C_20
REMARK                            x       y       z     vdW  Elec       q    Type
REMARK                         _______ _______ _______ _____ _____    ______ ____
ROOT
ATOM      1  N   UNL     1       0.710  -0.519   1.187  0.00  0.00    -0.243 N 
ATOM      2  C   UNL     1       0.002  -0.004   0.002  0.00  0.00    +0.166 C 
ATOM      3  C   UNL     1       0.829  -0.520  -1.159  0.00  0.00    +0.244 C 
ATOM      4  O   UNL     1       0.623  -0.342  -2.341  0.00  0.00    -0.273 OA
ATOM      5  N   UNL     1       1.840  -1.218  -0.605  0.00  0.00    -0.215 N 
ATOM      6  C   UNL     1       1.768  -1.214   0.731  0.00  0.00    +0.316 C 
ATOM      7  O   UNL     1       2.568  -1.776   1.452  0.00  0.00    -0.252 OA
ATOM      8  C   UNL     1      -0.019   1.526   0.010  0.00  0.00    +0.038 C 
ENDROOT
BRANCH   1  13
ATOM      9  C   UNL     1      -0.740   0.277   6.614  0.00  0.00    +0.044 C 
ATOM     10  C   UNL     1      -0.355   0.065   5.172  0.00  0.00    -0.050 A 
ATOM     11  C   UNL     1       0.768  -0.680   4.860  0.00  0.00    +0.005 A 
ATOM     12  C   UNL     1       1.123  -0.876   3.540  0.00  0.00    +0.024 A 
ATOM     13  C   UNL     1       0.352  -0.324   2.525  0.00  0.00    +0.039 A 
ATOM     14  C   UNL     1      -0.772   0.428   2.842  0.00  0.00    +0.024 A 
ATOM     15  C   UNL     1      -1.125   0.616   4.164  0.00  0.00    +0.005 A 
ENDBRANCH   1  13
BRANCH   5  16
ATOM     16  C   UNL     1       2.889  -1.895  -1.371  0.00  0.00    +0.213 C 
BRANCH  16  17
ATOM     17  C   UNL     1       2.458  -3.307  -1.674  0.00  0.00    +0.231 C 
ATOM     18  O   UNL     1       1.380  -3.708  -1.288  0.00  0.00    -0.274 OA
ATOM     19  N   UNL     1       3.269  -4.124  -2.373  0.00  0.00    -0.311 N 
ATOM     20  H   UNL     1       4.131  -3.804  -2.682  0.00  0.00    +0.149 HD
BRANCH  19  21
ATOM     21  C   UNL     1       2.850  -5.497  -2.668  0.00  0.00    +0.073 C 
ATOM     22  C   UNL     1       3.200  -6.402  -1.485  0.00  0.00    +0.022 C 
ATOM     23  C   UNL     1       2.762  -7.835  -1.793  0.00  0.00    +0.002 C 
ATOM     24  C   UNL     1       3.485  -8.331  -3.047  0.00  0.00    +0.000 C 
ATOM     25  C   UNL     1       3.135  -7.426  -4.229  0.00  0.00    +0.002 C 
ATOM     26  C   UNL     1       3.573  -5.993  -3.922  0.00  0.00    +0.022 C 
ENDBRANCH  19  21
ENDBRANCH  16  17
ENDBRANCH   5  16
TORSDOF 4
