REMARK  Name = ZINC35842589
REMARK  23 active torsions:
REMARK  status: ('A' for Active; 'I' for Inactive)
REMARK    1  A    between atoms: C_1  and  C_2
REMARK    2  A    between atoms: C_2  and  C_3
REMARK    3  A    between atoms: C_2  and  C_4
REMARK    4  A    between atoms: C_4  and  N_5
REMARK    5  A    between atoms: N_5  and  C_6
REMARK    6  A    between atoms: N_5  and  C_15
REMARK    7  A    between atoms: C_6  and  C_7
REMARK    8  A    between atoms: C_7  and  C_9
REMARK    9  A    between atoms: C_7  and  O_14
REMARK   10  A    between atoms: C_9  and  O_10
REMARK   11  A    between atoms: O_10  and  C_11
REMARK   12  A    between atoms: C_11  and  C_12
REMARK   13  A    between atoms: C_11  and  C_13
REMARK   14  A    between atoms: C_15  and  C_16
REMARK   15  A    between atoms: N_18  and  C_19
REMARK   16  A    between atoms: N_18  and  C_31
REMARK   17  A    between atoms: C_19  and  C_20
REMARK   18  A    between atoms: C_20  and  C_21
REMARK   19  A    between atoms: C_31  and  C_32
REMARK   20  A    between atoms: C_35  and  C_38
REMARK   21  A    between atoms: C_38  and  C_39
REMARK   22  A    between atoms: C_38  and  C_40
REMARK   23  A    between atoms: C_38  and  C_41
REMARK                            x       y       z     vdW  Elec       q    Type
REMARK                         _______ _______ _______ _____ _____    ______ ____
ROOT
ATOM      1  C   UNL     1       2.152   0.638   3.541  0.00  0.00    +0.199 C 
ATOM      2  O   UNL     1       2.334   1.407   2.621  0.00  0.00    -0.278 OA
ATOM      3  N   UNL     1       3.067   0.536   4.525  0.00  0.00    -0.298 N 
ENDROOT
BRANCH   1   4
ATOM      4  C   UNL     1       0.902  -0.202   3.585  0.00  0.00    +0.019 C 
BRANCH   4   5
ATOM      5  N   UNL     1       0.144  -0.017   2.340  0.00  0.00    +0.387 N 
ATOM      6  H   UNL     1      -0.036   0.965   2.199  0.00  0.00    -0.081 HD
BRANCH   5   7
ATOM      7  C   UNL     1      -1.131  -0.741   2.431  0.00  0.00    -0.044 C 
BRANCH   7   8
ATOM      8  C   UNL     1      -2.003  -0.105   3.515  0.00  0.00    +0.124 C 
BRANCH   8   9
ATOM      9  O   UNL     1      -2.258   1.261   3.181  0.00  0.00    -0.391 OA
ATOM     10  H   UNL     1      -2.783   1.378   2.377  0.00  0.00    +0.210 HD
ENDBRANCH   8   9
BRANCH   8  11
ATOM     11  C   UNL     1      -3.329  -0.862   3.613  0.00  0.00    +0.189 C 
BRANCH  11  12
ATOM     12  O   UNL     1      -4.094  -0.342   4.702  0.00  0.00    -0.375 OA
BRANCH  12  13
ATOM     13  C   UNL     1      -5.359  -0.984   4.882  0.00  0.00    +0.112 C 
ATOM     14  C   UNL     1      -5.744  -0.945   6.362  0.00  0.00    +0.037 C 
ATOM     15  C   UNL     1      -6.422  -0.255   4.059  0.00  0.00    +0.037 C 
ENDBRANCH  12  13
ENDBRANCH  11  12
ENDBRANCH   8  11
ENDBRANCH   7   8
ENDBRANCH   5   7
BRANCH   5  16
ATOM     16  C   UNL     1       0.924  -0.539   1.210  0.00  0.00    -0.075 C 
BRANCH  16  18
ATOM     17  C   UNL     1       0.109   1.301  -0.270  0.00  0.00    +0.005 C 
ATOM     18  C   UNL     1       0.203  -0.217  -0.100  0.00  0.00    -0.034 C 
ATOM     19  C   UNL     1       0.983  -0.815  -1.272  0.00  0.00    +0.005 C 
ENDBRANCH  16  18
ENDBRANCH   5  16
ENDBRANCH   4   5
ENDBRANCH   1   4
BRANCH   3  20
ATOM     20  C   UNL     1       4.223   1.436   4.547  0.00  0.00    +0.113 C 
BRANCH  20  21
ATOM     21  C   UNL     1       3.877   2.692   5.349  0.00  0.00    +0.056 C 
BRANCH  21  22
ATOM     22  C   UNL     1       5.066   3.618   5.372  0.00  0.00    -0.021 A 
ATOM     23  C   UNL     1       6.003   3.690   6.329  0.00  0.00    +0.087 A 
ATOM     24  N   UNL     1       6.927   4.647   6.007  0.00  0.00    -0.360 N 
ATOM     25  H   UNL     1       7.698   4.881   6.546  0.00  0.00    +0.165 HD
ATOM     26  C   UNL     1       6.597   5.228   4.803  0.00  0.00    +0.047 A 
ATOM     27  C   UNL     1       5.420   4.605   4.349  0.00  0.00    +0.003 A 
ATOM     28  C   UNL     1       4.851   4.992   3.135  0.00  0.00    +0.010 A 
ATOM     29  C   UNL     1       5.441   5.975   2.391  0.00  0.00    +0.001 A 
ATOM     30  C   UNL     1       6.604   6.590   2.833  0.00  0.00    +0.002 A 
ATOM     31  C   UNL     1       7.179   6.229   4.032  0.00  0.00    +0.026 A 
ENDBRANCH  21  22
ENDBRANCH  20  21
ENDBRANCH   3  20
BRANCH   3  32
ATOM     32  C   UNL     1       2.907  -0.475   5.573  0.00  0.00    +0.142 C 
BRANCH  32  33
ATOM     33  C   UNL     1       3.710  -1.700   5.217  0.00  0.00    -0.030 A 
ATOM     34  C   UNL     1       3.160  -2.676   4.409  0.00  0.00    +0.005 A 
ATOM     35  C   UNL     1       3.897  -3.800   4.082  0.00  0.00    +0.004 A 
ATOM     36  C   UNL     1       5.184  -3.945   4.564  0.00  0.00    -0.042 A 
ATOM     37  C   UNL     1       5.735  -2.968   5.371  0.00  0.00    +0.004 A 
ATOM     38  C   UNL     1       5.000  -1.843   5.694  0.00  0.00    +0.005 A 
BRANCH  36  39
ATOM     39  C   UNL     1       5.987  -5.170   4.208  0.00  0.00    -0.013 C 
ATOM     40  C   UNL     1       6.149  -5.251   2.689  0.00  0.00    +0.015 C 
ATOM     41  C   UNL     1       7.367  -5.083   4.864  0.00  0.00    +0.015 C 
ATOM     42  C   UNL     1       5.261  -6.420   4.711  0.00  0.00    +0.015 C 
ENDBRANCH  36  39
ENDBRANCH  32  33
ENDBRANCH   3  32
TORSDOF 16
