REMARK  Name = ZINC39411747
REMARK  5 active torsions:
REMARK  status: ('A' for Active; 'I' for Inactive)
REMARK    1  A    between atoms: C_7  and  C_18
REMARK    2  A    between atoms: C_9  and  C_11
REMARK    3  A    between atoms: C_16  and  O_17
REMARK    4  A    between atoms: N_20  and  N_21
REMARK    5  A    between atoms: C_22  and  C_23
REMARK                            x       y       z     vdW  Elec       q    Type
REMARK                         _______ _______ _______ _____ _____    ______ ____
ROOT
ATOM      1  C   UNL     1      -0.017   1.359  -0.035  0.00  0.00    +0.001 A 
ATOM      2  C   UNL     1       1.170   2.089  -0.042  0.00  0.00    +0.002 A 
ATOM      3  C   UNL     1       2.379   1.465  -0.042  0.00  0.00    +0.028 A 
ATOM      4  C   UNL     1       2.438   0.059  -0.035  0.00  0.00    +0.072 A 
ATOM      5  C   UNL     1       1.228  -0.679  -0.029  0.00  0.00    +0.013 A 
ATOM      6  C   UNL     1       0.002  -0.004  -0.028  0.00  0.00    +0.011 A 
ATOM      7  C   UNL     1       1.296  -2.140  -0.022  0.00  0.00    +0.050 A 
ATOM      8  C   UNL     1       2.557  -2.719  -0.022  0.00  0.00    +0.042 A 
ATOM      9  C   UNL     1       3.693  -1.895  -0.029  0.00  0.00    +0.076 A 
ATOM     10  N   UNL     1       3.609  -0.581  -0.035  0.00  0.00    -0.247 NA
ENDROOT
BRANCH   9  11
ATOM     11  C   UNL     1       5.034  -2.526  -0.030  0.00  0.00    +0.042 A 
ATOM     12  C   UNL     1       5.155  -3.914  -0.029  0.00  0.00    +0.013 A 
ATOM     13  C   UNL     1       6.405  -4.497  -0.029  0.00  0.00    +0.001 A 
ATOM     14  C   UNL     1       7.542  -3.707  -0.031  0.00  0.00    +0.004 A 
ATOM     15  C   UNL     1       7.435  -2.329  -0.032  0.00  0.00    +0.046 A 
ATOM     16  C   UNL     1       6.185  -1.730  -0.036  0.00  0.00    +0.126 A 
BRANCH  16  17
ATOM     17  O   UNL     1       6.078  -0.377  -0.043  0.00  0.00    -0.506 OA
ATOM     18  H   UNL     1       6.049   0.020   0.839  0.00  0.00    +0.292 HD
ENDBRANCH  16  17
ENDBRANCH   9  11
BRANCH   7  19
ATOM     19  C   UNL     1       0.070  -2.967  -0.014  0.00  0.00    +0.264 C 
ATOM     20  O   UNL     1      -1.019  -2.438   0.091  0.00  0.00    -0.268 OA
ATOM     21  N   UNL     1       0.161  -4.307  -0.123  0.00  0.00    -0.203 N 
ATOM     22  H   UNL     1       1.031  -4.729  -0.207  0.00  0.00    +0.178 HD
BRANCH  21  23
ATOM     23  N   UNL     1      -1.000  -5.091  -0.116  0.00  0.00    -0.190 NA
ATOM     24  C   UNL     1      -0.914  -6.364  -0.220  0.00  0.00    +0.134 C 
BRANCH  24  25
ATOM     25  C   UNL     1      -2.163  -7.207  -0.212  0.00  0.00    +0.170 C 
ATOM     26  C   UNL     1      -2.145  -8.159   0.963  0.00  0.00    +0.006 C 
ATOM     27  C   UNL     1      -3.206  -7.847   1.704  0.00  0.00    +0.017 C 
ATOM     28  C   UNL     1      -3.927  -6.736   1.080  0.00  0.00    +0.106 C 
ATOM     29  N   UNL     1      -3.346  -6.361  -0.013  0.00  0.00    -0.279 NA
ENDBRANCH  24  25
ENDBRANCH  21  23
ENDBRANCH   7  19
TORSDOF 5
