REMARK  Name = ZINC39688750
REMARK  11 active torsions:
REMARK  status: ('A' for Active; 'I' for Inactive)
REMARK    1  A    between atoms: C_1  and  C_2
REMARK    2  A    between atoms: C_2  and  C_4
REMARK    3  A    between atoms: C_2  and  N_12
REMARK    4  A    between atoms: C_4  and  C_5
REMARK    5  A    between atoms: C_13  and  C_15
REMARK    6  A    between atoms: C_26  and  C_28
REMARK    7  A    between atoms: C_28  and  C_30
REMARK    8  A    between atoms: C_28  and  O_33
REMARK    9  A    between atoms: C_30  and  C_31
REMARK   10  A    between atoms: C_30  and  C_32
REMARK   11  A    between atoms: O_33  and  C_34
REMARK                            x       y       z     vdW  Elec       q    Type
REMARK                         _______ _______ _______ _____ _____    ______ ____
ROOT
ATOM      1  C   UNL     1      -3.087  -1.016  -1.288  0.00  0.00    +0.100 C 
ATOM      2  C   UNL     1      -4.021  -0.222  -0.348  0.00  0.00    +0.121 C 
ATOM      3  N   UNL     1      -4.763   0.695  -1.245  0.00  0.00    -0.297 N 
ATOM      4  C   UNL     1      -5.044  -0.118  -2.452  0.00  0.00    +0.115 C 
ATOM      5  C   UNL     1      -3.763  -0.949  -2.667  0.00  0.00    -0.004 C 
ATOM      6  C   UNL     1      -4.118  -2.351  -3.151  0.00  0.00    -0.010 C 
ATOM      7  C   UNL     1      -4.737  -2.263  -4.549  0.00  0.00    -0.082 C 
ATOM      8  N   UNL     1      -3.782  -1.634  -5.469  0.00  0.00    +0.379 N 
ATOM      9  C   UNL     1      -3.518  -0.252  -5.048  0.00  0.00    -0.082 C 
ATOM     10  C   UNL     1      -2.848  -0.255  -3.672  0.00  0.00    -0.010 C 
ATOM     11  C   UNL     1      -5.105   1.978  -1.015  0.00  0.00    +0.257 C 
ATOM     12  O   UNL     1      -5.790   2.577  -1.818  0.00  0.00    -0.272 OA
ATOM     13  H   UNL     1      -2.919  -2.156  -5.466  0.00  0.00    -0.086 HD
ATOM     14  H   UNL     1      -4.167  -1.632  -6.402  0.00  0.00    -0.086 HD
ENDROOT
BRANCH   1  16
ATOM     15  N   UNL     1      -0.628  -1.131  -1.540  0.00  0.00    -0.312 N 
ATOM     16  C   UNL     1      -1.725  -0.373  -1.340  0.00  0.00    +0.218 C 
ATOM     17  O   UNL     1      -1.615   0.827  -1.201  0.00  0.00    -0.275 OA
ATOM     18  H   UNL     1      -0.716  -2.091  -1.651  0.00  0.00    +0.149 HD
BRANCH  15  20
ATOM     19  C   UNL     1       1.241  -0.352  -0.170  0.00  0.00    +0.028 C 
ATOM     20  C   UNL     1       0.695  -0.506  -1.591  0.00  0.00    +0.074 C 
BRANCH  20  21
ATOM     21  C   UNL     1       1.643  -1.384  -2.409  0.00  0.00    +0.057 C 
BRANCH  21  22
ATOM     22  C   UNL     1       1.172  -1.435  -3.840  0.00  0.00    -0.045 A 
ATOM     23  C   UNL     1       0.282  -2.415  -4.239  0.00  0.00    +0.006 A 
ATOM     24  C   UNL     1      -0.151  -2.463  -5.550  0.00  0.00    +0.038 A 
ATOM     25  C   UNL     1       0.306  -1.529  -6.464  0.00  0.00    +0.123 A 
ATOM     26  C   UNL     1       1.197  -0.548  -6.063  0.00  0.00    +0.038 A 
ATOM     27  C   UNL     1       1.625  -0.499  -4.750  0.00  0.00    +0.006 A 
ATOM     28  F   UNL     1      -0.117  -1.575  -7.747  0.00  0.00    -0.205 F 
ENDBRANCH  21  22
ENDBRANCH  20  21
ENDBRANCH  15  20
ENDBRANCH   1  16
BRANCH  11  29
ATOM     29  C   UNL     1      -4.638   2.670   0.240  0.00  0.00    +0.261 C 
BRANCH  29  30
ATOM     30  C   UNL     1      -5.643   2.417   1.366  0.00  0.00    +0.033 C 
ATOM     31  C   UNL     1      -5.842   0.910   1.543  0.00  0.00    +0.011 C 
ATOM     32  C   UNL     1      -5.111   3.017   2.668  0.00  0.00    +0.011 C 
ENDBRANCH  29  30
BRANCH  29  33
ATOM     33  O   UNL     1      -4.535   4.074  -0.000  0.00  0.00    -0.479 OA
BRANCH  33  34
ATOM     34  C   UNL     1      -3.545   4.741   0.650  0.00  0.00    +0.122 A 
ATOM     35  C   UNL     1      -2.633   4.043   1.429  0.00  0.00    +0.045 A 
ATOM     36  C   UNL     1      -1.628   4.722   2.089  0.00  0.00    +0.004 A 
ATOM     37  C   UNL     1      -1.530   6.097   1.975  0.00  0.00    +0.000 A 
ATOM     38  C   UNL     1      -2.439   6.795   1.200  0.00  0.00    +0.004 A 
ATOM     39  C   UNL     1      -3.442   6.119   0.533  0.00  0.00    +0.045 A 
ENDBRANCH  33  34
ENDBRANCH  29  33
ENDBRANCH  11  29
TORSDOF 8
