REMARK  Name = ZINC38597865
REMARK  9 active torsions:
REMARK  status: ('A' for Active; 'I' for Inactive)
REMARK    1  A    between atoms: C_3  and  C_6
REMARK    2  A    between atoms: C_6  and  C_8
REMARK    3  A    between atoms: C_6  and  N_24
REMARK    4  A    between atoms: C_8  and  N_9
REMARK    5  A    between atoms: N_9  and  S_10
REMARK    6  A    between atoms: S_10  and  C_13
REMARK    7  A    between atoms: C_16  and  O_19
REMARK    8  A    between atoms: O_19  and  C_20
REMARK    9  A    between atoms: N_27  and  C_30
REMARK                            x       y       z     vdW  Elec       q    Type
REMARK                         _______ _______ _______ _____ _____    ______ ____
ROOT
ATOM      1  C   UNL     1       3.565   0.511  -0.073  0.00  0.00    +0.139 C 
ENDROOT
BRANCH   1   2
ATOM      2  N   UNL     1       4.088  -0.590  -0.894  0.00  0.00    -0.289 NA
ATOM      3  C   UNL     1       3.978  -0.277  -2.325  0.00  0.00    +0.104 C 
ATOM      4  C   UNL     1       4.694  -1.361  -3.137  0.00  0.00    +0.120 C 
ATOM      5  N   UNL     1       4.155  -2.672  -2.744  0.00  0.00    -0.327 N 
ATOM      6  C   UNL     1       4.105  -3.002  -1.311  0.00  0.00    +0.120 C 
ATOM      7  C   UNL     1       3.412  -1.853  -0.571  0.00  0.00    +0.104 C 
BRANCH   5   8
ATOM      8  C   UNL     1       3.703  -3.580  -3.706  0.00  0.00    +0.030 A 
ATOM      9  C   UNL     1       3.870  -3.303  -5.056  0.00  0.00    +0.026 A 
ATOM     10  C   UNL     1       3.422  -4.202  -6.005  0.00  0.00    +0.040 A 
ATOM     11  C   UNL     1       2.807  -5.378  -5.610  0.00  0.00    +0.124 A 
ATOM     12  C   UNL     1       2.639  -5.656  -4.264  0.00  0.00    +0.040 A 
ATOM     13  C   UNL     1       3.090  -4.763  -3.312  0.00  0.00    +0.026 A 
ATOM     14  F   UNL     1       2.369  -6.255  -6.540  0.00  0.00    -0.205 F 
ENDBRANCH   5   8
ENDBRANCH   1   2
BRANCH   1  17
ATOM     15  C   UNL     1       0.111   1.569  -0.804  0.00  0.00    +0.041 A 
ATOM     16  C   UNL     1       1.478   1.862  -0.597  0.00  0.00    +0.046 A 
ATOM     17  C   UNL     1       2.095   0.691  -0.352  0.00  0.00    +0.123 A 
ATOM     18  O   UNL     1       1.178  -0.289  -0.399  0.00  0.00    -0.466 OA
ATOM     19  C   UNL     1      -0.027   0.237  -0.673  0.00  0.00    +0.195 A 
ENDBRANCH   1  17
BRANCH   1  20
ATOM     20  C   UNL     1       3.766   0.183   1.408  0.00  0.00    +0.132 C 
BRANCH  20  21
ATOM     21  N   UNL     1       5.183  -0.095   1.658  0.00  0.00    -0.188 NA
ATOM     22  H   UNL     1       5.777  -0.289   0.917  0.00  0.00    +0.148 HD
BRANCH  21  23
ATOM     23  S   UNL     1       5.769  -0.078   3.207  0.00  0.00    +0.058 S 
ATOM     24  O   UNL     1       7.148  -0.407   3.123  0.00  0.00    -0.153 OA
ATOM     25  O   UNL     1       5.308   1.127   3.802  0.00  0.00    -0.153 OA
BRANCH  23  26
ATOM     26  C   UNL     1       4.988  -1.399   4.074  0.00  0.00    +0.105 A 
ATOM     27  C   UNL     1       3.794  -1.179   4.736  0.00  0.00    +0.032 A 
ATOM     28  C   UNL     1       3.180  -2.213   5.416  0.00  0.00    +0.048 A 
ATOM     29  C   UNL     1       3.763  -3.472   5.435  0.00  0.00    +0.130 A 
ATOM     30  C   UNL     1       4.960  -3.689   4.770  0.00  0.00    +0.048 A 
ATOM     31  C   UNL     1       5.568  -2.654   4.086  0.00  0.00    +0.032 A 
BRANCH  29  32
ATOM     32  O   UNL     1       3.161  -4.490   6.105  0.00  0.00    -0.406 OA
BRANCH  32  33
ATOM     33  C   UNL     1       3.818  -5.759   6.081  0.00  0.00    +0.575 C 
ATOM     34  F   UNL     1       5.090  -5.636   6.649  0.00  0.00    -0.133 F 
ATOM     35  F   UNL     1       3.068  -6.686   6.814  0.00  0.00    -0.133 F 
ATOM     36  F   UNL     1       3.937  -6.198   4.758  0.00  0.00    -0.133 F 
ENDBRANCH  32  33
ENDBRANCH  29  32
ENDBRANCH  23  26
ENDBRANCH  21  23
ENDBRANCH  20  21
ENDBRANCH   1  20
TORSDOF 9
