REMARK  Name = ZINC16957004
REMARK  17 active torsions:
REMARK  status: ('A' for Active; 'I' for Inactive)
REMARK    1  A    between atoms: C_1  and  C_2
REMARK    2  A    between atoms: C_4  and  C_8
REMARK    3  A    between atoms: C_13  and  O_14
REMARK    4  A    between atoms: O_14  and  C_15
REMARK    5  A    between atoms: C_17  and  O_39
REMARK    6  A    between atoms: C_19  and  O_35
REMARK    7  A    between atoms: C_21  and  O_31
REMARK    8  A    between atoms: C_23  and  C_26
REMARK    9  A    between atoms: C_26  and  O_27
REMARK   10  A    between atoms: O_27  and  C_28
REMARK   11  A    between atoms: C_28  and  C_30
REMARK   12  A    between atoms: O_31  and  C_32
REMARK   13  A    between atoms: C_32  and  C_34
REMARK   14  A    between atoms: O_35  and  C_36
REMARK   15  A    between atoms: C_36  and  C_38
REMARK   16  A    between atoms: O_39  and  C_40
REMARK   17  A    between atoms: C_40  and  C_42
REMARK                            x       y       z     vdW  Elec       q    Type
REMARK                         _______ _______ _______ _____ _____    ______ ____
ROOT
ATOM      1  C   UNL     1      -0.223   6.761   2.947  0.00  0.00    +0.353 C 
ATOM      2  C   UNL     1      -1.000   7.256   4.170  0.00  0.00    +0.289 C 
ATOM      3  C   UNL     1      -2.446   6.756   4.082  0.00  0.00    +0.266 C 
ATOM      4  C   UNL     1      -2.440   5.228   3.976  0.00  0.00    +0.253 C 
ATOM      5  C   UNL     1      -1.607   4.811   2.761  0.00  0.00    +0.204 C 
ATOM      6  O   UNL     1      -0.283   5.334   2.891  0.00  0.00    -0.328 OA
ENDROOT
BRANCH   1   7
ATOM      7  O   UNL     1       1.141   7.176   3.050  0.00  0.00    -0.459 OA
BRANCH   7  13
ATOM      8  C   UNL     1       3.269   7.385   1.982  0.00  0.00    +0.060 A 
ATOM      9  C   UNL     1       4.063   7.200   0.850  0.00  0.00    +0.015 A 
ATOM     10  C   UNL     1       3.520   6.641  -0.288  0.00  0.00    +0.001 A 
ATOM     11  C   UNL     1       2.188   6.263  -0.312  0.00  0.00    +0.004 A 
ATOM     12  C   UNL     1       1.393   6.436   0.804  0.00  0.00    +0.046 A 
ATOM     13  C   UNL     1       1.923   7.001   1.953  0.00  0.00    +0.135 A 
BRANCH   8  17
ATOM     14  C   UNL     1       3.672   9.157   6.625  0.00  0.00    +0.090 C 
ATOM     15  C   UNL     1       4.036   8.756   5.219  0.00  0.00    +0.148 A 
ATOM     16  N   UNL     1       3.206   8.209   4.335  0.00  0.00    -0.212 NA
ATOM     17  C   UNL     1       3.845   7.982   3.205  0.00  0.00    +0.160 A 
ATOM     18  N   UNL     1       5.126   8.390   3.366  0.00  0.00    -0.258 N 
ATOM     19  H   UNL     1       5.837   8.347   2.708  0.00  0.00    +0.191 HD
ATOM     20  N   UNL     1       5.217   8.890   4.675  0.00  0.00    -0.157 NA
ENDBRANCH   8  17
ENDBRANCH   7  13
ENDBRANCH   1   7
BRANCH   5  21
ATOM     21  C   UNL     1      -1.547   3.284   2.683  0.00  0.00    +0.267 C 
BRANCH  21  22
ATOM     22  O   UNL     1      -0.857   2.889   1.469  0.00  0.00    -0.462 OA
BRANCH  22  23
ATOM     23  C   UNL     1      -0.718   1.572   1.248  0.00  0.00    +0.304 C 
ATOM     24  O   UNL     1      -1.159   0.776   2.043  0.00  0.00    -0.251 OA
ATOM     25  C   UNL     1      -0.013   1.086   0.008  0.00  0.00    +0.136 C 
ENDBRANCH  22  23
ENDBRANCH  21  22
ENDBRANCH   5  21
BRANCH   4  26
ATOM     26  O   UNL     1      -1.860   4.660   5.180  0.00  0.00    -0.455 OA
BRANCH  26  27
ATOM     27  C   UNL     1      -2.297   3.447   5.553  0.00  0.00    +0.304 C 
ATOM     28  O   UNL     1      -3.136   2.878   4.896  0.00  0.00    -0.251 OA
ATOM     29  C   UNL     1      -1.741   2.794   6.793  0.00  0.00    +0.136 C 
ENDBRANCH  26  27
ENDBRANCH   4  26
BRANCH   3  30
ATOM     30  O   UNL     1      -3.085   7.322   2.908  0.00  0.00    -0.454 OA
BRANCH  30  31
ATOM     31  C   UNL     1      -3.717   8.496   3.064  0.00  0.00    +0.304 C 
ATOM     32  O   UNL     1      -3.735   9.033   4.146  0.00  0.00    -0.251 OA
ATOM     33  C   UNL     1      -4.404   9.144   1.890  0.00  0.00    +0.136 C 
ENDBRANCH  30  31
ENDBRANCH   3  30
BRANCH   2  34
ATOM     34  O   UNL     1      -0.990   8.707   4.196  0.00  0.00    -0.451 OA
BRANCH  34  35
ATOM     35  C   UNL     1       0.020   9.297   4.855  0.00  0.00    +0.305 C 
ATOM     36  O   UNL     1       0.867   8.623   5.391  0.00  0.00    -0.251 OA
ATOM     37  C   UNL     1       0.097  10.801   4.925  0.00  0.00    +0.136 C 
ENDBRANCH  34  35
ENDBRANCH   2  34
TORSDOF 12
