REMARK  Name = ZINC09433053
REMARK  12 active torsions:
REMARK  status: ('A' for Active; 'I' for Inactive)
REMARK    1  A    between atoms: C_1  and  C_2
REMARK    2  A    between atoms: C_5  and  C_37
REMARK    3  A    between atoms: C_9  and  C_10
REMARK    4  A    between atoms: C_9  and  N_73
REMARK    5  A    between atoms: C_10  and  C_11
REMARK    6  A    between atoms: C_11  and  N_12
REMARK    7  A    between atoms: C_13  and  C_15
REMARK    8  A    between atoms: N_25  and  C_33
REMARK    9  A    between atoms: C_26  and  C_28
REMARK   10  A    between atoms: C_33  and  C_34
REMARK   11  A    between atoms: C_34  and  C_35
REMARK   12  A    between atoms: C_34  and  C_36
REMARK                            x       y       z     vdW  Elec       q    Type
REMARK                         _______ _______ _______ _____ _____    ______ ____
ROOT
ATOM      1  C   UNL     1      -2.420   0.757   0.015  0.00  0.00    +0.131 C 
ATOM      2  C   UNL     1      -2.394  -0.147  -1.189  0.00  0.00    -0.021 A 
ATOM      3  C   UNL     1      -1.197  -0.514  -1.767  0.00  0.00    +0.005 A 
ATOM      4  C   UNL     1      -1.190  -1.357  -2.865  0.00  0.00    +0.000 A 
ATOM      5  C   UNL     1      -2.377  -1.838  -3.387  0.00  0.00    +0.001 A 
ATOM      6  C   UNL     1      -3.582  -1.473  -2.821  0.00  0.00    +0.013 A 
ATOM      7  C   UNL     1      -3.595  -0.619  -1.720  0.00  0.00    +0.041 A 
ATOM      8  C   UNL     1      -4.870  -0.180  -1.114  0.00  0.00    +0.247 C 
ATOM      9  O   UNL     1      -5.910  -0.742  -1.397  0.00  0.00    -0.270 OA
ATOM     10  N   UNL     1      -4.867   0.848  -0.244  0.00  0.00    -0.289 N 
ATOM     11  C   UNL     1      -3.662   1.644  -0.021  0.00  0.00    +0.129 C 
ENDROOT
BRANCH  11  12
ATOM     12  C   UNL     1      -3.520   2.649  -1.135  0.00  0.00    +0.011 A 
ATOM     13  C   UNL     1      -3.149   3.951  -1.068  0.00  0.00    +0.013 A 
ATOM     14  C   UNL     1      -3.087   4.691  -2.233  0.00  0.00    +0.008 A 
ATOM     15  C   UNL     1      -3.398   4.093  -3.409  0.00  0.00    +0.045 A 
ATOM     16  S   UNL     1      -3.789   2.432  -2.887  0.00  0.00    -0.100 S 
ENDBRANCH  11  12
BRANCH   1  18
ATOM     17  N   UNL     1      -0.597   1.954   1.182  0.00  0.00    -0.315 N 
ATOM     18  C   UNL     1      -1.187   1.624   0.017  0.00  0.00    +0.223 C 
ATOM     19  O   UNL     1      -0.726   2.024  -1.031  0.00  0.00    -0.275 OA
ATOM     20  H   UNL     1      -1.004   1.692   2.023  0.00  0.00    +0.149 HD
BRANCH  17  21
ATOM     21  C   UNL     1       0.662   2.704   1.179  0.00  0.00    +0.102 C 
BRANCH  21  22
ATOM     22  C   UNL     1       1.117   2.941   2.621  0.00  0.00    +0.000 C 
BRANCH  22  23
ATOM     23  C   UNL     1       2.432   3.724   2.618  0.00  0.00    -0.077 C 
BRANCH  23  31
ATOM     24  C   UNL     1       1.376   5.867   6.917  0.00  0.00    +0.005 C 
ATOM     25  C   UNL     1       2.338   4.931   6.183  0.00  0.00    -0.031 C 
ATOM     26  C   UNL     1       3.763   5.485   6.279  0.00  0.00    +0.003 C 
ATOM     27  C   UNL     1       4.710   4.575   5.492  0.00  0.00    -0.031 C 
ATOM     28  C   UNL     1       4.236   4.488   4.040  0.00  0.00    -0.076 C 
ATOM     29  C   UNL     1       1.933   4.833   4.711  0.00  0.00    -0.076 C 
ATOM     30  C   UNL     1       6.126   5.154   5.533  0.00  0.00    +0.005 C 
ATOM     31  N   UNL     1       2.869   3.925   4.015  0.00  0.00    +0.380 N 
ATOM     32  H   UNL     1       2.873   3.018   4.496  0.00  0.00    -0.082 HD
ENDBRANCH  23  31
ENDBRANCH  22  23
ENDBRANCH  21  22
ENDBRANCH  17  21
ENDBRANCH   1  18
BRANCH  10  33
ATOM     33  C   UNL     1      -6.092   1.173   0.491  0.00  0.00    +0.111 C 
BRANCH  33  34
ATOM     34  C   UNL     1      -6.122   0.391   1.805  0.00  0.00    +0.000 C 
ATOM     35  C   UNL     1      -4.974   0.858   2.703  0.00  0.00    +0.009 C 
ATOM     36  C   UNL     1      -7.456   0.634   2.514  0.00  0.00    +0.009 C 
ENDBRANCH  33  34
ENDBRANCH  10  33
TORSDOF 8
