REMARK  Name = ZINC39695349
REMARK  6 active torsions:
REMARK  status: ('A' for Active; 'I' for Inactive)
REMARK    1  A    between atoms: C_1  and  C_2
REMARK    2  A    between atoms: C_2  and  C_3
REMARK    3  A    between atoms: C_3  and  C_5
REMARK    4  A    between atoms: C_3  and  N_11
REMARK    5  A    between atoms: C_12  and  C_14
REMARK    6  A    between atoms: C_25  and  C_27
REMARK                            x       y       z     vdW  Elec       q    Type
REMARK                         _______ _______ _______ _____ _____    ______ ____
ROOT
ATOM      1  C   UNL     1      -0.734   1.495  -4.268  0.00  0.00    +0.100 C 
ATOM      2  C   UNL     1      -2.241   1.389  -3.942  0.00  0.00    +0.121 C 
ATOM      3  N   UNL     1      -2.632   2.760  -3.535  0.00  0.00    -0.297 N 
ATOM      4  C   UNL     1      -1.888   3.646  -4.462  0.00  0.00    +0.115 C 
ATOM      5  C   UNL     1      -0.507   2.976  -4.612  0.00  0.00    -0.004 C 
ATOM      6  C   UNL     1       0.489   3.598  -3.639  0.00  0.00    -0.010 C 
ATOM      7  C   UNL     1       0.741   5.056  -4.036  0.00  0.00    -0.082 C 
ATOM      8  N   UNL     1       1.267   5.108  -5.405  0.00  0.00    +0.379 N 
ATOM      9  C   UNL     1       0.266   4.592  -6.346  0.00  0.00    -0.082 C 
ATOM     10  C   UNL     1      -0.007   3.115  -6.047  0.00  0.00    -0.010 C 
ATOM     11  C   UNL     1      -3.475   3.119  -2.547  0.00  0.00    +0.260 C 
ATOM     12  O   UNL     1      -3.936   2.276  -1.806  0.00  0.00    -0.271 OA
ATOM     13  H   UNL     1       1.490   6.063  -5.642  0.00  0.00    -0.086 HD
ATOM     14  H   UNL     1       2.103   4.546  -5.464  0.00  0.00    -0.086 HD
ENDROOT
BRANCH  11  15
ATOM     15  C   UNL     1      -3.844   4.568  -2.361  0.00  0.00    +0.296 C 
ATOM     16  C   UNL     1      -4.717   5.034  -3.535  0.00  0.00    +0.283 C 
ATOM     17  O   UNL     1      -5.061   6.407  -3.320  0.00  0.00    -0.484 OA
ATOM     18  C   UNL     1      -5.491   6.742  -2.073  0.00  0.00    +0.162 A 
ATOM     19  C   UNL     1      -6.173   7.936  -1.886  0.00  0.00    +0.049 A 
ATOM     20  C   UNL     1      -6.613   8.291  -0.625  0.00  0.00    +0.004 A 
ATOM     21  C   UNL     1      -6.376   7.459   0.452  0.00  0.00    +0.004 A 
ATOM     22  C   UNL     1      -5.699   6.267   0.273  0.00  0.00    +0.049 A 
ATOM     23  C   UNL     1      -5.255   5.904  -0.990  0.00  0.00    +0.163 A 
ATOM     24  O   UNL     1      -4.596   4.724  -1.153  0.00  0.00    -0.473 OA
ENDBRANCH  11  15
BRANCH   1  26
ATOM     25  N   UNL     1       1.306   0.544  -3.243  0.00  0.00    -0.308 N 
ATOM     26  C   UNL     1       0.091   1.102  -3.071  0.00  0.00    +0.219 C 
ATOM     27  O   UNL     1      -0.337   1.288  -1.951  0.00  0.00    -0.275 OA
ATOM     28  H   UNL     1       1.649   0.395  -4.138  0.00  0.00    +0.149 HD
BRANCH  25  29
ATOM     29  C   UNL     1       2.109   0.162  -2.078  0.00  0.00    +0.103 C 
BRANCH  29  30
ATOM     30  C   UNL     1       3.568   0.154  -2.455  0.00  0.00    -0.027 A 
ATOM     31  C   UNL     1       3.961  -0.333  -3.687  0.00  0.00    +0.005 A 
ATOM     32  C   UNL     1       5.300  -0.340  -4.032  0.00  0.00    +0.000 A 
ATOM     33  C   UNL     1       6.245   0.140  -3.145  0.00  0.00    +0.000 A 
ATOM     34  C   UNL     1       5.852   0.627  -1.913  0.00  0.00    +0.000 A 
ATOM     35  C   UNL     1       4.513   0.638  -1.569  0.00  0.00    +0.005 A 
ENDBRANCH  29  30
BRANCH  29  37
ATOM     36  C   UNL     1       0.249  -1.198  -1.111  0.00  0.00    +0.006 C 
ATOM     37  C   UNL     1       1.695  -1.235  -1.610  0.00  0.00    +0.024 C 
ENDBRANCH  29  37
ENDBRANCH  25  29
ENDBRANCH   1  26
TORSDOF 5
