REMARK  Name = ZINC52426236
REMARK  10 active torsions:
REMARK  status: ('A' for Active; 'I' for Inactive)
REMARK    1  A    between atoms: C_1  and  C_2
REMARK    2  A    between atoms: C_2  and  C_3
REMARK    3  A    between atoms: C_2  and  C_4
REMARK    4  A    between atoms: C_2  and  N_40
REMARK    5  A    between atoms: N_6  and  C_7
REMARK    6  A    between atoms: C_7  and  C_9
REMARK    7  A    between atoms: C_7  and  C_19
REMARK    8  A    between atoms: C_9  and  C_10
REMARK    9  A    between atoms: C_28  and  C_36
REMARK   10  A    between atoms: C_36  and  C_37
REMARK                            x       y       z     vdW  Elec       q    Type
REMARK                         _______ _______ _______ _____ _____    ______ ____
ROOT
ATOM      1  C   UNL     1      -4.528  -0.237  -1.264  0.00  0.00    +0.163 C 
ENDROOT
BRANCH   1   2
ATOM      2  C   UNL     1      -4.284  -1.610  -0.693  0.00  0.00    +0.236 C 
ATOM      3  O   UNL     1      -3.285  -1.826  -0.040  0.00  0.00    -0.274 OA
ATOM      4  N   UNL     1      -5.175  -2.598  -0.909  0.00  0.00    -0.300 N 
ATOM      5  C   UNL     1      -6.386  -2.353  -1.704  0.00  0.00    +0.108 C 
ATOM      6  C   UNL     1      -6.452  -3.387  -2.833  0.00  0.00    +0.030 C 
ATOM      7  C   UNL     1      -6.348  -4.790  -2.242  0.00  0.00    -0.001 C 
ATOM      8  C   UNL     1      -5.029  -4.963  -1.493  0.00  0.00    +0.030 C 
ATOM      9  C   UNL     1      -4.950  -3.942  -0.359  0.00  0.00    +0.108 C 
ATOM     10  C   UNL     1      -7.530  -5.048  -1.290  0.00  0.00    +0.020 C 
ATOM     11  C   UNL     1      -7.813  -6.550  -1.515  0.00  0.00    +0.031 C 
ATOM     12  C   UNL     1      -7.315  -6.843  -2.914  0.00  0.00    -0.040 A 
ATOM     13  C   UNL     1      -6.471  -5.829  -3.332  0.00  0.00    -0.038 A 
ATOM     14  C   UNL     1      -5.893  -5.888  -4.589  0.00  0.00    +0.004 A 
ATOM     15  C   UNL     1      -6.157  -6.955  -5.426  0.00  0.00    +0.000 A 
ATOM     16  C   UNL     1      -7.001  -7.967  -5.009  0.00  0.00    +0.000 A 
ATOM     17  C   UNL     1      -7.578  -7.910  -3.755  0.00  0.00    +0.004 A 
BRANCH  11  18
ATOM     18  C   UNL     1      -9.314  -6.829  -1.414  0.00  0.00    +0.133 C 
BRANCH  18  19
ATOM     19  C   UNL     1      -9.779  -6.571  -0.004  0.00  0.00    +0.357 C 
ATOM     20  O   UNL     1      -8.968  -6.304   0.866  0.00  0.00    -0.246 OA
ATOM     21  O   UNL     1     -10.966  -6.631   0.267  0.00  0.00    -0.246 OA
ENDBRANCH  18  19
ENDBRANCH  11  18
ENDBRANCH   1   2
BRANCH   1  24
ATOM     22  C   UNL     1      -2.572   0.738  -0.186  0.00  0.00    +0.202 C 
ATOM     23  O   UNL     1      -2.997   0.340   0.878  0.00  0.00    -0.277 OA
ATOM     24  N   UNL     1      -3.264   0.501  -1.319  0.00  0.00    -0.305 N 
ATOM     25  H   UNL     1      -2.925   0.820  -2.170  0.00  0.00    +0.149 HD
BRANCH  22  27
ATOM     26  C   UNL     1      -1.557   3.000  -0.208  0.00  0.00    -0.001 C 
ATOM     27  C   UNL     1      -1.272   1.497  -0.242  0.00  0.00    +0.001 C 
ATOM     28  C   UNL     1      -0.406   1.115   0.960  0.00  0.00    -0.001 C 
BRANCH  27  29
ATOM     29  N   UNL     1      -0.562   1.162  -1.484  0.00  0.00    +0.387 N 
ATOM     30  H   UNL     1       0.309   1.670  -1.521  0.00  0.00    -0.089 HD
ATOM     31  H   UNL     1      -0.374   0.171  -1.506  0.00  0.00    -0.089 HD
ATOM     32  H   UNL     1      -1.133   1.414  -2.276  0.00  0.00    -0.089 HD
ENDBRANCH  27  29
ENDBRANCH  22  27
ENDBRANCH   1  24
BRANCH   1  33
ATOM     33  C   UNL     1      -5.521   0.516  -0.376  0.00  0.00    +0.065 C 
BRANCH  33  34
ATOM     34  C   UNL     1      -5.859   1.840  -1.010  0.00  0.00    -0.039 C 
ATOM     35  C   UNL     1      -6.922   2.115  -1.801  0.00  0.00    -0.001 A 
ATOM     36  C   UNL     1      -8.037   1.294  -2.289  0.00  0.00    +0.010 A 
ATOM     37  C   UNL     1      -8.970   1.863  -3.086  0.00  0.00    +0.001 A 
ATOM     38  C   UNL     1      -8.899   3.212  -3.457  0.00  0.00    +0.002 A 
ATOM     39  C   UNL     1      -7.905   4.030  -3.048  0.00  0.00    +0.026 A 
ATOM     40  C   UNL     1      -6.870   3.537  -2.207  0.00  0.00    +0.043 A 
ATOM     41  N   UNL     1      -5.817   4.120  -1.687  0.00  0.00    -0.380 N 
ATOM     42  C   UNL     1      -5.083   3.132  -0.887  0.00  0.00    +0.144 C 
ATOM     43  H   UNL     1      -5.566   5.049  -1.808  0.00  0.00    +0.160 HD
ENDBRANCH  33  34
ENDBRANCH   1  33
TORSDOF 8
