REMARK  Name = ZINC11393240
REMARK  7 active torsions:
REMARK  status: ('A' for Active; 'I' for Inactive)
REMARK    1  A    between atoms: C_2  and  C_3
REMARK    2  A    between atoms: C_3  and  N_4
REMARK    3  A    between atoms: C_8  and  S_10
REMARK    4  A    between atoms: S_10  and  C_11
REMARK    5  A    between atoms: C_11  and  C_12
REMARK    6  A    between atoms: C_15  and  C_25
REMARK    7  A    between atoms: C_18  and  C_20
REMARK                            x       y       z     vdW  Elec       q    Type
REMARK                         _______ _______ _______ _____ _____    ______ ____
ROOT
ATOM      1  C   UNL     1      -0.058  -4.626  -0.021  0.00  0.00    +0.246 C 
ATOM      2  O   UNL     1       1.040  -5.142  -0.033  0.00  0.00    -0.273 OA
ATOM      3  N   UNL     1      -1.165  -5.395  -0.014  0.00  0.00    -0.184 N 
ATOM      4  C   UNL     1      -1.184  -6.866  -0.027  0.00  0.00    +0.143 C 
ATOM      5  C   UNL     1      -2.687  -7.210  -0.010  0.00  0.00    +0.088 C 
ATOM      6  C   UNL     1      -3.369  -5.860   0.003  0.00  0.00    +0.075 C 
ATOM      7  N   UNL     1      -2.477  -4.927   0.000  0.00  0.00    -0.180 NA
ENDROOT
BRANCH   6   8
ATOM      8  C   UNL     1      -4.819  -5.645   0.018  0.00  0.00    +0.035 A 
ATOM      9  C   UNL     1      -5.525  -4.455   0.036  0.00  0.00    +0.017 A 
ATOM     10  C   UNL     1      -6.899  -4.509   0.043  0.00  0.00    +0.008 A 
ATOM     11  C   UNL     1      -7.517  -5.720   0.043  0.00  0.00    +0.046 A 
ATOM     12  S   UNL     1      -6.136  -6.851   0.025  0.00  0.00    -0.095 S 
ENDBRANCH   6   8
BRANCH   4  13
ATOM     13  C   UNL     1      -0.531  -7.394  -1.279  0.00  0.00    +0.013 A 
ATOM     14  C   UNL     1       0.277  -8.471  -1.431  0.00  0.00    +0.013 A 
ATOM     15  C   UNL     1       0.763  -8.772  -2.689  0.00  0.00    +0.008 A 
ATOM     16  C   UNL     1       0.425  -7.975  -3.732  0.00  0.00    +0.045 A 
ATOM     17  S   UNL     1      -0.617  -6.758  -2.945  0.00  0.00    -0.100 S 
ENDBRANCH   4  13
BRANCH   1  18
ATOM     18  C   UNL     1      -0.184  -3.124  -0.012  0.00  0.00    +0.174 C 
BRANCH  18  19
ATOM     19  S   UNL     1       1.470  -2.378  -0.024  0.00  0.00    -0.088 S 
BRANCH  19  24
ATOM     20  N   UNL     1       1.328   3.417   0.007  0.00  0.00    -0.319 N 
ATOM     21  C   UNL     1       1.118   2.043   0.002  0.00  0.00    +0.183 A 
ATOM     22  N   UNL     1      -0.017   1.371   0.010  0.00  0.00    -0.125 NA
ATOM     23  N   UNL     1       0.002  -0.004   0.002  0.00  0.00    -0.133 NA
ATOM     24  C   UNL     1       1.155  -0.645  -0.012  0.00  0.00    +0.160 A 
ATOM     25  S   UNL     1       2.313   0.716  -0.016  0.00  0.00    -0.025 S 
ATOM     26  H   UNL     1       2.232   3.770  -0.000  0.00  0.00    +0.148 HD
BRANCH  20  27
ATOM     27  C   UNL     1       0.184   4.333   0.022  0.00  0.00    +0.130 C 
BRANCH  27  29
ATOM     28  C   UNL     1       0.273   6.593  -0.897  0.00  0.00    +0.005 C 
ATOM     29  C   UNL     1       0.681   5.756   0.024  0.00  0.00    -0.016 C 
ENDBRANCH  27  29
ENDBRANCH  20  27
ENDBRANCH  19  24
ENDBRANCH  18  19
ENDBRANCH   1  18
TORSDOF 7
