REMARK  Name = ZINC12303184
REMARK  10 active torsions:
REMARK  status: ('A' for Active; 'I' for Inactive)
REMARK    1  A    between atoms: C_1  and  N_59
REMARK    2  A    between atoms: C_2  and  C_3
REMARK    3  A    between atoms: C_2  and  N_59
REMARK    4  A    between atoms: C_9  and  C_10
REMARK    5  A    between atoms: C_9  and  N_59
REMARK    6  A    between atoms: C_13  and  S_22
REMARK    7  A    between atoms: N_14  and  C_15
REMARK    8  A    between atoms: C_15  and  C_16
REMARK    9  A    between atoms: S_22  and  C_25
REMARK   10  A    between atoms: C_25  and  C_26
REMARK                            x       y       z     vdW  Elec       q    Type
REMARK                         _______ _______ _______ _____ _____    ______ ____
ROOT
ATOM      1  C   UNL     1       0.447  -2.650  -3.701  0.00  0.00    +0.023 A 
ATOM      2  C   UNL     1       1.254  -3.173  -4.644  0.00  0.00    +0.133 A 
ATOM      3  N   UNL     1       2.485  -3.281  -4.122  0.00  0.00    -0.220 NA
ATOM      4  C   UNL     1       2.472  -2.840  -2.894  0.00  0.00    +0.251 A 
ATOM      5  N   UNL     1       1.220  -2.433  -2.593  0.00  0.00    -0.315 N 
ENDROOT
BRANCH   4   6
ATOM      6  S   UNL     1       3.859  -2.784  -1.809  0.00  0.00    +0.030 S 
ATOM      7  O   UNL     1       4.967  -2.494  -2.651  0.00  0.00    -0.166 OA
ATOM      8  O   UNL     1       3.477  -1.883  -0.778  0.00  0.00    -0.166 OA
BRANCH   6   9
ATOM      9  C   UNL     1       4.002  -4.467  -1.147  0.00  0.00    +0.179 C 
BRANCH   9  10
ATOM     10  C   UNL     1       5.187  -4.536  -0.181  0.00  0.00    +0.011 C 
ATOM     11  C   UNL     1       6.352  -5.453  -0.558  0.00  0.00    +0.005 C 
ATOM     12  C   UNL     1       5.405  -5.848   0.576  0.00  0.00    +0.005 C 
ENDBRANCH   9  10
ENDBRANCH   6   9
ENDBRANCH   4   6
BRANCH   1  13
ATOM     13  C   UNL     1      -1.025  -2.357  -3.840  0.00  0.00    -0.023 C 
BRANCH  13  15
ATOM     14  C   UNL     1      -1.610  -3.635  -1.868  0.00  0.00    -0.095 C 
ATOM     15  N   UNL     1      -1.792  -3.513  -3.330  0.00  0.00    +0.385 N 
ATOM     16  H   UNL     1      -1.446  -4.368  -3.782  0.00  0.00    -0.081 HD
BRANCH  15  17
ATOM     17  C   UNL     1      -3.226  -3.348  -3.649  0.00  0.00    -0.023 C 
BRANCH  17  18
ATOM     18  C   UNL     1      -3.947  -4.629  -3.318  0.00  0.00    +0.020 A 
ATOM     19  C   UNL     1      -4.608  -4.899  -2.169  0.00  0.00    +0.042 A 
ATOM     20  C   UNL     1      -5.134  -6.192  -2.268  0.00  0.00    +0.134 A 
ATOM     21  N   UNL     1      -4.800  -6.680  -3.435  0.00  0.00    -0.182 NA
ATOM     22  N   UNL     1      -4.055  -5.711  -4.119  0.00  0.00    -0.283 N 
ATOM     23  H   UNL     1      -3.671  -5.803  -5.037  0.00  0.00    +0.188 HD
ENDBRANCH  17  18
ENDBRANCH  15  17
ENDBRANCH  13  15
ENDBRANCH   1  13
BRANCH   5  24
ATOM     24  C   UNL     1       0.772  -1.871  -1.316  0.00  0.00    +0.128 C 
BRANCH  24  25
ATOM     25  C   UNL     1       0.740  -0.345  -1.415  0.00  0.00    +0.009 C 
ATOM     26  C   UNL     1       0.135   0.236  -0.135  0.00  0.00    +0.005 C 
ATOM     27  C   UNL     1       0.102   1.763  -0.233  0.00  0.00    +0.000 C 
ATOM     28  C   UNL     1       1.527   2.293  -0.410  0.00  0.00    +0.000 C 
ATOM     29  C   UNL     1       2.131   1.712  -1.690  0.00  0.00    +0.000 C 
ATOM     30  C   UNL     1       2.164   0.185  -1.592  0.00  0.00    +0.005 C 
ENDBRANCH  24  25
ENDBRANCH   5  24
TORSDOF 9
