REMARK  Name = ZINC13065444
REMARK  8 active torsions:
REMARK  status: ('A' for Active; 'I' for Inactive)
REMARK    1  A    between atoms: C_1  and  C_2
REMARK    2  A    between atoms: C_9  and  C_14
REMARK    3  A    between atoms: C_14  and  N_63
REMARK    4  A    between atoms: C_15  and  C_16
REMARK    5  A    between atoms: C_15  and  N_63
REMARK    6  A    between atoms: C_23  and  C_24
REMARK    7  A    between atoms: C_23  and  N_63
REMARK    8  A    between atoms: N_28  and  C_29
REMARK                            x       y       z     vdW  Elec       q    Type
REMARK                         _______ _______ _______ _____ _____    ______ ____
ROOT
ATOM      1  N   UNL     1      -0.660  -3.003  -1.709  0.00  0.00    +0.390 N 
ATOM      2  H   UNL     1      -0.098  -3.006  -0.850  0.00  0.00    -0.080 HD
ENDROOT
BRANCH   1   3
ATOM      3  C   UNL     1       0.228  -3.249  -2.864  0.00  0.00    -0.036 C 
BRANCH   3  12
ATOM      4  C   UNL     1       7.267  -2.587  -0.492  0.00  0.00    +0.044 C 
ATOM      5  C   UNL     1       6.043  -2.007  -1.151  0.00  0.00    -0.050 A 
ATOM      6  C   UNL     1       6.063  -0.696  -1.609  0.00  0.00    +0.005 A 
ATOM      7  C   UNL     1       4.955  -0.145  -2.215  0.00  0.00    +0.026 A 
ATOM      8  C   UNL     1       3.802  -0.909  -2.370  0.00  0.00    +0.049 A 
ATOM      9  C   UNL     1       3.785  -2.237  -1.905  0.00  0.00    -0.001 A 
ATOM     10  C   UNL     1       4.922  -2.775  -1.293  0.00  0.00    +0.013 A 
ATOM     11  C   UNL     1       2.568  -3.033  -2.074  0.00  0.00    +0.017 A 
ATOM     12  C   UNL     1       1.496  -2.458  -2.675  0.00  0.00    +0.001 A 
ATOM     13  C   UNL     1       1.567  -1.123  -3.129  0.00  0.00    +0.251 A 
ATOM     14  O   UNL     1       0.595  -0.628  -3.671  0.00  0.00    -0.268 OA
ATOM     15  N   UNL     1       2.679  -0.383  -2.973  0.00  0.00    -0.322 N 
ATOM     16  H   UNL     1       2.692   0.532  -3.293  0.00  0.00    +0.169 HD
ENDBRANCH   3  12
ENDBRANCH   1   3
BRANCH   1  17
ATOM     17  C   UNL     1      -1.680  -4.070  -1.619  0.00  0.00    -0.040 C 
BRANCH  17  18
ATOM     18  C   UNL     1      -1.017  -5.334  -1.134  0.00  0.00    -0.046 A 
ATOM     19  C   UNL     1      -0.768  -6.367  -2.018  0.00  0.00    +0.003 A 
ATOM     20  C   UNL     1      -0.156  -7.524  -1.574  0.00  0.00    +0.000 A 
ATOM     21  C   UNL     1       0.198  -7.653  -0.243  0.00  0.00    +0.001 A 
ATOM     22  C   UNL     1      -0.055  -6.623   0.642  0.00  0.00    +0.020 A 
ATOM     23  C   UNL     1      -0.663  -5.462   0.197  0.00  0.00    +0.042 A 
ATOM     24 CL   UNL     1      -0.983  -4.168   1.309  0.00  0.00    -0.083 Cl
ENDBRANCH  17  18
ENDBRANCH   1  17
BRANCH   1  25
ATOM     25  C   UNL     1      -1.318  -1.687  -1.848  0.00  0.00    +0.001 C 
BRANCH  25  26
ATOM     26  C   UNL     1      -2.039  -1.365  -0.565  0.00  0.00    +0.135 A 
ATOM     27  N   UNL     1      -3.283  -1.656  -0.272  0.00  0.00    -0.115 NA
ATOM     28  N   UNL     1      -3.526  -1.217   0.914  0.00  0.00    -0.023 NA
ATOM     29  N   UNL     1      -2.468  -0.659   1.389  0.00  0.00    -0.044 NA
ATOM     30  N   UNL     1      -1.530  -0.725   0.504  0.00  0.00    -0.228 N 
BRANCH  30  31
ATOM     31  C   UNL     1      -0.167  -0.206   0.640  0.00  0.00    +0.111 C 
ATOM     32  C   UNL     1      -0.218   1.306   0.871  0.00  0.00    +0.027 C 
ATOM     33  C   UNL     1       1.206   1.847   1.013  0.00  0.00    +0.002 C 
ATOM     34  C   UNL     1       1.892   1.173   2.203  0.00  0.00    +0.000 C 
ATOM     35  C   UNL     1       1.942  -0.339   1.972  0.00  0.00    +0.002 C 
ATOM     36  C   UNL     1       0.519  -0.881   1.830  0.00  0.00    +0.027 C 
ENDBRANCH  30  31
ENDBRANCH  25  26
ENDBRANCH   1  25
TORSDOF 7
