REMARK  Name = ZINC09835598
REMARK  2 active torsions:
REMARK  status: ('A' for Active; 'I' for Inactive)
REMARK    1  A    between atoms: C_4  and  C_7
REMARK    2  A    between atoms: C_12  and  C_15
REMARK                            x       y       z     vdW  Elec       q    Type
REMARK                         _______ _______ _______ _____ _____    ______ ____
ROOT
ATOM      1  C   UNL     1       1.169   3.509   0.010  0.00  0.00    +0.270 C 
ATOM      2  O   UNL     1       0.111   4.106   0.023  0.00  0.00    -0.268 OA
ATOM      3  N   UNL     1       2.330   4.194   0.002  0.00  0.00    -0.259 N 
ATOM      4  C   UNL     1       2.317   5.582   0.010  0.00  0.00    +0.165 A 
ATOM      5  N   UNL     1       3.335   6.421   0.010  0.00  0.00    -0.229 NA
ATOM      6  C   UNL     1       3.145   7.726   0.014  0.00  0.00    +0.057 A 
ATOM      7  C   UNL     1       1.873   8.194   0.029  0.00  0.00    +0.072 A 
ATOM      8  S   UNL     1       0.955   6.660   0.029  0.00  0.00    -0.060 S 
ATOM      9  H   UNL     1       3.175   3.717  -0.008  0.00  0.00    +0.157 HD
ENDROOT
BRANCH   6  10
ATOM     10  C   UNL     1       4.315   8.675   0.008  0.00  0.00    +0.014 C 
ATOM     11  C   UNL     1       4.079   9.783   1.037  0.00  0.00    +0.016 C 
ATOM     12  C   UNL     1       5.267  10.746   1.031  0.00  0.00    -0.010 C 
ATOM     13  C   UNL     1       6.545   9.983   1.387  0.00  0.00    +0.007 C 
ATOM     14  C   UNL     1       6.781   8.876   0.358  0.00  0.00    -0.010 C 
ATOM     15  C   UNL     1       5.593   7.912   0.365  0.00  0.00    +0.016 C 
ATOM     16  C   UNL     1       6.928   9.495  -1.033  0.00  0.00    +0.007 C 
ATOM     17  C   UNL     1       5.651  10.258  -1.389  0.00  0.00    -0.010 C 
ATOM     18  C   UNL     1       5.415  11.366  -0.361  0.00  0.00    +0.007 C 
ATOM     19  C   UNL     1       4.463   9.294  -1.383  0.00  0.00    +0.016 C 
ENDBRANCH   6  10
BRANCH   1  23
ATOM     20  C   UNL     1       1.154  -0.650  -0.013  0.00  0.00    +0.130 A 
ATOM     21  C   UNL     1       2.350   0.054  -0.020  0.00  0.00    +0.131 A 
ATOM     22  N   UNL     1       2.341   1.372  -0.013  0.00  0.00    -0.247 NA
ATOM     23  C   UNL     1       1.184   2.028   0.002  0.00  0.00    +0.144 A 
ATOM     24  C   UNL     1      -0.016   1.317   0.009  0.00  0.00    +0.143 A 
ATOM     25  N   UNL     1       0.002  -0.004   0.002  0.00  0.00    -0.259 NA
ENDBRANCH   1  23
TORSDOF 2
