REMARK  Name = ZINC02613811
REMARK  10 active torsions:
REMARK  status: ('A' for Active; 'I' for Inactive)
REMARK    1  A    between atoms: C_1  and  C_2
REMARK    2  A    between atoms: C_2  and  C_3
REMARK    3  A    between atoms: C_7  and  C_33
REMARK    4  A    between atoms: C_8  and  N_9
REMARK    5  A    between atoms: C_10  and  C_12
REMARK    6  A    between atoms: C_12  and  C_14
REMARK    7  A    between atoms: C_12  and  S_15
REMARK    8  A    between atoms: S_15  and  C_16
REMARK    9  A    between atoms: C_19  and  O_20
REMARK   10  A    between atoms: C_22  and  C_27
REMARK                            x       y       z     vdW  Elec       q    Type
REMARK                         _______ _______ _______ _____ _____    ______ ____
ROOT
ATOM      1  C   UNL     1       7.190   5.253  -2.030  0.00  0.00    +0.193 A 
ATOM      2  N   UNL     1       7.604   6.325  -2.766  0.00  0.00    -0.187 NA
ATOM      3  C   UNL     1       8.912   6.553  -2.990  0.00  0.00    +0.225 A 
ATOM      4  C   UNL     1       9.880   5.663  -2.432  0.00  0.00    +0.077 A 
ATOM      5  C   UNL     1      11.336   5.707  -2.528  0.00  0.00    +0.003 A 
ATOM      6  C   UNL     1      12.059   4.738  -1.919  0.00  0.00    +0.056 A 
ATOM      7  S   UNL     1      10.815   3.694  -1.184  0.00  0.00    -0.076 S 
ATOM      8  C   UNL     1       9.366   4.582  -1.695  0.00  0.00    +0.117 A 
ATOM      9  N   UNL     1       8.062   4.410  -1.515  0.00  0.00    -0.214 NA
ENDROOT
BRANCH   5  10
ATOM     10  C   UNL     1      12.010   6.794  -3.277  0.00  0.00    -0.017 A 
ATOM     11  C   UNL     1      11.608   7.102  -4.576  0.00  0.00    +0.008 A 
ATOM     12  C   UNL     1      12.236   8.118  -5.267  0.00  0.00    +0.001 A 
ATOM     13  C   UNL     1      13.270   8.823  -4.678  0.00  0.00    +0.000 A 
ATOM     14  C   UNL     1      13.677   8.518  -3.392  0.00  0.00    +0.001 A 
ATOM     15  C   UNL     1      13.053   7.508  -2.688  0.00  0.00    +0.008 A 
ENDBRANCH   5  10
BRANCH   3  17
ATOM     16  H   UNL     1      10.264   7.531  -3.708  0.00  0.00    +0.294 HD
ATOM     17  O   UNL     1       9.266   7.519  -3.644  0.00  0.00    -0.492 OA
ENDBRANCH   3  17
BRANCH   1  18
ATOM     18  S   UNL     1       5.468   4.994  -1.764  0.00  0.00    -0.073 S 
BRANCH  18  19
ATOM     19  C   UNL     1       5.526   3.474  -0.784  0.00  0.00    +0.137 C 
ATOM     20  C   UNL     1       6.213   3.755   0.554  0.00  0.00    +0.029 C 
BRANCH  19  22
ATOM     21  N   UNL     1       3.910   1.697  -0.192  0.00  0.00    -0.284 N 
ATOM     22  C   UNL     1       4.123   2.983  -0.534  0.00  0.00    +0.230 C 
ATOM     23  O   UNL     1       3.186   3.746  -0.641  0.00  0.00    -0.274 OA
ATOM     24  H   UNL     1       4.662   1.105  -0.036  0.00  0.00    +0.155 HD
BRANCH  21  30
ATOM     25  C   UNL     1       2.196   0.616   1.122  0.00  0.00    -0.026 A 
ATOM     26  C   UNL     1       0.904   0.142   1.247  0.00  0.00    +0.005 A 
ATOM     27  C   UNL     1       0.017   0.262   0.193  0.00  0.00    +0.001 A 
ATOM     28  C   UNL     1       0.419   0.859  -0.988  0.00  0.00    +0.005 A 
ATOM     29  C   UNL     1       1.708   1.335  -1.119  0.00  0.00    -0.029 A 
ATOM     30  C   UNL     1       2.603   1.215  -0.063  0.00  0.00    +0.040 A 
ATOM     31  C   UNL     1       2.146   1.985  -2.407  0.00  0.00    +0.045 C 
BRANCH  25  33
ATOM     32  C   UNL     1       3.157   1.774   3.093  0.00  0.00    +0.009 C 
ATOM     33  C   UNL     1       3.162   0.484   2.271  0.00  0.00    +0.033 C 
ENDBRANCH  25  33
ENDBRANCH  21  30
ENDBRANCH  19  22
ENDBRANCH  18  19
ENDBRANCH   1  18
TORSDOF 7
