REMARK  Name = ZINC39691345
REMARK  8 active torsions:
REMARK  status: ('A' for Active; 'I' for Inactive)
REMARK    1  A    between atoms: C_1  and  C_2
REMARK    2  A    between atoms: C_2  and  C_8
REMARK    3  A    between atoms: C_12  and  C_21
REMARK    4  A    between atoms: N_23  and  C_24
REMARK    5  A    between atoms: C_24  and  C_25
REMARK    6  A    between atoms: C_25  and  N_26
REMARK    7  A    between atoms: C_27  and  C_29
REMARK    8  A    between atoms: C_29  and  C_30
REMARK                            x       y       z     vdW  Elec       q    Type
REMARK                         _______ _______ _______ _____ _____    ______ ____
ROOT
ATOM      1  C   UNL     1      -1.053  -0.048  -0.190  0.00  0.00    +0.222 C 
ATOM      2  O   UNL     1      -1.381  -0.632   0.822  0.00  0.00    -0.275 OA
ATOM      3  N   UNL     1      -1.950   0.145  -1.177  0.00  0.00    -0.300 N 
ATOM      4  C   UNL     1      -1.713   0.729  -2.518  0.00  0.00    +0.121 C 
ATOM      5  C   UNL     1      -2.579  -0.123  -3.473  0.00  0.00    +0.100 C 
ATOM      6  C   UNL     1      -3.683  -0.714  -2.580  0.00  0.00    -0.004 C 
ATOM      7  C   UNL     1      -3.396  -0.184  -1.168  0.00  0.00    +0.115 C 
ATOM      8  C   UNL     1      -3.611  -2.237  -2.590  0.00  0.00    -0.010 C 
ATOM      9  C   UNL     1      -4.753  -2.803  -1.742  0.00  0.00    -0.082 C 
ATOM     10  N   UNL     1      -6.040  -2.350  -2.285  0.00  0.00    +0.379 N 
ATOM     11  C   UNL     1      -6.138  -0.889  -2.187  0.00  0.00    -0.082 C 
ATOM     12  C   UNL     1      -5.054  -0.242  -3.054  0.00  0.00    -0.010 C 
ATOM     13  H   UNL     1      -6.110  -2.626  -3.253  0.00  0.00    -0.086 HD
ATOM     14  H   UNL     1      -6.792  -2.773  -1.762  0.00  0.00    -0.086 HD
ENDROOT
BRANCH   1  16
ATOM     15  C   UNL     1       1.066  -0.328  -1.446  0.00  0.00    +0.021 C 
ATOM     16  C   UNL     1       0.357   0.460  -0.343  0.00  0.00    +0.044 C 
ATOM     17  C   UNL     1       1.110   0.280   0.977  0.00  0.00    +0.016 C 
ATOM     18  C   UNL     1       0.401   1.068   2.080  0.00  0.00    +0.001 C 
ATOM     19  C   UNL     1       0.371   2.552   1.708  0.00  0.00    +0.000 C 
ATOM     20  C   UNL     1      -0.382   2.732   0.389  0.00  0.00    +0.001 C 
ATOM     21  C   UNL     1       0.327   1.944  -0.715  0.00  0.00    +0.016 C 
ENDBRANCH   1  16
BRANCH   5  22
ATOM     22  C   UNL     1      -1.753  -1.223  -4.088  0.00  0.00    +0.218 C 
ATOM     23  O   UNL     1      -0.865  -1.745  -3.449  0.00  0.00    -0.275 OA
ATOM     24  N   UNL     1      -2.002  -1.627  -5.350  0.00  0.00    -0.314 N 
ATOM     25  H   UNL     1      -2.712  -1.210  -5.862  0.00  0.00    +0.149 HD
BRANCH  24  26
ATOM     26  C   UNL     1      -1.199  -2.697  -5.948  0.00  0.00    +0.123 C 
BRANCH  26  27
ATOM     27  C   UNL     1      -1.683  -2.960  -7.375  0.00  0.00    +0.123 C 
BRANCH  27  28
ATOM     28  N   UNL     1      -0.881  -4.030  -7.974  0.00  0.00    -0.314 N 
ATOM     29  C   UNL     1      -1.130  -4.434  -9.235  0.00  0.00    +0.217 C 
ATOM     30  O   UNL     1      -2.018  -3.912  -9.875  0.00  0.00    -0.275 OA
ATOM     31  H   UNL     1      -0.171  -4.447  -7.462  0.00  0.00    +0.149 HD
BRANCH  29  32
ATOM     32  C   UNL     1      -0.304  -5.534  -9.851  0.00  0.00    +0.131 C 
BRANCH  32  33
ATOM     33  C   UNL     1      -0.781  -5.794 -11.256  0.00  0.00    -0.031 A 
ATOM     34  C   UNL     1      -1.690  -6.777 -11.500  0.00  0.00    +0.005 A 
ATOM     35  C   UNL     1      -2.143  -7.032 -12.793  0.00  0.00    +0.001 A 
ATOM     36  C   UNL     1      -1.689  -6.305 -13.850  0.00  0.00    +0.008 A 
ATOM     37  C   UNL     1      -0.750  -5.282 -13.638  0.00  0.00    -0.018 A 
ATOM     38  C   UNL     1      -0.294  -5.018 -12.322  0.00  0.00    -0.014 A 
ATOM     39  C   UNL     1       0.641  -3.990 -12.109  0.00  0.00    +0.009 A 
ATOM     40  C   UNL     1       1.090  -3.260 -13.165  0.00  0.00    +0.001 A 
ATOM     41  C   UNL     1       0.637  -3.514 -14.459  0.00  0.00    +0.001 A 
ATOM     42  C   UNL     1      -0.258  -4.510 -14.705  0.00  0.00    +0.008 A 
ENDBRANCH  32  33
ENDBRANCH  29  32
ENDBRANCH  27  28
ENDBRANCH  26  27
ENDBRANCH  24  26
ENDBRANCH   5  22
TORSDOF 7
