REMARK  Name = ZINC15319056
REMARK  4 active torsions:
REMARK  status: ('A' for Active; 'I' for Inactive)
REMARK    1  A    between atoms: C_6  and  C_7
REMARK    2  A    between atoms: C_10  and  C_36
REMARK    3  A    between atoms: C_14  and  C_17
REMARK    4  A    between atoms: N_22  and  C_25
REMARK                            x       y       z     vdW  Elec       q    Type
REMARK                         _______ _______ _______ _____ _____    ______ ____
ROOT
ATOM      1  C   UNL     1       1.152  -0.637   0.262  0.00  0.00    +0.104 C 
ATOM      2  C   UNL     1       0.412  -0.622  -1.081  0.00  0.00    +0.063 C 
ATOM      3  C   UNL     1       0.633  -1.952  -1.811  0.00  0.00    +0.215 C 
ATOM      4  N   UNL     1       0.353  -3.053  -0.885  0.00  0.00    -0.238 N 
ATOM      5  C   UNL     1       0.332  -2.914   0.462  0.00  0.00    +0.130 A 
ATOM      6  C   UNL     1       0.034  -4.150   1.005  0.00  0.00    +0.096 A 
ATOM      7  C   UNL     1      -0.124  -5.046  -0.082  0.00  0.00    +0.149 A 
ATOM      8  N   UNL     1       0.068  -4.383  -1.190  0.00  0.00    -0.177 NA
ATOM      9  N   UNL     1       0.582  -1.708   1.102  0.00  0.00    -0.322 N 
ATOM     10  H   UNL     1       0.392  -1.574   2.044  0.00  0.00    +0.148 HD
ENDROOT
BRANCH   6  11
ATOM     11  C   UNL     1      -0.095  -4.472   2.431  0.00  0.00    +0.251 C 
ATOM     12  O   UNL     1      -0.601  -3.670   3.193  0.00  0.00    -0.270 OA
ATOM     13  N   UNL     1       0.349  -5.657   2.897  0.00  0.00    -0.301 N 
ATOM     14  C   UNL     1       1.072  -6.591   2.021  0.00  0.00    +0.089 C 
ATOM     15  C   UNL     1       2.363  -7.018   2.727  0.00  0.00    -0.059 C 
ATOM     16  N   UNL     1       2.039  -7.558   4.053  0.00  0.00    +0.385 N 
ATOM     17  C   UNL     1       1.459  -6.503   4.894  0.00  0.00    -0.059 C 
ATOM     18  C   UNL     1       0.128  -6.049   4.298  0.00  0.00    +0.089 C 
ATOM     19  H   UNL     1       1.376  -8.312   3.955  0.00  0.00    -0.081 HD
BRANCH  16  20
ATOM     20  C   UNL     1       3.264  -8.068   4.685  0.00  0.00    -0.065 C 
ATOM     21  C   UNL     1       4.275  -6.928   4.830  0.00  0.00    -0.009 C 
ATOM     22  C   UNL     1       5.551  -7.459   5.487  0.00  0.00    -0.012 C 
ATOM     23  C   UNL     1       5.215  -8.022   6.870  0.00  0.00    +0.007 C 
ATOM     24  C   UNL     1       4.204  -9.161   6.725  0.00  0.00    -0.012 C 
ATOM     25  C   UNL     1       2.929  -8.631   6.067  0.00  0.00    -0.009 C 
ATOM     26  C   UNL     1       4.804 -10.268   5.855  0.00  0.00    +0.007 C 
ATOM     27  C   UNL     1       5.139  -9.705   4.473  0.00  0.00    -0.012 C 
ATOM     28  C   UNL     1       6.150  -8.566   4.618  0.00  0.00    +0.007 C 
ATOM     29  C   UNL     1       3.864  -9.174   3.815  0.00  0.00    -0.009 C 
ENDBRANCH  16  20
ENDBRANCH   6  11
BRANCH   1  35
ATOM     30  C   UNL     1       3.518   0.147   0.042  0.00  0.00    +0.008 A 
ATOM     31  C   UNL     1       4.862  -0.094  -0.170  0.00  0.00    +0.038 A 
ATOM     32  C   UNL     1       5.306  -1.385  -0.397  0.00  0.00    +0.123 A 
ATOM     33  C   UNL     1       4.403  -2.435  -0.409  0.00  0.00    +0.038 A 
ATOM     34  C   UNL     1       3.059  -2.191  -0.196  0.00  0.00    +0.008 A 
ATOM     35  C   UNL     1       2.617  -0.901   0.029  0.00  0.00    -0.027 A 
ATOM     36  F   UNL     1       6.620  -1.622  -0.605  0.00  0.00    -0.205 F 
ENDBRANCH   1  35
BRANCH   3  37
ATOM     37  C   UNL     1      -0.307  -2.038  -3.015  0.00  0.00    +0.412 C 
ATOM     38  F   UNL     1      -0.044  -0.978  -3.889  0.00  0.00    -0.168 F 
ATOM     39  F   UNL     1      -0.103  -3.252  -3.679  0.00  0.00    -0.168 F 
ATOM     40  F   UNL     1      -1.633  -1.964  -2.577  0.00  0.00    -0.168 F 
ENDBRANCH   3  37
TORSDOF 4
