REMARK  Name = ZINC22928484
REMARK  13 active torsions:
REMARK  status: ('A' for Active; 'I' for Inactive)
REMARK    1  A    between atoms: C_1  and  C_2
REMARK    2  A    between atoms: C_2  and  C_3
REMARK    3  A    between atoms: C_3  and  C_5
REMARK    4  A    between atoms: C_3  and  N_15
REMARK    5  A    between atoms: N_9  and  C_10
REMARK    6  A    between atoms: N_15  and  C_16
REMARK    7  A    between atoms: N_15  and  C_24
REMARK    8  A    between atoms: C_16  and  C_17
REMARK    9  A    between atoms: C_17  and  N_18
REMARK   10  A    between atoms: C_24  and  C_25
REMARK   11  A    between atoms: C_29  and  O_37
REMARK   12  A    between atoms: O_37  and  C_38
REMARK   13  A    between atoms: C_38  and  C_39
REMARK                            x       y       z     vdW  Elec       q    Type
REMARK                         _______ _______ _______ _____ _____    ______ ____
ROOT
ATOM      1  N   UNL     1      -0.002  -0.269  -2.556  0.00  0.00    +0.390 N 
ATOM      2  H   UNL     1      -0.983  -0.492  -2.482  0.00  0.00    -0.080 HD
ENDROOT
BRANCH   1   3
ATOM      3  C   UNL     1       0.684  -0.657  -1.317  0.00  0.00    +0.003 C 
BRANCH   3   4
ATOM      4  C   UNL     1       2.138  -0.268  -1.405  0.00  0.00    +0.138 A 
ATOM      5  N   UNL     1       2.935  -0.449  -2.429  0.00  0.00    -0.115 NA
ATOM      6  N   UNL     1       4.096   0.016  -2.116  0.00  0.00    -0.023 NA
ATOM      7  N   UNL     1       4.059   0.488  -0.919  0.00  0.00    -0.044 NA
ATOM      8  N   UNL     1       2.867   0.337  -0.449  0.00  0.00    -0.228 N 
BRANCH   8   9
ATOM      9  C   UNL     1       2.397   0.743   0.878  0.00  0.00    +0.111 C 
ATOM     10  C   UNL     1       2.625   2.255   1.080  0.00  0.00    +0.027 C 
ATOM     11  C   UNL     1       3.029   2.383   2.569  0.00  0.00    +0.002 C 
ATOM     12  C   UNL     1       3.908   1.128   2.794  0.00  0.00    +0.002 C 
ATOM     13  C   UNL     1       3.213   0.026   1.968  0.00  0.00    +0.027 C 
ENDBRANCH   8   9
ENDBRANCH   3   4
BRANCH   3  15
ATOM     14  C   UNL     1      -0.900  -2.555  -0.960  0.00  0.00    +0.002 C 
ATOM     15  C   UNL     1       0.572  -2.170  -1.124  0.00  0.00    -0.011 C 
ENDBRANCH   3  15
ENDBRANCH   1   3
BRANCH   1  16
ATOM     16  C   UNL     1       0.156   1.176  -2.772  0.00  0.00    -0.062 C 
BRANCH  16  17
ATOM     17  C   UNL     1      -0.551   1.939  -1.651  0.00  0.00    +0.066 C 
BRANCH  17  18
ATOM     18  N   UNL     1      -0.504   3.380  -1.935  0.00  0.00    -0.300 NA
ATOM     19  C   UNL     1       0.875   3.884  -1.876  0.00  0.00    +0.112 C 
ATOM     20  C   UNL     1       0.885   5.372  -2.236  0.00  0.00    +0.175 C 
ATOM     21  O   UNL     1       0.013   6.077  -1.348  0.00  0.00    -0.377 OA
ATOM     22  C   UNL     1      -1.339   5.613  -1.380  0.00  0.00    +0.175 C 
ATOM     23  C   UNL     1      -1.371   4.127  -1.012  0.00  0.00    +0.112 C 
ENDBRANCH  17  18
ENDBRANCH  16  17
ENDBRANCH   1  16
BRANCH   1  24
ATOM     24  C   UNL     1       0.582  -1.000  -3.689  0.00  0.00    -0.036 C 
BRANCH  24  25
ATOM     25  C   UNL     1      -0.221  -0.722  -4.934  0.00  0.00    +0.001 A 
ATOM     26  C   UNL     1       0.179   0.247  -5.793  0.00  0.00    +0.017 A 
ATOM     27  C   UNL     1      -0.622   0.493  -6.993  0.00  0.00    +0.002 A 
ATOM     28  C   UNL     1      -0.258   1.480  -7.916  0.00  0.00    +0.055 A 
ATOM     29  C   UNL     1      -1.036   1.684  -9.037  0.00  0.00    +0.121 A 
ATOM     30  C   UNL     1      -2.177   0.915  -9.252  0.00  0.00    +0.047 A 
ATOM     31  C   UNL     1      -2.546  -0.059  -8.351  0.00  0.00    +0.030 A 
ATOM     32  C   UNL     1      -1.776  -0.282  -7.214  0.00  0.00    +0.049 A 
ATOM     33  N   UNL     1      -2.129  -1.254  -6.300  0.00  0.00    -0.322 N 
ATOM     34  H   UNL     1      -2.924  -1.788  -6.453  0.00  0.00    +0.169 HD
ATOM     35  C   UNL     1      -1.383  -1.476  -5.204  0.00  0.00    +0.251 A 
ATOM     36  O   UNL     1      -1.722  -2.346  -4.420  0.00  0.00    -0.268 OA
BRANCH  29  37
ATOM     37  O   UNL     1      -0.687   2.642  -9.937  0.00  0.00    -0.492 OA
BRANCH  37  38
ATOM     38  C   UNL     1      -1.536   2.803 -11.075  0.00  0.00    +0.225 C 
ATOM     39  C   UNL     1      -0.987   3.918 -11.967  0.00  0.00    +0.048 C 
ENDBRANCH  37  38
ENDBRANCH  29  37
ENDBRANCH  24  25
ENDBRANCH   1  24
TORSDOF 11
