REMARK  Name = ZINC26725760
REMARK  5 active torsions:
REMARK  status: ('A' for Active; 'I' for Inactive)
REMARK    1  A    between atoms: C_1  and  C_2
REMARK    2  A    between atoms: C_2  and  C_3
REMARK    3  A    between atoms: C_2  and  N_4
REMARK    4  A    between atoms: C_8  and  C_10
REMARK    5  A    between atoms: C_10  and  N_11
REMARK                            x       y       z     vdW  Elec       q    Type
REMARK                         _______ _______ _______ _____ _____    ______ ____
ROOT
ATOM      1  C   UNL     1       3.373   2.482   0.751  0.00  0.00    +0.201 C 
ENDROOT
BRANCH   1   2
ATOM      2  N   UNL     1       2.429   1.673  -0.030  0.00  0.00    -0.319 N 
ATOM      3  C   UNL     1       1.077   2.232   0.038  0.00  0.00    +0.106 C 
ATOM      4  C   UNL     1       0.144   1.365  -0.817  0.00  0.00    +0.024 C 
ATOM      5  C   UNL     1       0.538   1.554  -2.284  0.00  0.00    +0.039 C 
ATOM      6  C   UNL     1       2.034   1.429  -2.428  0.00  0.00    -0.021 A 
ATOM      7  C   UNL     1       2.884   1.496  -1.339  0.00  0.00    +0.069 A 
ATOM      8  C   UNL     1       4.263   1.380  -1.536  0.00  0.00    +0.147 A 
ATOM      9  C   UNL     1       4.774   1.196  -2.804  0.00  0.00    +0.078 A 
ATOM     10  C   UNL     1       3.918   1.125  -3.890  0.00  0.00    +0.126 A 
ATOM     11  C   UNL     1       2.554   1.247  -3.701  0.00  0.00    +0.044 A 
ATOM     12  F   UNL     1       4.415   0.943  -5.133  0.00  0.00    -0.205 F 
ATOM     13  F   UNL     1       5.100   1.448  -0.478  0.00  0.00    -0.203 F 
ENDBRANCH   1   2
BRANCH   1  18
ATOM     14  N   UNL     1       5.663   6.692   0.372  0.00  0.00    -0.297 N 
ATOM     15  C   UNL     1       4.743   5.830  -0.104  0.00  0.00    +0.306 C 
ATOM     16  O   UNL     1       4.103   6.111  -1.099  0.00  0.00    -0.252 OA
ATOM     17  N   UNL     1       4.531   4.657   0.524  0.00  0.00    -0.239 N 
ATOM     18  C   UNL     1       3.610   3.795   0.049  0.00  0.00    +0.238 C 
ATOM     19  O   UNL     1       2.973   4.075  -0.943  0.00  0.00    -0.274 OA
ATOM     20  H   UNL     1       6.242   6.438   1.272  0.00  0.00    +0.151 HD
ATOM     21  H   UNL     1       5.109   4.402   1.425  0.00  0.00    +0.159 HD
BRANCH  14  23
ATOM     22  C   UNL     1       4.882   9.003   0.187  0.00  0.00    +0.027 C 
ATOM     23  C   UNL     1       5.893   7.968  -0.311  0.00  0.00    +0.068 C 
ATOM     24  C   UNL     1       7.312   8.457  -0.012  0.00  0.00    +0.027 C 
ENDBRANCH  14  23
ENDBRANCH   1  18
TORSDOF 3
