REMARK  Name = ZINC39980046
REMARK  6 active torsions:
REMARK  status: ('A' for Active; 'I' for Inactive)
REMARK    1  A    between atoms: C_4  and  S_7
REMARK    2  A    between atoms: S_7  and  N_10
REMARK    3  A    between atoms: C_12  and  N_22
REMARK    4  A    between atoms: N_22  and  C_23
REMARK    5  A    between atoms: C_26  and  C_29
REMARK    6  A    between atoms: C_29  and  O_31
REMARK                            x       y       z     vdW  Elec       q    Type
REMARK                         _______ _______ _______ _____ _____    ______ ____
ROOT
ATOM      1  N   UNL     1       3.907  -1.238   1.569  0.00  0.00    -0.110 NA
ATOM      2  C   UNL     1       5.127  -1.649   1.752  0.00  0.00    +0.192 C 
ATOM      3  C   UNL     1       5.693  -1.777   3.149  0.00  0.00    +0.237 C 
ATOM      4  N   UNL     1       7.079  -2.249   3.288  0.00  0.00    -0.359 N 
ATOM      5  C   UNL     1       7.752  -2.533   2.207  0.00  0.00    +0.063 A 
ATOM      6  C   UNL     1       9.140  -3.008   2.292  0.00  0.00    +0.027 A 
ATOM      7  C   UNL     1       9.805  -3.292   1.150  0.00  0.00    +0.002 A 
ATOM      8  C   UNL     1       9.203  -3.146  -0.110  0.00  0.00    +0.002 A 
ATOM      9  C   UNL     1       7.932  -2.715  -0.268  0.00  0.00    +0.030 A 
ATOM     10  C   UNL     1       7.141  -2.387   0.863  0.00  0.00    +0.089 A 
ATOM     11  N   UNL     1       5.902  -1.972   0.704  0.00  0.00    -0.226 NA
ATOM     12  H   UNL     1       7.484  -2.346   4.164  0.00  0.00    +0.162 HD
ENDROOT
BRANCH   1  13
ATOM     13  S   UNL     1       3.298  -1.109   0.035  0.00  0.00    +0.100 S 
ATOM     14  O   UNL     1       3.223  -2.430  -0.484  0.00  0.00    -0.146 OA
ATOM     15  O   UNL     1       4.034  -0.078  -0.609  0.00  0.00    -0.146 OA
BRANCH  13  19
ATOM     16  C   UNL     1      -0.960   0.381   0.404  0.00  0.00    +0.000 A 
ATOM     17  C   UNL     1       0.080   1.284   0.288  0.00  0.00    +0.002 A 
ATOM     18  C   UNL     1       1.381   0.829   0.176  0.00  0.00    +0.029 A 
ATOM     19  C   UNL     1       1.641  -0.529   0.179  0.00  0.00    +0.113 A 
ATOM     20  C   UNL     1       0.600  -1.432   0.295  0.00  0.00    +0.029 A 
ATOM     21  C   UNL     1      -0.700  -0.977   0.406  0.00  0.00    +0.002 A 
ENDBRANCH  13  19
ENDBRANCH   1  13
BRANCH   3  22
ATOM     22  N   UNL     1       4.831  -2.696   3.897  0.00  0.00    -0.318 N 
ATOM     23  H   UNL     1       4.520  -3.515   3.482  0.00  0.00    +0.148 HD
BRANCH  22  24
ATOM     24  C   UNL     1       4.461  -2.393   5.202  0.00  0.00    +0.029 A 
ATOM     25  C   UNL     1       3.523  -3.186   5.860  0.00  0.00    +0.024 A 
ATOM     26  C   UNL     1       3.156  -2.890   7.147  0.00  0.00    +0.017 A 
ATOM     27  C   UNL     1       3.725  -1.792   7.801  0.00  0.00    +0.059 A 
ATOM     28  C   UNL     1       4.666  -0.998   7.137  0.00  0.00    +0.017 A 
ATOM     29  C   UNL     1       5.033  -1.302   5.852  0.00  0.00    +0.024 A 
BRANCH  27  30
ATOM     30  C   UNL     1       3.332  -1.471   9.184  0.00  0.00    +0.337 C 
ATOM     31  O   UNL     1       2.514  -2.162   9.759  0.00  0.00    -0.245 OA
BRANCH  30  32
ATOM     32  O   UNL     1       3.881  -0.412   9.812  0.00  0.00    -0.477 OA
ATOM     33  H   UNL     1       3.561  -0.282  10.716  0.00  0.00    +0.295 HD
ENDBRANCH  30  32
ENDBRANCH  27  30
ENDBRANCH  22  24
ENDBRANCH   3  22
TORSDOF 6
