REMARK  Name = ZINC04191043
REMARK  11 active torsions:
REMARK  status: ('A' for Active; 'I' for Inactive)
REMARK    1  A    between atoms: C_1  and  O_2
REMARK    2  A    between atoms: O_2  and  C_3
REMARK    3  A    between atoms: C_3  and  C_4
REMARK    4  A    between atoms: C_4  and  N_5
REMARK    5  A    between atoms: C_6  and  C_8
REMARK    6  A    between atoms: C_10  and  N_27
REMARK    7  A    between atoms: C_13  and  N_14
REMARK    8  A    between atoms: C_17  and  C_20
REMARK    9  A    between atoms: C_20  and  C_21
REMARK   10  A    between atoms: C_28  and  C_30
REMARK   11  A    between atoms: C_34  and  N_36
REMARK                            x       y       z     vdW  Elec       q    Type
REMARK                         _______ _______ _______ _____ _____    ______ ____
ROOT
ATOM      1  C   UNL     1       2.084   9.586  -0.154  0.00  0.00    +0.059 A 
ATOM      2  C   UNL     1       2.197   8.197  -0.065  0.00  0.00    +0.038 A 
ATOM      3  C   UNL     1       1.058   7.412  -0.060  0.00  0.00    +0.035 A 
ATOM      4  C   UNL     1      -0.199   8.003  -0.148  0.00  0.00    +0.025 A 
ATOM      5  C   UNL     1      -0.321   9.374  -0.231  0.00  0.00    +0.026 A 
ATOM      6  C   UNL     1       0.814  10.176  -0.237  0.00  0.00    +0.042 A 
ENDROOT
BRANCH   6   7
ATOM      7  N   UNL     1       0.691  11.558  -0.325  0.00  0.00    -0.329 N 
ATOM      8  C   UNL     1      -0.009  11.947  -1.556  0.00  0.00    +0.105 C 
ATOM      9  C   UNL     1       0.002  13.471  -1.691  0.00  0.00    +0.023 C 
ATOM     10  C   UNL     1      -0.687  14.092  -0.473  0.00  0.00    -0.004 C 
ATOM     11  C   UNL     1       0.031  13.632   0.799  0.00  0.00    +0.023 C 
ATOM     12  C   UNL     1       0.020  12.103   0.862  0.00  0.00    +0.105 C 
BRANCH  10  13
ATOM     13  C   UNL     1      -0.626  15.617  -0.572  0.00  0.00    +0.038 C 
BRANCH  13  14
ATOM     14  C   UNL     1      -1.437  16.076  -1.757  0.00  0.00    -0.047 A 
ATOM     15  C   UNL     1      -0.838  16.208  -2.995  0.00  0.00    +0.003 A 
ATOM     16  C   UNL     1      -1.583  16.625  -4.083  0.00  0.00    +0.000 A 
ATOM     17  C   UNL     1      -2.925  16.920  -3.929  0.00  0.00    +0.000 A 
ATOM     18  C   UNL     1      -3.522  16.793  -2.689  0.00  0.00    +0.000 A 
ATOM     19  C   UNL     1      -2.779  16.372  -1.603  0.00  0.00    +0.003 A 
ENDBRANCH  13  14
ENDBRANCH  10  13
ENDBRANCH   6   7
BRANCH   1  21
ATOM     20  N   UNL     1       4.514   9.857  -0.188  0.00  0.00    -0.309 N 
ATOM     21  C   UNL     1       3.294  10.429  -0.160  0.00  0.00    +0.246 C 
ATOM     22  O   UNL     1       3.191  11.641  -0.140  0.00  0.00    -0.270 OA
ATOM     23  H   UNL     1       4.596   8.891  -0.204  0.00  0.00    +0.149 HD
BRANCH  20  24
ATOM     24  C   UNL     1       5.716  10.695  -0.194  0.00  0.00    +0.132 C 
BRANCH  24  25
ATOM     25  C   UNL     1       6.959   9.803  -0.227  0.00  0.00    +0.178 C 
BRANCH  25  27
ATOM     26  C   UNL     1       8.122   8.213  -1.593  0.00  0.00    +0.194 C 
ATOM     27  O   UNL     1       6.995   9.081  -1.460  0.00  0.00    -0.381 OA
ENDBRANCH  25  27
ENDBRANCH  24  25
ENDBRANCH  20  24
ENDBRANCH   1  21
BRANCH   3  28
ATOM     28  N   UNL     1       1.170   6.019   0.028  0.00  0.00    -0.281 N 
ATOM     29  C   UNL     1       0.228   5.307   0.679  0.00  0.00    +0.248 C 
ATOM     30  O   UNL     1      -0.667   5.879   1.269  0.00  0.00    -0.270 OA
ATOM     31  H   UNL     1       1.925   5.566  -0.379  0.00  0.00    +0.155 HD
BRANCH  29  32
ATOM     32  C   UNL     1       0.284   3.830   0.674  0.00  0.00    +0.039 A 
ATOM     33  C   UNL     1       1.310   3.169  -0.003  0.00  0.00    +0.013 A 
ATOM     34  C   UNL     1       1.356   1.790  -0.004  0.00  0.00    +0.003 A 
ATOM     35  C   UNL     1       0.387   1.062   0.664  0.00  0.00    +0.033 A 
ATOM     36  C   UNL     1      -0.636   1.711   1.333  0.00  0.00    +0.127 A 
ATOM     37  C   UNL     1      -0.690   3.089   1.347  0.00  0.00    +0.045 A 
BRANCH  36  38
ATOM     38  N   UNL     1      -1.671   0.924   2.039  0.00  0.00    +0.056 N 
ATOM     39  O   UNL     1      -1.622  -0.293   2.032  0.00  0.00    -0.126 OA
ATOM     40  O   UNL     1      -2.573   1.494   2.628  0.00  0.00    -0.126 OA
ENDBRANCH  36  38
ENDBRANCH  29  32
ENDBRANCH   3  28
TORSDOF 10
