REMARK  Name = ZINC36883633
REMARK  9 active torsions:
REMARK  status: ('A' for Active; 'I' for Inactive)
REMARK    1  A    between atoms: C_4  and  C_7
REMARK    2  A    between atoms: C_7  and  C_8
REMARK    3  A    between atoms: C_8  and  C_10
REMARK    4  A    between atoms: C_8  and  N_27
REMARK    5  A    between atoms: N_12  and  C_13
REMARK    6  A    between atoms: C_13  and  C_14
REMARK    7  A    between atoms: C_14  and  C_16
REMARK    8  A    between atoms: C_14  and  N_22
REMARK    9  A    between atoms: C_28  and  C_30
REMARK                            x       y       z     vdW  Elec       q    Type
REMARK                         _______ _______ _______ _____ _____    ______ ____
ROOT
ATOM      1  C   UNL     1       4.108  -0.988   1.372  0.00  0.00    +0.163 C 
ENDROOT
BRANCH   1   2
ATOM      2  C   UNL     1       5.337  -1.854   1.462  0.00  0.00    +0.234 C 
ATOM      3  O   UNL     1       6.301  -1.476   2.094  0.00  0.00    -0.274 OA
ATOM      4  N   UNL     1       5.366  -3.050   0.842  0.00  0.00    -0.315 N 
ATOM      5  H   UNL     1       4.595  -3.353   0.337  0.00  0.00    +0.149 HD
BRANCH   4   6
ATOM      6  C   UNL     1       6.561  -3.893   0.930  0.00  0.00    +0.093 C 
BRANCH   6   7
ATOM      7  C   UNL     1       6.296  -5.230   0.235  0.00  0.00    -0.020 C 
BRANCH   7   8
ATOM      8  C   UNL     1       6.095  -4.997  -1.240  0.00  0.00    -0.059 A 
ATOM      9  C   UNL     1       7.189  -4.830  -2.069  0.00  0.00    +0.002 A 
ATOM     10  C   UNL     1       7.005  -4.617  -3.422  0.00  0.00    +0.000 A 
ATOM     11  C   UNL     1       5.727  -4.572  -3.947  0.00  0.00    +0.000 A 
ATOM     12  C   UNL     1       4.633  -4.741  -3.119  0.00  0.00    +0.000 A 
ATOM     13  C   UNL     1       4.817  -4.958  -1.766  0.00  0.00    +0.002 A 
ENDBRANCH   7   8
BRANCH   7  14
ATOM     14  N   UNL     1       7.443  -6.124   0.438  0.00  0.00    +0.385 N 
ATOM     15  C   UNL     1       7.610  -6.422   1.884  0.00  0.00    -0.078 C 
ATOM     16  C   UNL     1       8.423  -7.742   1.882  0.00  0.00    -0.020 C 
ATOM     17  C   UNL     1       7.833  -8.508   0.676  0.00  0.00    -0.020 C 
ATOM     18  C   UNL     1       7.197  -7.427  -0.216  0.00  0.00    -0.078 C 
ATOM     19  H   UNL     1       8.283  -5.703   0.070  0.00  0.00    -0.081 HD
ENDBRANCH   7  14
ENDBRANCH   6   7
ENDBRANCH   4   6
ENDBRANCH   1   2
BRANCH   1  20
ATOM     20  N   UNL     1       4.326   0.250   2.125  0.00  0.00    -0.300 N 
ATOM     21  C   UNL     1       3.274   0.934   2.616  0.00  0.00    +0.245 C 
ATOM     22  O   UNL     1       2.144   0.523   2.435  0.00  0.00    -0.270 OA
ATOM     23  H   UNL     1       5.227   0.577   2.269  0.00  0.00    +0.150 HD
BRANCH  21  24
ATOM     24  C   UNL     1       3.494   2.183   3.376  0.00  0.00    +0.037 A 
ATOM     25  C   UNL     1       4.790   2.659   3.581  0.00  0.00    +0.013 A 
ATOM     26  C   UNL     1       4.988   3.826   4.291  0.00  0.00    +0.001 A 
ATOM     27  C   UNL     1       3.906   4.522   4.799  0.00  0.00    +0.000 A 
ATOM     28  C   UNL     1       2.619   4.055   4.600  0.00  0.00    +0.001 A 
ATOM     29  C   UNL     1       2.406   2.893   3.887  0.00  0.00    +0.013 A 
ENDBRANCH  21  24
ENDBRANCH   1  20
BRANCH   1  30
ATOM     30  C   UNL     1       3.829  -0.650  -0.094  0.00  0.00    +0.067 C 
BRANCH  30  34
ATOM     31  C   UNL     1       0.156   1.511  -0.386  0.00  0.00    +0.000 A 
ATOM     32  C   UNL     1       1.347   2.192  -0.214  0.00  0.00    +0.000 A 
ATOM     33  C   UNL     1       2.535   1.492  -0.120  0.00  0.00    +0.004 A 
ATOM     34  C   UNL     1       2.533   0.112  -0.197  0.00  0.00    -0.045 A 
ATOM     35  C   UNL     1       1.342  -0.569  -0.368  0.00  0.00    +0.004 A 
ATOM     36  C   UNL     1       0.153   0.131  -0.464  0.00  0.00    +0.000 A 
ENDBRANCH  30  34
ENDBRANCH   1  30
TORSDOF 9
