REMARK  Name = ZINC34923229
REMARK  14 active torsions:
REMARK  status: ('A' for Active; 'I' for Inactive)
REMARK    1  A    between atoms: C_1  and  C_2
REMARK    2  A    between atoms: C_2  and  C_3
REMARK    3  A    between atoms: C_4  and  C_34
REMARK    4  A    between atoms: C_5  and  C_26
REMARK    5  A    between atoms: C_8  and  C_13
REMARK    6  A    between atoms: C_14  and  N_16
REMARK    7  A    between atoms: N_16  and  C_17
REMARK    8  A    between atoms: C_17  and  C_18
REMARK    9  A    between atoms: C_18  and  C_19
REMARK   10  A    between atoms: C_19  and  N_20
REMARK   11  A    between atoms: C_30  and  O_32
REMARK   12  A    between atoms: O_32  and  C_33
REMARK   13  A    between atoms: C_34  and  O_36
REMARK   14  A    between atoms: O_36  and  C_37
REMARK                            x       y       z     vdW  Elec       q    Type
REMARK                         _______ _______ _______ _____ _____    ______ ____
ROOT
ATOM      1  C   UNL     1       0.540  -0.929  -1.452  0.00  0.00    +0.056 C 
ATOM      2  C   UNL     1       1.911  -1.045  -1.316  0.00  0.00    +0.083 C 
ATOM      3  C   UNL     1       2.721  -1.324  -2.562  0.00  0.00    +0.150 C 
ATOM      4  N   UNL     1       1.973  -1.452  -3.841  0.00  0.00    -0.267 N 
ATOM      5  C   UNL     1       2.502  -1.704  -5.091  0.00  0.00    +0.048 C 
ATOM      6  C   UNL     1       1.643  -1.784  -6.131  0.00  0.00    +0.072 C 
ATOM      7  S   UNL     1       0.074  -1.500  -5.336  0.00  0.00    -0.060 S 
ATOM      8  C   UNL     1       0.617  -1.303  -3.760  0.00  0.00    +0.166 C 
ATOM      9  N   UNL     1      -0.030  -1.065  -2.637  0.00  0.00    -0.229 NA
ENDROOT
BRANCH   3  10
ATOM     10  C   UNL     1       3.485  -2.604  -2.342  0.00  0.00    -0.019 A 
ATOM     11  C   UNL     1       2.840  -3.822  -2.458  0.00  0.00    +0.006 A 
ATOM     12  C   UNL     1       3.538  -4.998  -2.257  0.00  0.00    +0.004 A 
ATOM     13  C   UNL     1       4.881  -4.960  -1.937  0.00  0.00    +0.045 A 
ATOM     14  C   UNL     1       5.530  -3.740  -1.820  0.00  0.00    +0.120 A 
ATOM     15  C   UNL     1       4.829  -2.561  -2.029  0.00  0.00    +0.051 A 
BRANCH  14  16
ATOM     16  O   UNL     1       6.852  -3.699  -1.506  0.00  0.00    -0.495 OA
ATOM     17  C   UNL     1       7.511  -4.952  -1.311  0.00  0.00    +0.277 C 
ENDBRANCH  14  16
ENDBRANCH   3  10
BRANCH   5  18
ATOM     18  C   UNL     1       3.949  -1.879  -5.285  0.00  0.00    +0.091 C 
ATOM     19  C   UNL     1       4.425  -2.278  -6.480  0.00  0.00    +0.239 C 
ATOM     20  O   UNL     1       3.586  -2.404  -7.536  0.00  0.00    -0.271 OA
BRANCH  19  21
ATOM     21  N   UNL     1       5.773  -2.558  -6.629  0.00  0.00    -0.312 N 
ATOM     22  H   UNL     1       6.361  -2.539  -5.857  0.00  0.00    +0.149 HD
BRANCH  21  23
ATOM     23  C   UNL     1       6.311  -2.883  -7.952  0.00  0.00    +0.106 C 
BRANCH  23  24
ATOM     24  C   UNL     1       7.786  -3.268  -7.822  0.00  0.00    +0.038 C 
BRANCH  24  25
ATOM     25  C   UNL     1       8.349  -3.607  -9.204  0.00  0.00    +0.109 C 
BRANCH  25  26
ATOM     26  N   UNL     1       9.761  -3.976  -9.080  0.00  0.00    -0.301 N 
ATOM     27  C   UNL     1      10.876  -3.025  -9.159  0.00  0.00    +0.108 C 
ATOM     28  C   UNL     1      12.090  -3.761  -8.552  0.00  0.00    +0.028 C 
ATOM     29  C   UNL     1      11.712  -5.242  -8.790  0.00  0.00    +0.097 C 
ATOM     30  C   UNL     1      10.202  -5.229  -8.872  0.00  0.00    +0.216 C 
ATOM     31  O   UNL     1       9.492  -6.207  -8.769  0.00  0.00    -0.276 OA
ENDBRANCH  25  26
ENDBRANCH  24  25
ENDBRANCH  23  24
ENDBRANCH  21  23
ENDBRANCH  19  21
ENDBRANCH   5  18
BRANCH   1  33
ATOM     32  C   UNL     1      -0.344   0.855   0.027  0.00  0.00    +0.010 C 
ATOM     33  C   UNL     1      -0.311  -0.651  -0.239  0.00  0.00    +0.053 C 
ENDBRANCH   1  33
BRANCH   2  34
ATOM     34  C   UNL     1       2.528  -0.908  -0.067  0.00  0.00    +0.339 C 
ATOM     35  O   UNL     1       1.850  -0.760   0.935  0.00  0.00    -0.245 OA
BRANCH  34  36
ATOM     36  O   UNL     1       3.876  -0.939   0.027  0.00  0.00    -0.465 OA
ATOM     37  C   UNL     1       4.438  -0.793   1.333  0.00  0.00    +0.280 C 
ENDBRANCH  34  36
ENDBRANCH   2  34
TORSDOF 11
