REMARK  Name = ZINC49179187
REMARK  9 active torsions:
REMARK  status: ('A' for Active; 'I' for Inactive)
REMARK    1  A    between atoms: C_1  and  C_2
REMARK    2  A    between atoms: C_2  and  C_3
REMARK    3  A    between atoms: C_3  and  C_4
REMARK    4  A    between atoms: C_4  and  C_5
REMARK    5  A    between atoms: C_5  and  C_7
REMARK    6  A    between atoms: C_5  and  N_18
REMARK    7  A    between atoms: N_9  and  C_10
REMARK    8  A    between atoms: C_10  and  C_11
REMARK    9  A    between atoms: C_11  and  C_12
REMARK                            x       y       z     vdW  Elec       q    Type
REMARK                         _______ _______ _______ _____ _____    ______ ____
ROOT
ATOM      1  C   UNL     1       1.455  -2.521  -2.524  0.00  0.00    +0.160 C 
ENDROOT
BRANCH   1   2
ATOM      2  N   UNL     1       0.682  -2.137  -3.708  0.00  0.00    -0.288 N 
ATOM      3  C   UNL     1      -0.583  -2.578  -3.859  0.00  0.00    +0.298 C 
ATOM      4  O   UNL     1      -1.082  -3.294  -3.012  0.00  0.00    -0.253 OA
ATOM      5  N   UNL     1      -1.294  -2.225  -4.948  0.00  0.00    -0.313 N 
ATOM      6  H   UNL     1       1.080  -1.566  -4.383  0.00  0.00    +0.151 HD
ATOM      7  H   UNL     1      -0.896  -1.654  -5.623  0.00  0.00    +0.146 HD
ATOM      8  H   UNL     1      -2.204  -2.542  -5.056  0.00  0.00    +0.146 HD
ENDBRANCH   1   2
BRANCH   1   9
ATOM      9  C   UNL     1       1.584  -4.021  -2.473  0.00  0.00    +0.233 C 
ATOM     10  O   UNL     1       0.810  -4.718  -3.095  0.00  0.00    -0.274 OA
ATOM     11  N   UNL     1       2.559  -4.589  -1.736  0.00  0.00    -0.313 N 
ATOM     12  H   UNL     1       3.179  -4.032  -1.239  0.00  0.00    +0.149 HD
BRANCH  11  13
ATOM     13  C   UNL     1       2.685  -6.048  -1.687  0.00  0.00    +0.109 C 
BRANCH  13  14
ATOM     14  C   UNL     1       3.863  -6.428  -0.787  0.00  0.00    +0.061 C 
BRANCH  14  15
ATOM     15  C   UNL     1       3.992  -7.929  -0.736  0.00  0.00    -0.008 A 
ATOM     16  C   UNL     1       4.714  -8.751  -1.536  0.00  0.00    +0.012 A 
ATOM     17  C   UNL     1       4.682 -10.113  -1.301  0.00  0.00    +0.023 A 
ATOM     18  C   UNL     1       3.930 -10.586  -0.276  0.00  0.00    +0.055 A 
ATOM     19  S   UNL     1       3.240  -9.084   0.399  0.00  0.00    -0.086 S 
ATOM     20 BR   UNL     1       3.682 -12.371   0.294  0.00  0.00    -0.043 Br
ENDBRANCH  14  15
ENDBRANCH  13  14
ENDBRANCH  11  13
ENDBRANCH   1   9
BRANCH   1  21
ATOM     21  C   UNL     1       0.739  -2.027  -1.265  0.00  0.00    +0.032 C 
BRANCH  21  22
ATOM     22  C   UNL     1       0.718  -0.497  -1.257  0.00  0.00    +0.002 C 
BRANCH  22  24
ATOM     23  C   UNL     1      -0.019   1.526   0.010  0.00  0.00    +0.004 C 
ATOM     24  C   UNL     1       0.002  -0.004   0.002  0.00  0.00    -0.003 C 
ENDBRANCH  22  24
ENDBRANCH  21  22
ENDBRANCH   1  21
TORSDOF 8
