REMARK  Name = ZINC09277707
REMARK  10 active torsions:
REMARK  status: ('A' for Active; 'I' for Inactive)
REMARK    1  A    between atoms: C_1  and  C_2
REMARK    2  A    between atoms: C_2  and  N_3
REMARK    3  A    between atoms: C_16  and  S_17
REMARK    4  A    between atoms: S_17  and  C_18
REMARK    5  A    between atoms: C_18  and  C_19
REMARK    6  A    between atoms: N_21  and  C_22
REMARK    7  A    between atoms: C_23  and  C_32
REMARK    8  A    between atoms: C_32  and  O_34
REMARK    9  A    between atoms: O_34  and  C_35
REMARK   10  A    between atoms: C_35  and  C_36
REMARK                            x       y       z     vdW  Elec       q    Type
REMARK                         _______ _______ _______ _____ _____    ______ ____
ROOT
ATOM      1  C   UNL     1      -3.241  -0.702  -3.700  0.00  0.00    +0.173 C 
ENDROOT
BRANCH   1   2
ATOM      2  C   UNL     1      -3.049  -0.321  -5.145  0.00  0.00    +0.228 C 
ATOM      3  O   UNL     1      -2.078   0.326  -5.478  0.00  0.00    -0.275 OA
ATOM      4  N   UNL     1      -3.955  -0.699  -6.068  0.00  0.00    -0.279 N 
ATOM      5  H   UNL     1      -4.731  -1.217  -5.802  0.00  0.00    +0.155 HD
BRANCH   4   6
ATOM      6  C   UNL     1      -3.778  -0.348  -7.397  0.00  0.00    +0.086 A 
ATOM      7  C   UNL     1      -4.601  -0.641  -8.472  0.00  0.00    +0.091 A 
ATOM      8  C   UNL     1      -4.190  -0.154  -9.782  0.00  0.00    -0.021 A 
ATOM      9  C   UNL     1      -3.028   0.531  -9.771  0.00  0.00    -0.004 A 
ATOM     10  S   UNL     1      -2.522   0.535  -8.074  0.00  0.00    -0.077 S 
ATOM     11  C   UNL     1      -2.317   1.146 -10.936  0.00  0.00    +0.043 C 
ATOM     12  C   UNL     1      -3.317   1.972 -11.757  0.00  0.00    +0.005 C 
ATOM     13  C   UNL     1      -3.952   1.065 -12.806  0.00  0.00    +0.001 C 
ATOM     14  C   UNL     1      -4.082  -0.358 -12.265  0.00  0.00    +0.005 C 
ATOM     15  C   UNL     1      -5.003  -0.383 -11.048  0.00  0.00    +0.037 C 
BRANCH   7  16
ATOM     16  C   UNL     1      -5.835  -1.411  -8.299  0.00  0.00    +0.342 C 
ATOM     17  O   UNL     1      -6.881  -0.837  -8.063  0.00  0.00    -0.245 OA
BRANCH  16  18
ATOM     18  O   UNL     1      -5.811  -2.755  -8.402  0.00  0.00    -0.461 OA
BRANCH  18  19
ATOM     19  C   UNL     1      -7.052  -3.441  -8.222  0.00  0.00    +0.229 C 
ATOM     20  C   UNL     1      -6.828  -4.947  -8.373  0.00  0.00    +0.048 C 
ENDBRANCH  18  19
ENDBRANCH  16  18
ENDBRANCH   7  16
ENDBRANCH   4   6
ENDBRANCH   1   2
BRANCH   1  21
ATOM     21  S   UNL     1      -1.864  -0.051  -2.714  0.00  0.00    -0.079 S 
BRANCH  21  35
ATOM     22  N   UNL     1      -1.466  -0.316   0.039  0.00  0.00    -0.265 N 
ATOM     23  C   UNL     1      -2.079  -0.878   1.116  0.00  0.00    +0.121 C 
ATOM     24  C   UNL     1      -1.623  -0.840   2.451  0.00  0.00    +0.040 C 
ATOM     25  C   UNL     1      -0.405  -0.327   2.923  0.00  0.00    +0.123 C 
ATOM     26  N   UNL     1      -0.343  -0.470   4.227  0.00  0.00    -0.254 NA
ATOM     27  C   UNL     1      -1.445  -1.056   4.725  0.00  0.00    +0.072 A 
ATOM     28  C   UNL     1      -2.324  -1.323   3.649  0.00  0.00    +0.012 A 
ATOM     29  C   UNL     1      -3.555  -1.929   3.886  0.00  0.00    +0.011 A 
ATOM     30  C   UNL     1      -3.910  -2.261   5.163  0.00  0.00    +0.001 A 
ATOM     31  C   UNL     1      -3.053  -2.000   6.226  0.00  0.00    +0.002 A 
ATOM     32  C   UNL     1      -1.838  -1.413   6.022  0.00  0.00    +0.028 A 
ATOM     33  N   UNL     1      -3.202  -1.477   0.673  0.00  0.00    -0.221 N 
ATOM     34  N   UNL     1      -3.270  -1.272  -0.711  0.00  0.00    -0.158 NA
ATOM     35  C   UNL     1      -2.230  -0.574  -1.072  0.00  0.00    +0.180 C 
ATOM     36  H   UNL     1      -3.845  -1.962   1.214  0.00  0.00    +0.176 HD
BRANCH  22  38
ATOM     37  C   UNL     1       0.970  -0.532  -0.014  0.00  0.00    +0.025 C 
ATOM     38  C   UNL     1      -0.211   0.439   0.062  0.00  0.00    +0.111 C 
ENDBRANCH  22  38
ENDBRANCH  21  35
ENDBRANCH   1  21
TORSDOF 8
