REMARK  Name = ZINC00084862
REMARK  8 active torsions:
REMARK  status: ('A' for Active; 'I' for Inactive)
REMARK    1  A    between atoms: C_1  and  C_2
REMARK    2  A    between atoms: C_2  and  O_3
REMARK    3  A    between atoms: O_3  and  C_4
REMARK    4  A    between atoms: C_4  and  C_6
REMARK    5  A    between atoms: C_6  and  C_8
REMARK    6  A    between atoms: C_6  and  S_9
REMARK    7  A    between atoms: S_9  and  C_10
REMARK    8  A    between atoms: C_20  and  C_24
REMARK                            x       y       z     vdW  Elec       q    Type
REMARK                         _______ _______ _______ _____ _____    ______ ____
ROOT
ATOM      1  C   UNL     1       2.316  -0.074  -0.021  0.00  0.00    +0.109 A 
ATOM      2  C   UNL     1       2.365   1.348  -0.013  0.00  0.00    +0.043 A 
ATOM      3  C   UNL     1       3.537   2.225  -0.018  0.00  0.00    -0.025 A 
ATOM      4  C   UNL     1       3.307   3.554  -0.009  0.00  0.00    -0.004 A 
ATOM      5  S   UNL     1       1.542   3.717   0.008  0.00  0.00    -0.073 S 
ATOM      6  C   UNL     1       1.114   1.996   0.002  0.00  0.00    +0.113 A 
ATOM      7  N   UNL     1      -0.016   1.315   0.009  0.00  0.00    -0.228 NA
ATOM      8  C   UNL     1       0.002  -0.004   0.002  0.00  0.00    +0.223 A 
ATOM      9  N   UNL     1       1.138  -0.678  -0.013  0.00  0.00    -0.229 NA
ATOM     10  C   UNL     1       4.327   4.651  -0.012  0.00  0.00    +0.046 C 
ATOM     11  C   UNL     1       5.686   4.050  -0.401  0.00  0.00    -0.009 C 
ATOM     12  C   UNL     1       5.917   2.782   0.428  0.00  0.00    +0.008 C 
ATOM     13  C   UNL     1       4.963   1.680  -0.033  0.00  0.00    +0.037 C 
ATOM     14  C   UNL     1       6.796   5.061  -0.112  0.00  0.00    +0.008 C 
ENDROOT
BRANCH   1  15
ATOM     15  S   UNL     1       3.804  -1.019  -0.041  0.00  0.00    -0.091 S 
BRANCH  15  16
ATOM     16  C   UNL     1       3.113  -2.692  -0.044  0.00  0.00    +0.158 C 
ATOM     17  C   UNL     1       2.368  -2.938   1.269  0.00  0.00    +0.031 C 
BRANCH  16  18
ATOM     18  C   UNL     1       4.229  -3.695  -0.184  0.00  0.00    +0.320 C 
ATOM     19  O   UNL     1       5.348  -3.408   0.170  0.00  0.00    -0.250 OA
BRANCH  18  20
ATOM     20  O   UNL     1       3.980  -4.908  -0.703  0.00  0.00    -0.464 OA
BRANCH  20  22
ATOM     21  C   UNL     1       4.628  -7.144  -1.417  0.00  0.00    +0.048 C 
ATOM     22  C   UNL     1       5.102  -5.823  -0.808  0.00  0.00    +0.229 C 
ENDBRANCH  20  22
ENDBRANCH  18  20
ENDBRANCH  16  18
ENDBRANCH  15  16
ENDBRANCH   1  15
TORSDOF 5
