REMARK  Name = ZINC02403504
REMARK  8 active torsions:
REMARK  status: ('A' for Active; 'I' for Inactive)
REMARK    1  A    between atoms: C_1  and  C_2
REMARK    2  A    between atoms: C_6  and  N_9
REMARK    3  A    between atoms: C_7  and  C_8
REMARK    4  A    between atoms: C_10  and  C_12
REMARK    5  A    between atoms: C_12  and  S_13
REMARK    6  A    between atoms: S_13  and  C_14
REMARK    7  A    between atoms: C_17  and  C_20
REMARK    8  A    between atoms: N_18  and  N_19
REMARK                            x       y       z     vdW  Elec       q    Type
REMARK                         _______ _______ _______ _____ _____    ______ ____
ROOT
ATOM      1  S   UNL     1      -0.226  -6.677   3.345  0.00  0.00    -0.075 S 
ENDROOT
BRANCH   1   2
ATOM      2  C   UNL     1      -0.334  -7.412   4.943  0.00  0.00    +0.209 A 
ATOM      3  N   UNL     1      -0.344  -6.777   6.094  0.00  0.00    -0.121 NA
ATOM      4  N   UNL     1      -0.432  -7.619   7.061  0.00  0.00    -0.127 NA
ATOM      5  C   UNL     1      -0.483  -8.842   6.587  0.00  0.00    +0.182 A 
ATOM      6  N   UNL     1      -0.427  -8.747   5.216  0.00  0.00    -0.224 N 
BRANCH   5   7
ATOM      7  C   UNL     1      -0.586 -10.087   7.378  0.00  0.00    +0.021 A 
ATOM      8  C   UNL     1      -0.314 -11.320   6.784  0.00  0.00    +0.011 A 
ATOM      9  C   UNL     1      -0.412 -12.478   7.527  0.00  0.00    +0.001 A 
ATOM     10  C   UNL     1      -0.780 -12.419   8.860  0.00  0.00    +0.000 A 
ATOM     11  C   UNL     1      -1.052 -11.200   9.455  0.00  0.00    +0.001 A 
ATOM     12  C   UNL     1      -0.952 -10.034   8.724  0.00  0.00    +0.011 A 
ENDBRANCH   5   7
BRANCH   6  13
ATOM     13  N   UNL     1      -0.457  -9.774   4.315  0.00  0.00    -0.295 N 
ATOM     14  H   UNL     1       0.475 -10.104   4.113  0.00  0.00    +0.163 HD
ATOM     15  H   UNL     1      -1.044 -10.526   4.643  0.00  0.00    +0.163 HD
ENDBRANCH   6  13
ENDBRANCH   1   2
BRANCH   1  16
ATOM     16  C   UNL     1      -0.129  -4.898   3.686  0.00  0.00    +0.173 C 
BRANCH  16  18
ATOM     17  N   UNL     1       0.052  -2.797   2.393  0.00  0.00    -0.285 N 
ATOM     18  C   UNL     1      -0.031  -4.143   2.385  0.00  0.00    +0.227 C 
ATOM     19  O   UNL     1      -0.028  -4.745   1.333  0.00  0.00    -0.275 OA
ATOM     20  H   UNL     1       0.130  -2.321   3.234  0.00  0.00    +0.155 HD
BRANCH  17  26
ATOM     21  C   UNL     1       1.206   1.236  -0.172  0.00  0.00    +0.044 C 
ATOM     22  C   UNL     1       0.577  -0.131  -0.084  0.00  0.00    -0.046 A 
ATOM     23  C   UNL     1      -0.027  -0.686  -1.198  0.00  0.00    +0.004 A 
ATOM     24  C   UNL     1      -0.605  -1.940  -1.122  0.00  0.00    +0.002 A 
ATOM     25  C   UNL     1      -0.580  -2.642   0.067  0.00  0.00    +0.023 A 
ATOM     26  C   UNL     1       0.026  -2.088   1.187  0.00  0.00    +0.037 A 
ATOM     27  C   UNL     1       0.610  -0.831   1.106  0.00  0.00    -0.026 A 
ATOM     28  C   UNL     1       1.274  -0.228   2.317  0.00  0.00    +0.046 C 
ENDBRANCH  17  26
ENDBRANCH  16  18
ENDBRANCH   1  16
TORSDOF 6
