REMARK  Name = ZINC37352873
REMARK  7 active torsions:
REMARK  status: ('A' for Active; 'I' for Inactive)
REMARK    1  A    between atoms: C_1  and  C_2
REMARK    2  A    between atoms: C_3  and  C_24
REMARK    3  A    between atoms: N_4  and  C_13
REMARK    4  A    between atoms: C_7  and  N_12
REMARK    5  A    between atoms: C_9  and  C_11
REMARK    6  A    between atoms: C_18  and  C_23
REMARK    7  A    between atoms: C_20  and  C_22
REMARK                            x       y       z     vdW  Elec       q    Type
REMARK                         _______ _______ _______ _____ _____    ______ ____
ROOT
ATOM      1  C   UNL     1      -1.842   0.084   1.204  0.00  0.00    +0.046 C 
ATOM      2  C   UNL     1      -0.947  -1.021   0.705  0.00  0.00    -0.017 A 
ATOM      3  C   UNL     1      -1.100  -1.725  -0.428  0.00  0.00    +0.021 A 
ATOM      4  N   UNL     1      -0.090  -2.645  -0.544  0.00  0.00    -0.326 N 
ATOM      5  C   UNL     1       0.752  -2.554   0.530  0.00  0.00    +0.147 A 
ATOM      6  C   UNL     1       0.258  -1.529   1.359  0.00  0.00    +0.062 A 
ATOM      7  C   UNL     1       0.951  -1.226   2.541  0.00  0.00    +0.129 A 
ATOM      8  N   UNL     1       2.049  -1.921   2.824  0.00  0.00    -0.217 NA
ATOM      9  C   UNL     1       2.480  -2.873   2.016  0.00  0.00    +0.130 A 
ATOM     10  N   UNL     1       1.857  -3.196   0.903  0.00  0.00    -0.214 NA
ATOM     11  C   UNL     1       3.730  -3.626   2.390  0.00  0.00    +0.088 C 
ATOM     12  C   UNL     1      -2.215  -1.532  -1.424  0.00  0.00    +0.064 C 
ENDROOT
BRANCH   4  13
ATOM     13  C   UNL     1       0.065  -3.587  -1.655  0.00  0.00    +0.092 C 
ATOM     14  C   UNL     1       0.263  -5.000  -1.102  0.00  0.00    +0.025 C 
ATOM     15  C   UNL     1       0.425  -5.984  -2.262  0.00  0.00    +0.002 C 
ATOM     16  C   UNL     1       1.643  -5.589  -3.100  0.00  0.00    +0.004 C 
ATOM     17  C   UNL     1       1.445  -4.176  -3.653  0.00  0.00    -0.009 C 
ATOM     18  C   UNL     1       1.283  -3.192  -2.493  0.00  0.00    +0.012 C 
ATOM     19  C   UNL     1       2.537  -3.225  -1.617  0.00  0.00    +0.010 C 
ATOM     20  C   UNL     1       2.663  -3.781  -4.490  0.00  0.00    +0.008 C 
ENDBRANCH   4  13
BRANCH   7  21
ATOM     21  N   UNL     1       0.503  -0.230   3.389  0.00  0.00    -0.343 N 
ATOM     22  H   UNL     1      -0.299   0.270   3.171  0.00  0.00    +0.144 HD
ATOM     23  H   UNL     1       0.992  -0.030   4.203  0.00  0.00    +0.144 HD
ENDBRANCH   7  21
TORSDOF 2
