REMARK  Name = ZINC36849029
REMARK  9 active torsions:
REMARK  status: ('A' for Active; 'I' for Inactive)
REMARK    1  A    between atoms: C_1  and  C_2
REMARK    2  A    between atoms: C_5  and  N_9
REMARK    3  A    between atoms: C_7  and  C_8
REMARK    4  A    between atoms: C_10  and  C_28
REMARK    5  A    between atoms: C_13  and  S_14
REMARK    6  A    between atoms: S_14  and  C_15
REMARK    7  A    between atoms: C_15  and  C_16
REMARK    8  A    between atoms: N_18  and  C_19
REMARK    9  A    between atoms: C_25  and  C_27
REMARK                            x       y       z     vdW  Elec       q    Type
REMARK                         _______ _______ _______ _____ _____    ______ ____
ROOT
ATOM      1  N   UNL     1       0.059  -4.172  -0.021  0.00  0.00    -0.270 N 
ATOM      2  C   UNL     1      -0.925  -5.016  -0.489  0.00  0.00    +0.169 A 
ATOM      3  N   UNL     1      -0.499  -6.244  -0.305  0.00  0.00    -0.128 NA
ATOM      4  N   UNL     1       0.666  -6.229   0.237  0.00  0.00    -0.122 NA
ATOM      5  C   UNL     1       1.059  -4.988   0.429  0.00  0.00    +0.197 A 
ENDROOT
BRANCH   1  10
ATOM      6  C   UNL     1      -0.018   1.503   0.010  0.00  0.00    +0.044 C 
ATOM      7  C   UNL     1       0.002  -0.004   0.002  0.00  0.00    -0.047 A 
ATOM      8  C   UNL     1       0.006  -0.688  -1.200  0.00  0.00    +0.005 A 
ATOM      9  C   UNL     1       0.025  -2.068  -1.211  0.00  0.00    +0.026 A 
ATOM     10  C   UNL     1       0.040  -2.771  -0.013  0.00  0.00    +0.051 A 
ATOM     11  C   UNL     1       0.037  -2.082   1.192  0.00  0.00    +0.030 A 
ATOM     12  C   UNL     1       0.023  -0.700   1.196  0.00  0.00    -0.046 A 
ATOM     13  C   UNL     1       0.025   0.048   2.504  0.00  0.00    +0.044 C 
ENDBRANCH   1  10
BRANCH   2  14
ATOM     14  C   UNL     1      -2.216  -4.614  -1.085  0.00  0.00    +0.022 A 
ATOM     15  C   UNL     1      -2.693  -3.304  -0.954  0.00  0.00    +0.031 A 
ATOM     16  C   UNL     1      -3.903  -2.973  -1.526  0.00  0.00    +0.111 A 
ATOM     17  N   UNL     1      -4.608  -3.870  -2.188  0.00  0.00    -0.263 NA
ATOM     18  C   UNL     1      -4.196  -5.115  -2.336  0.00  0.00    +0.111 A 
ATOM     19  C   UNL     1      -2.995  -5.532  -1.802  0.00  0.00    +0.031 A 
ENDBRANCH   2  14
BRANCH   5  20
ATOM     20  S   UNL     1       2.588  -4.474   1.138  0.00  0.00    -0.076 S 
BRANCH  20  21
ATOM     21  C   UNL     1       3.443  -6.029   1.512  0.00  0.00    +0.173 C 
BRANCH  21  22
ATOM     22  C   UNL     1       4.784  -5.729   2.132  0.00  0.00    +0.224 C 
ATOM     23  O   UNL     1       5.128  -4.579   2.304  0.00  0.00    -0.275 OA
ATOM     24  N   UNL     1       5.600  -6.738   2.495  0.00  0.00    -0.312 N 
ATOM     25  H   UNL     1       5.324  -7.658   2.357  0.00  0.00    +0.149 HD
BRANCH  24  26
ATOM     26  C   UNL     1       6.903  -6.446   3.098  0.00  0.00    +0.076 C 
ATOM     27  C   UNL     1       7.933  -6.206   1.992  0.00  0.00    +0.022 C 
ATOM     28  C   UNL     1       8.044  -7.456   1.118  0.00  0.00    +0.002 C 
ATOM     29  C   UNL     1       8.486  -8.642   1.978  0.00  0.00    +0.000 C 
ATOM     30  C   UNL     1       7.455  -8.883   3.083  0.00  0.00    +0.005 C 
ATOM     31  C   UNL     1       7.344  -7.632   3.957  0.00  0.00    +0.006 C 
ATOM     32  C   UNL     1       6.314  -7.872   5.062  0.00  0.00    +0.009 C 
ENDBRANCH  24  26
ENDBRANCH  21  22
ENDBRANCH  20  21
ENDBRANCH   5  20
TORSDOF 6
