REMARK  Name = ZINC54217010
REMARK  8 active torsions:
REMARK  status: ('A' for Active; 'I' for Inactive)
REMARK    1  A    between atoms: C_1  and  C_2
REMARK    2  A    between atoms: C_4  and  C_8
REMARK    3  A    between atoms: C_5  and  C_7
REMARK    4  A    between atoms: C_8  and  C_10
REMARK    5  A    between atoms: C_8  and  N_11
REMARK    6  A    between atoms: C_12  and  C_14
REMARK    7  A    between atoms: C_19  and  N_20
REMARK    8  A    between atoms: N_20  and  N_21
REMARK                            x       y       z     vdW  Elec       q    Type
REMARK                         _______ _______ _______ _____ _____    ______ ____
ROOT
ATOM      1  N   UNL     1      -3.687  -3.633   0.604  0.00  0.00    -0.305 N 
ATOM      2  C   UNL     1      -4.141  -4.461  -0.358  0.00  0.00    +0.246 C 
ATOM      3  O   UNL     1      -3.742  -5.609  -0.410  0.00  0.00    -0.270 OA
ATOM      4  H   UNL     1      -4.005  -2.717   0.645  0.00  0.00    +0.150 HD
ENDROOT
BRANCH   2   5
ATOM      5  C   UNL     1      -5.121  -3.975  -1.347  0.00  0.00    +0.061 A 
ATOM      6  C   UNL     1      -5.673  -2.697  -1.221  0.00  0.00    +0.015 A 
ATOM      7  C   UNL     1      -6.588  -2.249  -2.147  0.00  0.00    +0.004 A 
ATOM      8  C   UNL     1      -6.966  -3.058  -3.207  0.00  0.00    +0.040 A 
ATOM      9  C   UNL     1      -6.431  -4.323  -3.347  0.00  0.00    +0.146 A 
ATOM     10  C   UNL     1      -5.501  -4.791  -2.423  0.00  0.00    +0.089 A 
ATOM     11  F   UNL     1      -6.806  -5.105  -4.383  0.00  0.00    -0.203 F 
BRANCH  10  12
ATOM     12  N   UNL     1      -4.955  -6.062  -2.563  0.00  0.00    -0.280 N 
ATOM     13  H   UNL     1      -4.032  -6.224  -2.314  0.00  0.00    +0.166 HD
BRANCH  12  14
ATOM     14  N   UNL     1      -5.720  -7.084  -3.050  0.00  0.00    -0.256 NA
ATOM     15  H   UNL     1      -6.104  -6.849  -3.953  0.00  0.00    +0.140 HD
ATOM     16  H   UNL     1      -5.191  -7.942  -3.095  0.00  0.00    +0.140 HD
ENDBRANCH  12  14
ENDBRANCH  10  12
ENDBRANCH   2   5
BRANCH   1  17
ATOM     17  C   UNL     1      -2.714  -4.115   1.586  0.00  0.00    +0.104 C 
ATOM     18  C   UNL     1      -3.449  -4.808   2.735  0.00  0.00    +0.033 C 
BRANCH  17  22
ATOM     19  C   UNL     1      -1.331   0.585   2.984  0.00  0.00    +0.086 C 
ATOM     20  C   UNL     1      -1.336  -0.900   2.729  0.00  0.00    +0.103 A 
ATOM     21  C   UNL     1      -2.342  -1.600   2.174  0.00  0.00    +0.050 A 
ATOM     22  C   UNL     1      -1.925  -2.950   2.125  0.00  0.00    +0.013 A 
ATOM     23  C   UNL     1      -0.688  -2.994   2.652  0.00  0.00    +0.107 A 
ATOM     24  O   UNL     1      -0.334  -1.749   3.011  0.00  0.00    -0.465 OA
ATOM     25  C   UNL     1       0.160  -4.231   2.809  0.00  0.00    +0.086 C 
ENDBRANCH  17  22
ENDBRANCH   1  17
TORSDOF 5
