REMARK  Name = ZINC21297684
REMARK  8 active torsions:
REMARK  status: ('A' for Active; 'I' for Inactive)
REMARK    1  A    between atoms: C_1  and  C_2
REMARK    2  A    between atoms: C_6  and  N_9
REMARK    3  A    between atoms: C_7  and  C_8
REMARK    4  A    between atoms: N_9  and  C_10
REMARK    5  A    between atoms: C_10  and  N_12
REMARK    6  A    between atoms: N_12  and  N_13
REMARK    7  A    between atoms: C_14  and  C_16
REMARK    8  A    between atoms: C_17  and  C_27
REMARK                            x       y       z     vdW  Elec       q    Type
REMARK                         _______ _______ _______ _____ _____    ______ ____
ROOT
ATOM      1  N   UNL     1      -0.051   1.033   0.032  0.00  0.00    -0.230 N 
ATOM      2  C   UNL     1       1.089   1.752   0.029  0.00  0.00    +0.277 C 
ATOM      3  O   UNL     1       1.071   2.919  -0.315  0.00  0.00    -0.267 OA
ATOM      4  H   UNL     1      -0.035  -0.021   0.348  0.00  0.00    +0.173 HD
ENDROOT
BRANCH   2   5
ATOM      5  C   UNL     1       2.352   1.129   0.443  0.00  0.00    +0.107 A 
ATOM      6  C   UNL     1       3.572   1.744   0.480  0.00  0.00    -0.010 A 
ATOM      7  C   UNL     1       4.489   0.788   0.934  0.00  0.00    +0.042 A 
ATOM      8  C   UNL     1       3.791  -0.399   1.151  0.00  0.00    +0.027 A 
ATOM      9  N   UNL     1       2.509  -0.181   0.855  0.00  0.00    -0.354 N 
ATOM     10  H   UNL     1       1.640  -0.854   0.893  0.00  0.00    +0.166 HD
ATOM     11  C   UNL     1       4.455  -1.663   1.636  0.00  0.00    +0.054 C 
ATOM     12  C   UNL     1       5.958  -1.584   1.350  0.00  0.00    +0.014 C 
ATOM     13  C   UNL     1       6.550  -0.291   1.919  0.00  0.00    +0.080 C 
ATOM     14  C   UNL     1       5.937   0.886   1.174  0.00  0.00    +0.165 C 
ATOM     15  O   UNL     1       6.596   1.836   0.804  0.00  0.00    -0.292 OA
ATOM     16  C   UNL     1       3.872   3.173   0.108  0.00  0.00    +0.047 C 
ENDBRANCH   2   5
BRANCH   1  17
ATOM     17  N   UNL     1      -1.255   1.626  -0.368  0.00  0.00    -0.245 N 
ATOM     18  H   UNL     1      -1.272   2.681  -0.680  0.00  0.00    +0.172 HD
BRANCH  17  19
ATOM     19  C   UNL     1      -2.393   0.905  -0.371  0.00  0.00    +0.151 C 
ATOM     20  S   UNL     1      -3.865   1.630  -0.860  0.00  0.00    -0.017 S 
BRANCH  19  21
ATOM     21  N   UNL     1      -2.373  -0.388   0.011  0.00  0.00    -0.296 N 
ATOM     22  H   UNL     1      -1.416  -0.879   0.238  0.00  0.00    +0.154 HD
BRANCH  21  28
ATOM     23  C   UNL     1      -4.936  -4.497  -0.833  0.00  0.00    +0.044 C 
ATOM     24  C   UNL     1      -4.840  -3.098  -0.282  0.00  0.00    -0.046 A 
ATOM     25  C   UNL     1      -5.938  -2.520   0.330  0.00  0.00    +0.004 A 
ATOM     26  C   UNL     1      -5.854  -1.237   0.837  0.00  0.00    +0.002 A 
ATOM     27  C   UNL     1      -4.674  -0.527   0.733  0.00  0.00    +0.023 A 
ATOM     28  C   UNL     1      -3.570  -1.104   0.119  0.00  0.00    +0.036 A 
ATOM     29  C   UNL     1      -3.659  -2.392  -0.394  0.00  0.00    -0.026 A 
ATOM     30  C   UNL     1      -2.466  -3.019  -1.067  0.00  0.00    +0.046 C 
ENDBRANCH  21  28
ENDBRANCH  19  21
ENDBRANCH  17  19
ENDBRANCH   1  17
TORSDOF 5
