REMARK  Name = ZINC13035521
REMARK  11 active torsions:
REMARK  status: ('A' for Active; 'I' for Inactive)
REMARK    1  A    between atoms: C_1  and  O_2
REMARK    2  A    between atoms: O_2  and  C_3
REMARK    3  A    between atoms: C_3  and  C_4
REMARK    4  A    between atoms: C_4  and  C_5
REMARK    5  A    between atoms: C_5  and  N_6
REMARK    6  A    between atoms: C_12  and  C_34
REMARK    7  A    between atoms: C_16  and  S_17
REMARK    8  A    between atoms: S_17  and  C_18
REMARK    9  A    between atoms: C_18  and  C_19
REMARK   10  A    between atoms: N_21  and  C_22
REMARK   11  A    between atoms: C_22  and  C_23
REMARK                            x       y       z     vdW  Elec       q    Type
REMARK                         _______ _______ _______ _____ _____    ______ ____
ROOT
ATOM      1  N   UNL     1      -6.821   8.949   1.784  0.00  0.00    -0.287 N 
ATOM      2  C   UNL     1      -6.677  10.075   2.520  0.00  0.00    +0.262 A 
ATOM      3  O   UNL     1      -7.507  10.965   2.481  0.00  0.00    -0.267 OA
ATOM      4  C   UNL     1      -5.477  10.188   3.365  0.00  0.00    +0.065 A 
ATOM      5  C   UNL     1      -5.240  11.313   4.153  0.00  0.00    +0.016 A 
ATOM      6  C   UNL     1      -4.114  11.380   4.923  0.00  0.00    +0.016 A 
ATOM      7  C   UNL     1      -3.192  10.325   4.930  0.00  0.00    +0.065 A 
ATOM      8  C   UNL     1      -3.408   9.195   4.152  0.00  0.00    +0.043 A 
ATOM      9  C   UNL     1      -4.557   9.116   3.360  0.00  0.00    +0.080 A 
ATOM     10  N   UNL     1      -4.809   8.033   2.587  0.00  0.00    -0.223 NA
ATOM     11  C   UNL     1      -5.885   7.957   1.843  0.00  0.00    +0.173 A 
ENDROOT
BRANCH   7  12
ATOM     12  C   UNL     1      -1.979  10.416   5.772  0.00  0.00    +0.387 C 
ATOM     13  O   UNL     1      -1.176   9.505   5.781  0.00  0.00    -0.241 OA
ATOM     14  O   UNL     1      -1.764  11.511   6.527  0.00  0.00    -0.241 OA
ENDBRANCH   7  12
BRANCH   1  15
ATOM     15  C   UNL     1      -7.995   8.790   0.922  0.00  0.00    +0.129 C 
BRANCH  15  16
ATOM     16  C   UNL     1      -9.121   8.121   1.712  0.00  0.00    +0.050 C 
BRANCH  16  17
ATOM     17  C   UNL     1     -10.347   7.955   0.811  0.00  0.00    +0.161 C 
BRANCH  17  19
ATOM     18  C   UNL     1     -12.597   7.128   0.796  0.00  0.00    +0.193 C 
ATOM     19  O   UNL     1     -11.399   7.331   1.549  0.00  0.00    -0.383 OA
ENDBRANCH  17  19
ENDBRANCH  16  17
ENDBRANCH  15  16
ENDBRANCH   1  15
BRANCH  11  20
ATOM     20  S   UNL     1      -6.131   6.511   0.867  0.00  0.00    -0.078 S 
BRANCH  20  21
ATOM     21  C   UNL     1      -4.645   5.577   1.309  0.00  0.00    +0.173 C 
BRANCH  21  22
ATOM     22  C   UNL     1      -4.640   4.262   0.572  0.00  0.00    +0.223 C 
ATOM     23  O   UNL     1      -5.551   3.984  -0.178  0.00  0.00    -0.275 OA
ATOM     24  N   UNL     1      -3.622   3.396   0.747  0.00  0.00    -0.311 N 
ATOM     25  H   UNL     1      -2.893   3.618   1.347  0.00  0.00    +0.149 HD
BRANCH  24  26
ATOM     26  C   UNL     1      -3.617   2.118   0.030  0.00  0.00    +0.152 C 
BRANCH  26  27
ATOM     27  C   UNL     1      -2.361   1.329   0.404  0.00  0.00    +0.228 C 
ATOM     28  C   UNL     1      -2.350  -0.011  -0.344  0.00  0.00    +0.275 C 
ATOM     29  O   UNL     1      -1.158  -0.717   0.017  0.00  0.00    -0.485 OA
ATOM     30  C   UNL     1       0.002  -0.004   0.002  0.00  0.00    +0.162 A 
ATOM     31  C   UNL     1       1.214  -0.677  -0.017  0.00  0.00    +0.049 A 
ATOM     32  C   UNL     1       2.400   0.032  -0.027  0.00  0.00    +0.004 A 
ATOM     33  C   UNL     1       2.382   1.415  -0.017  0.00  0.00    +0.004 A 
ATOM     34  C   UNL     1       1.177   2.091   0.002  0.00  0.00    +0.049 A 
ATOM     35  C   UNL     1      -0.017   1.385   0.010  0.00  0.00    +0.163 A 
ATOM     36  O   UNL     1      -1.195   2.066   0.019  0.00  0.00    -0.480 OA
ENDBRANCH  26  27
ENDBRANCH  24  26
ENDBRANCH  21  22
ENDBRANCH  20  21
ENDBRANCH  11  20
TORSDOF 10
