REMARK  Name = ZINC12149862
REMARK  8 active torsions:
REMARK  status: ('A' for Active; 'I' for Inactive)
REMARK    1  A    between atoms: C_1  and  C_2
REMARK    2  A    between atoms: C_3  and  C_22
REMARK    3  A    between atoms: C_5  and  C_7
REMARK    4  A    between atoms: C_12  and  N_13
REMARK    5  A    between atoms: C_14  and  C_16
REMARK    6  A    between atoms: C_22  and  N_23
REMARK    7  A    between atoms: C_24  and  C_26
REMARK    8  A    between atoms: C_26  and  C_27
REMARK                            x       y       z     vdW  Elec       q    Type
REMARK                         _______ _______ _______ _____ _____    ______ ____
ROOT
ATOM      1  C   UNL     1       5.473   4.828   0.197  0.00  0.00    +0.088 C 
ATOM      2  C   UNL     1       6.412   3.650   0.168  0.00  0.00    +0.127 A 
ATOM      3  C   UNL     1       7.756   3.701   0.141  0.00  0.00    +0.100 A 
ATOM      4  N   UNL     1       8.215   2.440   0.121  0.00  0.00    -0.212 NA
ATOM      5  C   UNL     1       7.191   1.620   0.134  0.00  0.00    +0.229 A 
ATOM      6  O   UNL     1       6.061   2.348   0.157  0.00  0.00    -0.440 OA
ENDROOT
BRANCH   5   7
ATOM      7  C   UNL     1       7.266   0.145   0.119  0.00  0.00    +0.058 A 
ATOM      8  C   UNL     1       8.504  -0.495   0.197  0.00  0.00    +0.015 A 
ATOM      9  C   UNL     1       8.568  -1.872   0.182  0.00  0.00    +0.001 A 
ATOM     10  C   UNL     1       7.410  -2.625   0.091  0.00  0.00    +0.002 A 
ATOM     11  C   UNL     1       6.178  -2.005   0.018  0.00  0.00    +0.024 A 
ATOM     12  C   UNL     1       6.095  -0.620   0.026  0.00  0.00    +0.046 A 
BRANCH  12  13
ATOM     13  N   UNL     1       4.852   0.008  -0.052  0.00  0.00    -0.281 N 
ATOM     14  C   UNL     1       3.777  -0.548   0.541  0.00  0.00    +0.248 C 
ATOM     15  O   UNL     1       3.872  -1.638   1.072  0.00  0.00    -0.270 OA
ATOM     16  H   UNL     1       4.761   0.846  -0.532  0.00  0.00    +0.155 HD
BRANCH  14  17
ATOM     17  C   UNL     1       2.483   0.166   0.546  0.00  0.00    +0.037 A 
ATOM     18  C   UNL     1       1.368  -0.408   1.159  0.00  0.00    +0.013 A 
ATOM     19  C   UNL     1       0.163   0.264   1.160  0.00  0.00    +0.001 A 
ATOM     20  C   UNL     1       0.059   1.504   0.555  0.00  0.00    +0.000 A 
ATOM     21  C   UNL     1       1.160   2.079  -0.054  0.00  0.00    +0.001 A 
ATOM     22  C   UNL     1       2.371   1.417  -0.062  0.00  0.00    +0.013 A 
ENDBRANCH  14  17
ENDBRANCH  12  13
ENDBRANCH   5   7
BRANCH   3  23
ATOM     23  C   UNL     1       8.596   4.952   0.136  0.00  0.00    +0.163 C 
BRANCH  23  24
ATOM     24  N   UNL     1       8.841   5.369  -1.247  0.00  0.00    -0.310 N 
ATOM     25  C   UNL     1       9.575   6.472  -1.498  0.00  0.00    +0.215 C 
ATOM     26  O   UNL     1      10.032   7.118  -0.580  0.00  0.00    -0.276 OA
ATOM     27  H   UNL     1       8.475   4.853  -1.982  0.00  0.00    +0.149 HD
BRANCH  25  28
ATOM     28  C   UNL     1       9.827   6.901  -2.921  0.00  0.00    +0.122 C 
BRANCH  28  29
ATOM     29  C   UNL     1      10.680   8.171  -2.926  0.00  0.00    +0.113 C 
ATOM     30  C   UNL     1      10.838   8.682  -4.337  0.00  0.00    -0.015 A 
ATOM     31  C   UNL     1       9.944   9.115  -5.288  0.00  0.00    +0.006 A 
ATOM     32  C   UNL     1      10.401   9.536  -6.526  0.00  0.00    +0.000 A 
ATOM     33  C   UNL     1      11.756   9.523  -6.809  0.00  0.00    +0.001 A 
ATOM     34  C   UNL     1      12.661   9.090  -5.862  0.00  0.00    +0.013 A 
ATOM     35  C   UNL     1      12.207   8.664  -4.612  0.00  0.00    +0.042 A 
ATOM     36  C   UNL     1      12.912   8.158  -3.418  0.00  0.00    +0.245 C 
ATOM     37  O   UNL     1      14.117   8.019  -3.330  0.00  0.00    -0.270 OA
ATOM     38  N   UNL     1      12.033   7.872  -2.443  0.00  0.00    -0.304 N 
ATOM     39  H   UNL     1      12.255   7.526  -1.565  0.00  0.00    +0.150 HD
ENDBRANCH  28  29
ENDBRANCH  25  28
ENDBRANCH  23  24
ENDBRANCH   3  23
TORSDOF 7
