REMARK  Name = ZINC12618812
REMARK  8 active torsions:
REMARK  status: ('A' for Active; 'I' for Inactive)
REMARK    1  A    between atoms: C_1  and  C_2
REMARK    2  A    between atoms: C_2  and  C_3
REMARK    3  A    between atoms: C_9  and  N_10
REMARK    4  A    between atoms: C_9  and  N_68
REMARK    5  A    between atoms: N_13  and  C_30
REMARK    6  A    between atoms: C_14  and  C_16
REMARK    7  A    between atoms: C_20  and  S_22
REMARK    8  A    between atoms: S_22  and  N_25
REMARK                            x       y       z     vdW  Elec       q    Type
REMARK                         _______ _______ _______ _____ _____    ______ ____
ROOT
ATOM      1  N   UNL     1      -0.376   1.418  -1.654  0.00  0.00    -0.257 N 
ATOM      2  C   UNL     1      -0.226   2.630  -2.228  0.00  0.00    +0.181 A 
ATOM      3  S   UNL     1       0.829   3.872  -1.703  0.00  0.00    -0.011 S 
ATOM      4  N   UNL     1      -1.055   2.685  -3.289  0.00  0.00    -0.271 N 
ATOM      5  C   UNL     1      -1.732   1.483  -3.373  0.00  0.00    +0.167 A 
ATOM      6  N   UNL     1      -1.329   0.712  -2.401  0.00  0.00    -0.152 NA
ENDROOT
BRANCH   5   7
ATOM      7  C   UNL     1      -2.740   1.127  -4.396  0.00  0.00    +0.021 A 
ATOM      8  C   UNL     1      -2.811   1.848  -5.589  0.00  0.00    +0.012 A 
ATOM      9  C   UNL     1      -3.749   1.508  -6.542  0.00  0.00    +0.003 A 
ATOM     10  C   UNL     1      -4.625   0.462  -6.312  0.00  0.00    +0.028 A 
ATOM     11  C   UNL     1      -4.563  -0.253  -5.130  0.00  0.00    +0.106 A 
ATOM     12  C   UNL     1      -3.626   0.074  -4.171  0.00  0.00    +0.040 A 
BRANCH  11  13
ATOM     13  S   UNL     1      -5.684  -1.583  -4.846  0.00  0.00    +0.061 S 
ATOM     14  O   UNL     1      -6.105  -2.038  -6.125  0.00  0.00    -0.153 OA
ATOM     15  O   UNL     1      -5.064  -2.440  -3.898  0.00  0.00    -0.153 OA
BRANCH  13  16
ATOM     16  N   UNL     1      -7.022  -0.946  -4.107  0.00  0.00    -0.177 NA
ATOM     17  C   UNL     1      -7.218  -0.816  -2.655  0.00  0.00    +0.109 C 
ATOM     18  C   UNL     1      -8.613  -0.195  -2.435  0.00  0.00    +0.018 C 
ATOM     19  C   UNL     1      -9.357  -0.541  -3.752  0.00  0.00    +0.018 C 
ATOM     20  C   UNL     1      -8.216  -0.423  -4.794  0.00  0.00    +0.109 C 
ENDBRANCH  13  16
ENDBRANCH  11  13
ENDBRANCH   5   7
BRANCH   4  21
ATOM     21  C   UNL     1      -1.205   3.774  -4.158  0.00  0.00    +0.050 A 
ATOM     22  C   UNL     1      -2.392   4.494  -4.172  0.00  0.00    +0.026 A 
ATOM     23  C   UNL     1      -2.534   5.570  -5.026  0.00  0.00    +0.002 A 
ATOM     24  C   UNL     1      -1.501   5.924  -5.874  0.00  0.00    +0.000 A 
ATOM     25  C   UNL     1      -0.320   5.205  -5.866  0.00  0.00    +0.002 A 
ATOM     26  C   UNL     1      -0.169   4.131  -5.011  0.00  0.00    +0.026 A 
ENDBRANCH   4  21
BRANCH   1  27
ATOM     27  C   UNL     1       0.333   0.927  -0.470  0.00  0.00    +0.072 C 
BRANCH  27  33
ATOM     28  C   UNL     1       0.184   0.667   1.933  0.00  0.00    -0.066 C 
ATOM     29  C   UNL     1      -0.768   0.758   3.127  0.00  0.00    -0.015 C 
ATOM     30  C   UNL     1      -1.228   2.208   3.299  0.00  0.00    -0.003 C 
ATOM     31  C   UNL     1      -1.898   2.680   2.006  0.00  0.00    -0.019 C 
ATOM     32  C   UNL     1      -0.913   2.534   0.844  0.00  0.00    -0.076 C 
ATOM     33  N   UNL     1      -0.529   1.112   0.716  0.00  0.00    +0.395 N 
ATOM     34  H   UNL     1      -1.379   0.547   0.603  0.00  0.00    -0.079 HD
BRANCH  28  36
ATOM     35  C   UNL     1       1.440  -1.231   2.962  0.00  0.00    +0.002 C 
ATOM     36  C   UNL     1       0.629  -0.784   1.744  0.00  0.00    -0.019 C 
ENDBRANCH  28  36
ENDBRANCH  27  33
ENDBRANCH   1  27
TORSDOF 7
