REMARK  Name = ZINC66825074
REMARK  4 active torsions:
REMARK  status: ('A' for Active; 'I' for Inactive)
REMARK    1  A    between atoms: C_5  and  C_7
REMARK    2  A    between atoms: N_12  and  C_14
REMARK    3  A    between atoms: C_14  and  C_15
REMARK    4  A    between atoms: C_18  and  C_20
REMARK                            x       y       z     vdW  Elec       q    Type
REMARK                         _______ _______ _______ _____ _____    ______ ____
ROOT
ATOM      1  C   UNL     1       1.246  -2.165  -0.022  0.00  0.00    +0.094 A 
ATOM      2  C   UNL     1       0.032  -2.892  -0.019  0.00  0.00    +0.035 A 
ATOM      3  C   UNL     1       0.095  -4.254  -0.028  0.00  0.00    +0.074 A 
ATOM      4  C   UNL     1       1.372  -4.856  -0.039  0.00  0.00    +0.268 A 
ATOM      5  O   UNL     1       1.478  -6.072  -0.047  0.00  0.00    -0.266 OA
ATOM      6  N   UNL     1       2.472  -4.080  -0.040  0.00  0.00    -0.223 N 
ATOM      7  N   UNL     1       2.395  -2.799  -0.037  0.00  0.00    -0.168 NA
ENDROOT
BRANCH   1  12
ATOM      8  C   UNL     1      -0.017   1.376   0.010  0.00  0.00    +0.001 A 
ATOM      9  C   UNL     1       1.170   2.087   0.002  0.00  0.00    +0.003 A 
ATOM     10  C   UNL     1       2.382   1.422  -0.013  0.00  0.00    +0.039 A 
ATOM     11  C   UNL     1       2.414   0.040  -0.021  0.00  0.00    +0.133 A 
ATOM     12  C   UNL     1       1.219  -0.682  -0.013  0.00  0.00    +0.037 A 
ATOM     13  C   UNL     1       0.002  -0.004   0.002  0.00  0.00    +0.013 A 
ATOM     14  F   UNL     1       3.598  -0.610  -0.037  0.00  0.00    -0.205 F 
ENDBRANCH   1  12
BRANCH   6  15
ATOM     15  C   UNL     1       3.792  -4.715  -0.051  0.00  0.00    +0.206 C 
BRANCH  15  16
ATOM     16  C   UNL     1       4.237  -4.924  -1.476  0.00  0.00    +0.101 A 
ATOM     17  C   UNL     1       5.025  -4.099  -2.188  0.00  0.00    +0.222 A 
ATOM     18  O   UNL     1       5.181  -4.648  -3.410  0.00  0.00    -0.443 OA
ATOM     19  C   UNL     1       4.488  -5.801  -3.432  0.00  0.00    +0.234 A 
ATOM     20  N   UNL     1       3.922  -5.969  -2.257  0.00  0.00    -0.212 NA
BRANCH  19  21
ATOM     21  C   UNL     1       4.387  -6.722  -4.574  0.00  0.00    +0.074 A 
ATOM     22  C   UNL     1       4.960  -6.621  -5.828  0.00  0.00    +0.021 A 
ATOM     23  C   UNL     1       4.716  -7.621  -6.741  0.00  0.00    +0.008 A 
ATOM     24  C   UNL     1       3.928  -8.668  -6.385  0.00  0.00    +0.046 A 
ATOM     25  S   UNL     1       3.498  -8.265  -4.700  0.00  0.00    -0.092 S 
ENDBRANCH  19  21
ENDBRANCH  15  16
ENDBRANCH   6  15
TORSDOF 4
