REMARK  Name = ZINC39677481
REMARK  5 active torsions:
REMARK  status: ('A' for Active; 'I' for Inactive)
REMARK    1  A    between atoms: C_1  and  C_2
REMARK    2  A    between atoms: C_5  and  C_10
REMARK    3  A    between atoms: C_14  and  C_23
REMARK    4  A    between atoms: N_25  and  C_26
REMARK    5  A    between atoms: C_26  and  C_27
REMARK                            x       y       z     vdW  Elec       q    Type
REMARK                         _______ _______ _______ _____ _____    ______ ____
ROOT
ATOM      1  C   UNL     1       0.161  -4.532   0.066  0.00  0.00    +0.250 C 
ATOM      2  O   UNL     1       0.289  -5.232   1.052  0.00  0.00    -0.270 OA
ATOM      3  N   UNL     1       0.024  -5.099  -1.149  0.00  0.00    -0.296 N 
ATOM      4  C   UNL     1      -0.036  -4.421  -2.466  0.00  0.00    +0.121 C 
ATOM      5  C   UNL     1       0.779  -5.332  -3.412  0.00  0.00    +0.100 C 
ATOM      6  C   UNL     1       0.731  -6.721  -2.755  0.00  0.00    -0.004 C 
ATOM      7  C   UNL     1      -0.093  -6.541  -1.472  0.00  0.00    +0.115 C 
ATOM      8  C   UNL     1       2.141  -7.190  -2.406  0.00  0.00    -0.010 C 
ATOM      9  C   UNL     1       2.073  -8.597  -1.807  0.00  0.00    -0.082 C 
ATOM     10  N   UNL     1       1.456  -9.514  -2.774  0.00  0.00    +0.379 N 
ATOM     11  C   UNL     1       0.069  -9.109  -3.033  0.00  0.00    -0.082 C 
ATOM     12  C   UNL     1       0.052  -7.723  -3.684  0.00  0.00    -0.010 C 
ATOM     13  H   UNL     1       1.978  -9.491  -3.637  0.00  0.00    -0.086 HD
ATOM     14  H   UNL     1       1.467 -10.451  -2.401  0.00  0.00    -0.086 HD
ENDROOT
BRANCH   1  19
ATOM     15  C   UNL     1       0.127   1.201   0.585  0.00  0.00    +0.047 C 
ATOM     16  C   UNL     1       0.137  -0.300   0.451  0.00  0.00    -0.012 A 
ATOM     17  C   UNL     1      -0.640  -0.911  -0.518  0.00  0.00    +0.007 A 
ATOM     18  C   UNL     1      -0.637  -2.283  -0.648  0.00  0.00    +0.016 A 
ATOM     19  C   UNL     1       0.154  -3.061   0.200  0.00  0.00    +0.075 A 
ATOM     20  C   UNL     1       0.938  -2.442   1.177  0.00  0.00    +0.171 A 
ATOM     21  C   UNL     1       0.929  -1.061   1.293  0.00  0.00    +0.162 A 
ATOM     22  F   UNL     1       1.690  -0.458   2.232  0.00  0.00    -0.202 F 
ATOM     23  F   UNL     1       1.706  -3.186   2.003  0.00  0.00    -0.202 F 
ENDBRANCH   1  19
BRANCH   5  24
ATOM     24  C   UNL     1       2.201  -4.845  -3.513  0.00  0.00    +0.218 C 
ATOM     25  O   UNL     1       2.714  -4.272  -2.576  0.00  0.00    -0.275 OA
ATOM     26  N   UNL     1       2.903  -5.047  -4.646  0.00  0.00    -0.311 N 
ATOM     27  H   UNL     1       2.493  -5.506  -5.395  0.00  0.00    +0.149 HD
BRANCH  26  28
ATOM     28  C   UNL     1       4.286  -4.574  -4.744  0.00  0.00    +0.139 C 
BRANCH  28  29
ATOM     29  C   UNL     1       4.841  -4.923  -6.101  0.00  0.00    -0.027 A 
ATOM     30  C   UNL     1       5.479  -6.133  -6.296  0.00  0.00    +0.009 A 
ATOM     31  C   UNL     1       5.990  -6.456  -7.538  0.00  0.00    +0.050 A 
ATOM     32  C   UNL     1       5.864  -5.566  -8.595  0.00  0.00    +0.162 A 
ATOM     33  C   UNL     1       5.220  -4.350  -8.400  0.00  0.00    +0.162 A 
ATOM     34  C   UNL     1       4.706  -4.034  -7.151  0.00  0.00    +0.054 A 
ATOM     35  O   UNL     1       5.078  -3.465  -9.424  0.00  0.00    -0.485 OA
ATOM     36  C   UNL     1       5.925  -3.657 -10.562  0.00  0.00    +0.270 C 
ATOM     37  C   UNL     1       5.901  -5.145 -10.934  0.00  0.00    +0.270 C 
ATOM     38  O   UNL     1       6.376  -5.896  -9.812  0.00  0.00    -0.485 OA
ENDBRANCH  28  29
ENDBRANCH  26  28
ENDBRANCH   5  24
TORSDOF 4
