REMARK  Name = ZINC62039457
REMARK  8 active torsions:
REMARK  status: ('A' for Active; 'I' for Inactive)
REMARK    1  A    between atoms: C_1  and  C_2
REMARK    2  A    between atoms: C_2  and  C_3
REMARK    3  A    between atoms: C_9  and  C_11
REMARK    4  A    between atoms: C_11  and  C_12
REMARK    5  A    between atoms: C_15  and  C_17
REMARK    6  A    between atoms: C_20  and  C_23
REMARK    7  A    between atoms: C_23  and  N_24
REMARK    8  A    between atoms: N_27  and  C_30
REMARK                            x       y       z     vdW  Elec       q    Type
REMARK                         _______ _______ _______ _____ _____    ______ ____
ROOT
ATOM      1  C   UNL     1       3.584  -2.919   7.463  0.00  0.00    +0.058 A 
ATOM      2  C   UNL     1       3.789  -4.144   8.015  0.00  0.00    +0.071 A 
ATOM      3  S   UNL     1       2.893  -3.967   9.553  0.00  0.00    -0.075 S 
ATOM      4  C   UNL     1       2.345  -2.285   9.292  0.00  0.00    +0.109 A 
ATOM      5  N   UNL     1       2.878  -2.021   8.108  0.00  0.00    -0.243 NA
ENDROOT
BRANCH   4   6
ATOM      6  C   UNL     1       1.523  -1.420  10.166  0.00  0.00    +0.007 A 
ATOM      7  C   UNL     1       1.200  -0.123   9.764  0.00  0.00    +0.011 A 
ATOM      8  C   UNL     1       0.433   0.679  10.583  0.00  0.00    +0.005 A 
ATOM      9  C   UNL     1      -0.016   0.200  11.801  0.00  0.00    -0.033 A 
ATOM     10  C   UNL     1       0.300  -1.085  12.206  0.00  0.00    +0.005 A 
ATOM     11  C   UNL     1       1.061  -1.899  11.392  0.00  0.00    +0.011 A 
BRANCH   9  12
ATOM     12  C   UNL     1      -0.854   1.082  12.691  0.00  0.00    +0.119 C 
BRANCH  12  13
ATOM     13  N   UNL     1      -2.275   0.893  12.370  0.00  0.00    -0.302 NA
ATOM     14  C   UNL     1      -2.578   1.382  11.018  0.00  0.00    +0.066 C 
ATOM     15  C   UNL     1      -4.051   1.114  10.700  0.00  0.00    -0.064 C 
ATOM     16  N   UNL     1      -4.897   1.797  11.688  0.00  0.00    +0.379 N 
ATOM     17  C   UNL     1      -4.600   1.281  13.030  0.00  0.00    -0.064 C 
ATOM     18  C   UNL     1      -3.132   1.550  13.367  0.00  0.00    +0.066 C 
ATOM     19  C   UNL     1      -6.311   1.554  11.372  0.00  0.00    -0.096 C 
ATOM     20  H   UNL     1      -4.712   2.788  11.660  0.00  0.00    -0.082 HD
ENDBRANCH  12  13
ENDBRANCH   9  12
ENDBRANCH   4   6
BRANCH   1  21
ATOM     21  C   UNL     1       4.172  -2.591   6.115  0.00  0.00    +0.152 C 
BRANCH  21  28
ATOM     22  C   UNL     1       0.731  -0.503   1.223  0.00  0.00    +0.103 A 
ATOM     23  N   UNL     1       0.268  -0.803   2.420  0.00  0.00    -0.145 NA
ATOM     24  N   UNL     1       1.072  -1.211   3.306  0.00  0.00    -0.126 NA
ATOM     25  C   UNL     1       2.362  -1.344   3.067  0.00  0.00    +0.188 A 
ATOM     26  S   UNL     1       2.466  -0.863   1.455  0.00  0.00    -0.035 S 
ATOM     27  N   UNL     1       3.372  -1.774   3.921  0.00  0.00    -0.263 N 
ATOM     28  C   UNL     1       3.078  -2.125   5.189  0.00  0.00    +0.225 C 
ATOM     29  O   UNL     1       1.933  -2.065   5.585  0.00  0.00    -0.275 OA
ATOM     30  H   UNL     1       4.287  -1.823   3.604  0.00  0.00    +0.157 HD
BRANCH  22  32
ATOM     31  C   UNL     1      -0.019   1.526   0.010  0.00  0.00    +0.011 C 
ATOM     32  C   UNL     1       0.002  -0.004   0.002  0.00  0.00    +0.061 C 
ENDBRANCH  22  32
ENDBRANCH  21  28
ENDBRANCH   1  21
TORSDOF 6
