REMARK  Name = ZINC59311204
REMARK  6 active torsions:
REMARK  status: ('A' for Active; 'I' for Inactive)
REMARK    1  A    between atoms: C_6  and  C_7
REMARK    2  A    between atoms: C_7  and  N_8
REMARK    3  A    between atoms: C_9  and  C_11
REMARK    4  A    between atoms: C_11  and  S_12
REMARK    5  A    between atoms: S_12  and  C_13
REMARK    6  A    between atoms: N_18  and  N_19
REMARK                            x       y       z     vdW  Elec       q    Type
REMARK                         _______ _______ _______ _____ _____    ______ ____
ROOT
ATOM      1  C   UNL     1      -4.971  -3.592  -4.781  0.00  0.00    +0.211 A 
ATOM      2  N   UNL     1      -6.124  -4.082  -5.249  0.00  0.00    -0.186 NA
ATOM      3  C   UNL     1      -6.213  -3.848  -6.541  0.00  0.00    +0.232 A 
ATOM      4  N   UNL     1      -5.097  -3.192  -6.924  0.00  0.00    -0.245 N 
ATOM      5  N   UNL     1      -4.313  -3.035  -5.770  0.00  0.00    -0.144 NA
ATOM      6  N   UNL     1      -7.265  -4.210  -7.363  0.00  0.00    -0.205 N 
ATOM      7  H   UNL     1      -7.240  -3.993  -8.308  0.00  0.00    +0.177 HD
ATOM      8  H   UNL     1      -4.880  -2.887  -7.819  0.00  0.00    +0.192 HD
ENDROOT
BRANCH   6   9
ATOM      9  N   UNL     1      -8.367  -4.892  -6.831  0.00  0.00    -0.189 NA
ATOM     10  C   UNL     1      -9.293  -5.317  -7.606  0.00  0.00    +0.037 C 
ATOM     11  C   UNL     1      -9.136  -5.216  -9.120  0.00  0.00    +0.052 C 
ATOM     12  C   UNL     1      -9.677  -6.442  -9.804  0.00  0.00    +0.006 C 
ATOM     13  C   UNL     1     -11.168  -6.251 -10.118  0.00  0.00    +0.000 C 
ATOM     14  C   UNL     1     -12.026  -6.501  -8.957  0.00  0.00    +0.000 C 
ATOM     15  C   UNL     1     -11.776  -5.510  -7.812  0.00  0.00    +0.006 C 
ATOM     16  C   UNL     1     -10.560  -5.936  -7.026  0.00  0.00    +0.052 C 
ENDBRANCH   6   9
BRANCH   1  17
ATOM     17  S   UNL     1      -4.427  -3.675  -3.107  0.00  0.00    -0.075 S 
BRANCH  17  18
ATOM     18  C   UNL     1      -2.819  -2.837  -3.126  0.00  0.00    +0.173 C 
BRANCH  18  20
ATOM     19  N   UNL     1      -1.037  -2.265  -1.509  0.00  0.00    -0.311 N 
ATOM     20  C   UNL     1      -2.236  -2.837  -1.737  0.00  0.00    +0.224 C 
ATOM     21  O   UNL     1      -2.845  -3.353  -0.824  0.00  0.00    -0.275 OA
ATOM     22  H   UNL     1      -0.549  -1.853  -2.239  0.00  0.00    +0.149 HD
BRANCH  19  23
ATOM     23  C   UNL     1      -0.470  -2.266  -0.158  0.00  0.00    +0.139 C 
BRANCH  23  29
ATOM     24  C   UNL     1       0.937  -0.206   0.047  0.00  0.00    +0.008 A 
ATOM     25  C   UNL     1       2.162   0.434   0.033  0.00  0.00    +0.038 A 
ATOM     26  C   UNL     1       3.318  -0.290  -0.202  0.00  0.00    +0.123 A 
ATOM     27  C   UNL     1       3.246  -1.655  -0.423  0.00  0.00    +0.038 A 
ATOM     28  C   UNL     1       2.020  -2.293  -0.408  0.00  0.00    +0.008 A 
ATOM     29  C   UNL     1       0.866  -1.569  -0.173  0.00  0.00    -0.030 A 
ATOM     30  F   UNL     1       4.516   0.334  -0.216  0.00  0.00    -0.205 F 
ENDBRANCH  23  29
ENDBRANCH  19  23
ENDBRANCH  18  20
ENDBRANCH  17  18
ENDBRANCH   1  17
TORSDOF 6
