REMARK  Name = ZINC41125476
REMARK  6 active torsions:
REMARK  status: ('A' for Active; 'I' for Inactive)
REMARK    1  A    between atoms: C_4  and  C_7
REMARK    2  A    between atoms: C_7  and  C_8
REMARK    3  A    between atoms: C_8  and  C_10
REMARK    4  A    between atoms: C_8  and  N_21
REMARK    5  A    between atoms: N_21  and  S_22
REMARK    6  A    between atoms: S_22  and  C_25
REMARK                            x       y       z     vdW  Elec       q    Type
REMARK                         _______ _______ _______ _____ _____    ______ ____
ROOT
ATOM      1  C   UNL     1       4.171  -0.963   1.399  0.00  0.00    +0.111 C 
ENDROOT
BRANCH   1   2
ATOM      2  C   UNL     1       5.422  -1.804   1.383  0.00  0.00    -0.025 A 
ATOM      3  C   UNL     1       6.647  -1.213   1.138  0.00  0.00    +0.009 A 
ATOM      4  C   UNL     1       7.799  -1.979   1.122  0.00  0.00    +0.050 A 
ATOM      5  C   UNL     1       7.720  -3.342   1.355  0.00  0.00    +0.162 A 
ATOM      6  C   UNL     1       6.491  -3.935   1.602  0.00  0.00    +0.162 A 
ATOM      7  C   UNL     1       5.340  -3.165   1.621  0.00  0.00    +0.054 A 
ATOM      8  O   UNL     1       6.424  -5.279   1.831  0.00  0.00    -0.488 OA
ATOM      9  C   UNL     1       6.723  -6.119   0.714  0.00  0.00    +0.232 C 
ATOM     10  C   UNL     1       8.224  -6.328   0.583  0.00  0.00    +0.082 C 
ATOM     11  C   UNL     1       8.963  -5.038   0.264  0.00  0.00    +0.232 C 
ATOM     12  O   UNL     1       8.849  -4.109   1.344  0.00  0.00    -0.488 OA
ENDBRANCH   1   2
BRANCH   1  13
ATOM     13  N   UNL     1       4.451   0.315   2.057  0.00  0.00    -0.182 NA
ATOM     14  H   UNL     1       5.319   0.735   1.953  0.00  0.00    +0.149 HD
BRANCH  13  15
ATOM     15  S   UNL     1       3.285   1.044   2.980  0.00  0.00    +0.059 S 
ATOM     16  O   UNL     1       3.862   2.235   3.497  0.00  0.00    -0.153 OA
ATOM     17  O   UNL     1       2.096   1.048   2.203  0.00  0.00    -0.153 OA
BRANCH  15  18
ATOM     18  C   UNL     1       2.981  -0.008   4.361  0.00  0.00    +0.107 A 
ATOM     19  C   UNL     1       2.016  -0.995   4.278  0.00  0.00    +0.028 A 
ATOM     20  C   UNL     1       1.776  -1.821   5.361  0.00  0.00    +0.003 A 
ATOM     21  C   UNL     1       2.501  -1.659   6.527  0.00  0.00    +0.020 A 
ATOM     22  C   UNL     1       3.466  -0.672   6.610  0.00  0.00    +0.043 A 
ATOM     23  C   UNL     1       3.710   0.150   5.524  0.00  0.00    +0.048 A 
ATOM     24 CL   UNL     1       4.377  -0.469   8.074  0.00  0.00    -0.083 Cl
ENDBRANCH  15  18
ENDBRANCH  13  15
ENDBRANCH   1  13
BRANCH   1  25
ATOM     25  C   UNL     1       3.711  -0.707  -0.038  0.00  0.00    +0.060 C 
BRANCH  25  29
ATOM     26  C   UNL     1      -0.017   1.378   0.010  0.00  0.00    +0.000 A 
ATOM     27  C   UNL     1       1.171   2.086   0.002  0.00  0.00    +0.000 A 
ATOM     28  C   UNL     1       2.377   1.411  -0.013  0.00  0.00    +0.004 A 
ATOM     29  C   UNL     1       2.396   0.029  -0.020  0.00  0.00    -0.046 A 
ATOM     30  C   UNL     1       1.208  -0.679  -0.012  0.00  0.00    +0.004 A 
ATOM     31  C   UNL     1       0.002  -0.004   0.002  0.00  0.00    +0.000 A 
ENDBRANCH  25  29
ENDBRANCH   1  25
TORSDOF 6
