REMARK  Name = ZINC54038099
REMARK  9 active torsions:
REMARK  status: ('A' for Active; 'I' for Inactive)
REMARK    1  A    between atoms: C_1  and  C_2
REMARK    2  A    between atoms: C_9  and  C_11
REMARK    3  A    between atoms: N_13  and  N_14
REMARK    4  A    between atoms: N_17  and  C_18
REMARK    5  A    between atoms: C_18  and  C_19
REMARK    6  A    between atoms: C_19  and  C_21
REMARK    7  A    between atoms: C_19  and  N_26
REMARK    8  A    between atoms: N_26  and  C_27
REMARK    9  A    between atoms: N_26  and  C_28
REMARK                            x       y       z     vdW  Elec       q    Type
REMARK                         _______ _______ _______ _____ _____    ______ ____
ROOT
ATOM      1  N   UNL     1       2.937  -8.036   3.204  0.00  0.00    -0.218 N 
ATOM      2  C   UNL     1       2.712  -9.279   2.735  0.00  0.00    +0.316 C 
ATOM      3  O   UNL     1       2.860 -10.240   3.465  0.00  0.00    -0.251 OA
ATOM      4  N   UNL     1       2.323  -9.457   1.457  0.00  0.00    -0.299 N 
ATOM      5  H   UNL     1       3.217  -7.908   4.124  0.00  0.00    +0.174 HD
ATOM      6  H   UNL     1       2.205  -8.690   0.875  0.00  0.00    +0.150 HD
ENDROOT
BRANCH   1   9
ATOM      7  C   UNL     1       2.991  -5.685   2.833  0.00  0.00    +0.267 C 
ATOM      8  O   UNL     1       3.342  -5.524   3.987  0.00  0.00    -0.268 OA
ATOM      9  N   UNL     1       2.766  -6.928   2.364  0.00  0.00    -0.229 N 
ATOM     10  H   UNL     1       2.486  -7.056   1.444  0.00  0.00    +0.173 HD
BRANCH   7  18
ATOM     11  C   UNL     1       2.430   1.419   0.284  0.00  0.00    +0.008 C 
ATOM     12  C   UNL     1       2.139  -0.082   0.238  0.00  0.00    -0.009 C 
ATOM     13  C   UNL     1       2.582  -0.646  -1.115  0.00  0.00    +0.009 C 
ATOM     14  C   UNL     1       2.044  -2.076  -1.254  0.00  0.00    +0.043 C 
ATOM     15  C   UNL     1       2.360  -2.827   0.006  0.00  0.00    -0.006 A 
ATOM     16  C   UNL     1       2.747  -2.291   1.199  0.00  0.00    -0.036 A 
ATOM     17  C   UNL     1       2.989  -3.183   2.233  0.00  0.00    +0.024 A 
ATOM     18  C   UNL     1       2.813  -4.526   1.953  0.00  0.00    +0.076 A 
ATOM     19  S   UNL     1       2.313  -4.479   0.242  0.00  0.00    -0.088 S 
ATOM     20  C   UNL     1       2.901  -0.782   1.364  0.00  0.00    +0.039 C 
ENDBRANCH   7  18
ENDBRANCH   1   9
BRANCH   4  21
ATOM     21  C   UNL     1       2.079 -10.808   0.947  0.00  0.00    +0.098 C 
BRANCH  21  22
ATOM     22  C   UNL     1       1.529 -10.723  -0.479  0.00  0.00    +0.016 C 
BRANCH  22  23
ATOM     23  C   UNL     1       2.583 -10.149  -1.390  0.00  0.00    +0.093 A 
ATOM     24  C   UNL     1       3.377 -10.853  -2.216  0.00  0.00    +0.043 A 
ATOM     25  C   UNL     1       4.210  -9.920  -2.877  0.00  0.00    +0.041 A 
ATOM     26  C   UNL     1       3.874  -8.702  -2.415  0.00  0.00    +0.195 A 
ATOM     27  O   UNL     1       2.884  -8.846  -1.519  0.00  0.00    -0.469 OA
ENDBRANCH  22  23
BRANCH  22  28
ATOM     28  N   UNL     1       0.342  -9.858  -0.495  0.00  0.00    +0.384 N 
ATOM     29  C   UNL     1      -0.180  -9.769  -1.866  0.00  0.00    -0.096 C 
ATOM     30  C   UNL     1      -0.688 -10.423   0.386  0.00  0.00    -0.096 C 
ATOM     31  H   UNL     1       0.594  -8.936  -0.171  0.00  0.00    -0.082 HD
ENDBRANCH  22  28
ENDBRANCH  21  22
ENDBRANCH   4  21
TORSDOF 6
