REMARK  Name = ZINC13142476
REMARK  5 active torsions:
REMARK  status: ('A' for Active; 'I' for Inactive)
REMARK    1  A    between atoms: C_1  and  C_2
REMARK    2  A    between atoms: C_6  and  C_8
REMARK    3  A    between atoms: C_8  and  C_9
REMARK    4  A    between atoms: N_15  and  N_16
REMARK    5  A    between atoms: C_17  and  C_18
REMARK                            x       y       z     vdW  Elec       q    Type
REMARK                         _______ _______ _______ _____ _____    ______ ____
ROOT
ATOM      1  C   UNL     1       1.502  -3.083   2.921  0.00  0.00    +0.144 C 
ATOM      2  C   UNL     1       1.566  -3.874   4.218  0.00  0.00    +0.232 C 
ATOM      3  O   UNL     1       1.129  -5.002   4.307  0.00  0.00    -0.274 OA
ATOM      4  N   UNL     1       2.128  -3.256   5.242  0.00  0.00    -0.263 N 
ATOM      5  C   UNL     1       2.627  -1.974   5.150  0.00  0.00    +0.183 C 
ATOM      6  N   UNL     1       3.205  -1.256   6.090  0.00  0.00    -0.127 NA
ATOM      7  S   UNL     1       2.307  -1.515   3.452  0.00  0.00    -0.075 S 
ATOM      8  H   UNL     1       2.191  -3.721   6.091  0.00  0.00    +0.157 HD
ENDROOT
BRANCH   6   9
ATOM      9  N   UNL     1       3.618  -0.063   5.829  0.00  0.00    -0.152 NA
ATOM     10  C   UNL     1       4.193   0.650   6.763  0.00  0.00    +0.181 C 
BRANCH  10  11
ATOM     11  C   UNL     1       4.661   2.004   6.467  0.00  0.00    +0.147 A 
ATOM     12  C   UNL     1       5.279   2.850   7.344  0.00  0.00    +0.051 A 
ATOM     13  C   UNL     1       5.552   4.035   6.638  0.00  0.00    +0.042 A 
ATOM     14  C   UNL     1       5.095   3.863   5.381  0.00  0.00    +0.196 A 
ATOM     15  O   UNL     1       4.563   2.634   5.279  0.00  0.00    -0.462 OA
ENDBRANCH  10  11
ENDBRANCH   6   9
BRANCH   1  16
ATOM     16  C   UNL     1       0.054  -2.845   2.489  0.00  0.00    +0.059 C 
BRANCH  16  22
ATOM     17  C   UNL     1      -0.018   1.503   0.010  0.00  0.00    +0.044 C 
ATOM     18  C   UNL     1       0.002  -0.004   0.002  0.00  0.00    -0.050 A 
ATOM     19  C   UNL     1       0.006  -0.689  -1.199  0.00  0.00    +0.003 A 
ATOM     20  C   UNL     1       0.025  -2.071  -1.207  0.00  0.00    +0.001 A 
ATOM     21  C   UNL     1       0.040  -2.768  -0.013  0.00  0.00    +0.004 A 
ATOM     22  C   UNL     1       0.037  -2.084   1.188  0.00  0.00    -0.046 A 
ATOM     23  C   UNL     1       0.023  -0.702   1.195  0.00  0.00    +0.007 A 
ENDBRANCH  16  22
ENDBRANCH   1  16
TORSDOF 4
