REMARK  Name = ZINC59795457
REMARK  8 active torsions:
REMARK  status: ('A' for Active; 'I' for Inactive)
REMARK    1  A    between atoms: C_1  and  C_2
REMARK    2  A    between atoms: N_7  and  S_9
REMARK    3  A    between atoms: S_9  and  C_12
REMARK    4  A    between atoms: C_15  and  N_18
REMARK    5  A    between atoms: C_19  and  C_21
REMARK    6  A    between atoms: C_21  and  S_22
REMARK    7  A    between atoms: S_22  and  C_23
REMARK    8  A    between atoms: C_26  and  C_29
REMARK                            x       y       z     vdW  Elec       q    Type
REMARK                         _______ _______ _______ _____ _____    ______ ____
ROOT
ATOM      1  N   UNL     1       4.932  -3.675   6.082  0.00  0.00    -0.285 N 
ATOM      2  C   UNL     1       6.035  -4.327   5.665  0.00  0.00    +0.227 C 
ATOM      3  O   UNL     1       6.128  -4.685   4.510  0.00  0.00    -0.275 OA
ATOM      4  H   UNL     1       4.889  -3.321   6.984  0.00  0.00    +0.155 HD
ENDROOT
BRANCH   1   8
ATOM      5  C   UNL     1       1.705  -3.174   3.494  0.00  0.00    +0.106 A 
ATOM      6  C   UNL     1       2.482  -4.315   3.415  0.00  0.00    +0.030 A 
ATOM      7  C   UNL     1       3.552  -4.484   4.272  0.00  0.00    +0.025 A 
ATOM      8  C   UNL     1       3.848  -3.506   5.212  0.00  0.00    +0.034 A 
ATOM      9  C   UNL     1       3.066  -2.361   5.288  0.00  0.00    +0.025 A 
ATOM     10  C   UNL     1       2.000  -2.196   4.426  0.00  0.00    +0.030 A 
BRANCH   5  11
ATOM     11  S   UNL     1       0.340  -2.962   2.400  0.00  0.00    +0.061 S 
ATOM     12  O   UNL     1      -0.553  -2.059   3.035  0.00  0.00    -0.153 OA
ATOM     13  O   UNL     1      -0.056  -4.264   1.989  0.00  0.00    -0.153 OA
BRANCH  11  19
ATOM     14  C   UNL     1       0.302   1.218  -0.479  0.00  0.00    +0.009 C 
ATOM     15  C   UNL     1       0.190  -0.299  -0.310  0.00  0.00    +0.002 C 
ATOM     16  C   UNL     1       0.830  -0.996  -1.513  0.00  0.00    +0.006 C 
ATOM     17  C   UNL     1       0.689  -2.512  -1.360  0.00  0.00    +0.017 C 
ATOM     18  C   UNL     1       1.421  -2.964  -0.093  0.00  0.00    +0.109 C 
ATOM     19  N   UNL     1       0.911  -2.193   1.049  0.00  0.00    -0.176 NA
ATOM     20  C   UNL     1       0.916  -0.726   0.970  0.00  0.00    +0.112 C 
ENDBRANCH  11  19
ENDBRANCH   5  11
ENDBRANCH   1   8
BRANCH   2  21
ATOM     21  C   UNL     1       7.152  -4.613   6.635  0.00  0.00    +0.173 C 
BRANCH  21  22
ATOM     22  S   UNL     1       8.485  -5.497   5.778  0.00  0.00    -0.077 S 
BRANCH  22  23
ATOM     23  C   UNL     1       9.699  -5.754   7.029  0.00  0.00    +0.185 A 
ATOM     24  N   UNL     1       9.608  -5.371   8.284  0.00  0.00    -0.201 NA
ATOM     25  H   UNL     1      11.226  -6.777   6.050  0.00  0.00    +0.191 HD
ATOM     26  C   UNL     1      10.716  -5.734   8.947  0.00  0.00    +0.182 A 
ATOM     27  N   UNL     1      11.524  -6.354   8.117  0.00  0.00    -0.152 NA
ATOM     28  N   UNL     1      10.884  -6.384   6.868  0.00  0.00    -0.253 N 
BRANCH  26  29
ATOM     29  C   UNL     1      10.984  -5.478  10.384  0.00  0.00    +0.021 A 
ATOM     30  C   UNL     1      10.041  -4.812  11.163  0.00  0.00    +0.013 A 
ATOM     31  C   UNL     1      10.295  -4.576  12.499  0.00  0.00    +0.021 A 
ATOM     32  C   UNL     1      11.486  -4.999  13.064  0.00  0.00    +0.041 A 
ATOM     33  C   UNL     1      12.426  -5.661  12.294  0.00  0.00    +0.021 A 
ATOM     34  C   UNL     1      12.179  -5.907  10.959  0.00  0.00    +0.013 A 
ATOM     35 CL   UNL     1      11.800  -4.699  14.745  0.00  0.00    -0.084 Cl
ENDBRANCH  26  29
ENDBRANCH  22  23
ENDBRANCH  21  22
ENDBRANCH   2  21
TORSDOF 7
