REMARK  Name = ZINC09339562
REMARK  17 active torsions:
REMARK  status: ('A' for Active; 'I' for Inactive)
REMARK    1  A    between atoms: C_1  and  C_2
REMARK    2  A    between atoms: C_2  and  N_67
REMARK    3  A    between atoms: C_3  and  C_4
REMARK    4  A    between atoms: C_3  and  N_67
REMARK    5  A    between atoms: C_5  and  C_6
REMARK    6  A    between atoms: C_5  and  N_67
REMARK    7  A    between atoms: C_6  and  C_7
REMARK    8  A    between atoms: C_7  and  N_8
REMARK    9  A    between atoms: C_9  and  C_25
REMARK   10  A    between atoms: C_12  and  C_13
REMARK   11  A    between atoms: C_12  and  O_20
REMARK   12  A    between atoms: C_14  and  C_19
REMARK   13  A    between atoms: C_16  and  C_18
REMARK   14  A    between atoms: C_29  and  O_33
REMARK   15  A    between atoms: C_30  and  O_31
REMARK   16  A    between atoms: O_31  and  C_32
REMARK   17  A    between atoms: O_33  and  C_34
REMARK                            x       y       z     vdW  Elec       q    Type
REMARK                         _______ _______ _______ _____ _____    ______ ____
ROOT
ATOM      1  N   UNL     1      -1.720  -2.104  -1.416  0.00  0.00    -0.283 N 
ATOM      2  C   UNL     1      -2.060  -3.529  -1.362  0.00  0.00    +0.148 C 
ATOM      3  C   UNL     1      -0.760  -4.276  -1.172  0.00  0.00    +0.072 C 
ATOM      4  C   UNL     1      -0.597  -5.649  -1.065  0.00  0.00    +0.141 C 
ATOM      5  C   UNL     1       0.244  -3.304  -1.124  0.00  0.00    +0.249 C 
ATOM      6  O   UNL     1       1.436  -3.516  -0.980  0.00  0.00    -0.282 OA
ATOM      7  C   UNL     1      -0.391  -1.969  -1.279  0.00  0.00    +0.288 C 
ATOM      8  O   UNL     1       0.205  -0.911  -1.282  0.00  0.00    -0.266 OA
ENDROOT
BRANCH   4   9
ATOM      9  C   UNL     1       0.705  -6.203  -0.975  0.00  0.00    +0.077 A 
ATOM     10  C   UNL     1       1.315  -6.876   0.081  0.00  0.00    +0.056 A 
ATOM     11  N   UNL     1       2.542  -7.291  -0.095  0.00  0.00    -0.249 NA
ATOM     12  C   UNL     1       3.190  -7.088  -1.224  0.00  0.00    +0.076 A 
ATOM     13  S   UNL     1       2.019  -6.239  -2.186  0.00  0.00    -0.069 S 
ATOM     14  C   UNL     1       4.593  -7.495  -1.592  0.00  0.00    +0.073 C 
ATOM     15  C   UNL     1       0.589  -7.117   1.379  0.00  0.00    +0.067 C 
ENDBRANCH   4   9
BRANCH   2  16
ATOM     16  C   UNL     1      -2.984  -3.796  -0.201  0.00  0.00    +0.023 A 
ATOM     17  C   UNL     1      -4.322  -4.061  -0.428  0.00  0.00    +0.009 A 
ATOM     18  C   UNL     1      -5.170  -4.312   0.634  0.00  0.00    +0.004 A 
ATOM     19  C   UNL     1      -4.686  -4.287   1.929  0.00  0.00    +0.049 A 
ATOM     20  C   UNL     1      -3.348  -4.017   2.164  0.00  0.00    +0.162 A 
ATOM     21  C   UNL     1      -2.493  -3.770   1.094  0.00  0.00    +0.167 A 
BRANCH  21  22
ATOM     22  O   UNL     1      -1.178  -3.505   1.320  0.00  0.00    -0.491 OA
ATOM     23  C   UNL     1      -0.843  -2.169   1.702  0.00  0.00    +0.277 C 
ENDBRANCH  21  22
BRANCH  20  24
ATOM     24  O   UNL     1      -2.871  -3.993   3.438  0.00  0.00    -0.491 OA
ATOM     25  C   UNL     1      -3.807  -4.256   4.486  0.00  0.00    +0.277 C 
ENDBRANCH  20  24
ENDBRANCH   2  16
BRANCH   4  26
ATOM     26  O   UNL     1      -1.678  -6.460  -1.047  0.00  0.00    -0.505 OA
ATOM     27  H   UNL     1      -1.381  -7.411  -0.966  0.00  0.00    +0.292 HD
ENDBRANCH   4  26
BRANCH   1  28
ATOM     28  C   UNL     1      -2.674  -1.007  -1.596  0.00  0.00    +0.107 C 
BRANCH  28  29
ATOM     29  C   UNL     1      -3.120  -0.488  -0.227  0.00  0.00    +0.000 C 
BRANCH  29  30
ATOM     30  C   UNL     1      -4.182   0.597  -0.414  0.00  0.00    -0.077 C 
BRANCH  30  31
ATOM     31  N   UNL     1      -4.551   1.133   0.913  0.00  0.00    +0.379 N 
ATOM     32  H   UNL     1      -4.694   0.350   1.561  0.00  0.00    -0.082 HD
BRANCH  31  34
ATOM     33  C   UNL     1      -3.188   3.146   0.463  0.00  0.00    -0.017 C 
ATOM     34  C   UNL     1      -3.466   1.993   1.429  0.00  0.00    -0.082 C 
ENDBRANCH  31  34
BRANCH  31  35
ATOM     35  C   UNL     1      -5.806   1.908   0.813  0.00  0.00    -0.082 C 
ATOM     36  C   UNL     1      -6.344   2.155   2.224  0.00  0.00    -0.017 C 
ENDBRANCH  31  35
ENDBRANCH  30  31
ENDBRANCH  29  30
ENDBRANCH  28  29
ENDBRANCH   1  28
TORSDOF 11
