REMARK  Name = ZINC53994204
REMARK  6 active torsions:
REMARK  status: ('A' for Active; 'I' for Inactive)
REMARK    1  A    between atoms: C_4  and  N_7
REMARK    2  A    between atoms: C_8  and  N_29
REMARK    3  A    between atoms: C_9  and  N_19
REMARK    4  A    between atoms: C_10  and  S_12
REMARK    5  A    between atoms: S_12  and  C_13
REMARK    6  A    between atoms: C_20  and  C_22
REMARK                            x       y       z     vdW  Elec       q    Type
REMARK                         _______ _______ _______ _____ _____    ______ ____
ROOT
ATOM      1  N   UNL     1       4.009  -0.415   2.764  0.00  0.00    -0.216 N 
ATOM      2  C   UNL     1       4.289  -1.750   2.766  0.00  0.00    +0.142 A 
ATOM      3  C   UNL     1       5.516  -1.913   2.195  0.00  0.00    +0.108 A 
ATOM      4  C   UNL     1       5.994  -0.639   1.835  0.00  0.00    +0.147 A 
ATOM      5  N   UNL     1       5.089   0.252   2.171  0.00  0.00    -0.156 NA
ENDROOT
BRANCH   1   9
ATOM      6  C   UNL     1       0.542   1.365   4.240  0.00  0.00    +0.000 A 
ATOM      7  C   UNL     1       1.756   2.019   4.353  0.00  0.00    +0.002 A 
ATOM      8  C   UNL     1       2.906   1.432   3.865  0.00  0.00    +0.028 A 
ATOM      9  C   UNL     1       2.844   0.183   3.260  0.00  0.00    +0.068 A 
ATOM     10  C   UNL     1       1.624  -0.471   3.149  0.00  0.00    +0.028 A 
ATOM     11  C   UNL     1       0.477   0.121   3.639  0.00  0.00    +0.002 A 
ENDBRANCH   1   9
BRANCH   3  12
ATOM     12  N   UNL     1       6.187  -3.139   1.999  0.00  0.00    -0.277 N 
ATOM     13  C   UNL     1       6.381  -3.610   0.751  0.00  0.00    +0.248 C 
ATOM     14  O   UNL     1       5.892  -3.031  -0.200  0.00  0.00    -0.270 OA
ATOM     15  H   UNL     1       6.509  -3.643   2.763  0.00  0.00    +0.155 HD
BRANCH  13  16
ATOM     16  C   UNL     1       7.188  -4.829   0.538  0.00  0.00    +0.037 A 
ATOM     17  C   UNL     1       7.746  -5.499   1.629  0.00  0.00    +0.014 A 
ATOM     18  C   UNL     1       8.497  -6.637   1.424  0.00  0.00    +0.021 A 
ATOM     19  C   UNL     1       8.699  -7.115   0.140  0.00  0.00    +0.041 A 
ATOM     20  C   UNL     1       8.149  -6.455  -0.946  0.00  0.00    +0.021 A 
ATOM     21  C   UNL     1       7.390  -5.319  -0.753  0.00  0.00    +0.014 A 
ATOM     22 CL   UNL     1       9.647  -8.548  -0.110  0.00  0.00    -0.084 Cl
ENDBRANCH  13  16
ENDBRANCH   3  12
BRANCH   2  23
ATOM     23  N   UNL     1       3.470  -2.764   3.264  0.00  0.00    -0.342 N 
ATOM     24  H   UNL     1       2.610  -2.544   3.654  0.00  0.00    +0.144 HD
ATOM     25  H   UNL     1       3.761  -3.688   3.220  0.00  0.00    +0.144 HD
ENDBRANCH   2  23
BRANCH   4  26
ATOM     26  S   UNL     1       7.539  -0.298   1.059  0.00  0.00    -0.066 S 
BRANCH  26  27
ATOM     27  C   UNL     1       7.590   1.461   0.968  0.00  0.00    +0.014 A 
ATOM     28  C   UNL     1       7.220   2.227   2.067  0.00  0.00    +0.015 A 
ATOM     29  C   UNL     1       7.262   3.605   1.992  0.00  0.00    +0.001 A 
ATOM     30  C   UNL     1       7.672   4.223   0.824  0.00  0.00    +0.000 A 
ATOM     31  C   UNL     1       8.042   3.464  -0.271  0.00  0.00    +0.001 A 
ATOM     32  C   UNL     1       8.008   2.086  -0.202  0.00  0.00    +0.015 A 
ENDBRANCH  26  27
ENDBRANCH   4  26
TORSDOF 6
