REMARK  Name = ZINC34791162
REMARK  15 active torsions:
REMARK  status: ('A' for Active; 'I' for Inactive)
REMARK    1  A    between atoms: C_1  and  C_2
REMARK    2  A    between atoms: C_2  and  N_3
REMARK    3  A    between atoms: C_6  and  C_11
REMARK    4  A    between atoms: C_15  and  O_17
REMARK    5  A    between atoms: O_17  and  C_18
REMARK    6  A    between atoms: N_26  and  C_28
REMARK    7  A    between atoms: C_28  and  C_30
REMARK    8  A    between atoms: C_28  and  C_33
REMARK    9  A    between atoms: C_30  and  C_31
REMARK   10  A    between atoms: C_30  and  C_32
REMARK   11  A    between atoms: N_35  and  C_36
REMARK   12  A    between atoms: C_36  and  C_37
REMARK   13  A    between atoms: C_37  and  C_38
REMARK   14  A    between atoms: C_38  and  O_39
REMARK   15  A    between atoms: O_39  and  C_40
REMARK                            x       y       z     vdW  Elec       q    Type
REMARK                         _______ _______ _______ _____ _____    ______ ____
ROOT
ATOM      1  N   UNL     1      -0.189   0.684   0.170  0.00  0.00    -0.257 N 
ATOM      2  C   UNL     1      -1.175   0.128   0.934  0.00  0.00    +0.042 C 
ATOM      3  C   UNL     1      -2.266  -0.428   0.370  0.00  0.00    +0.058 C 
ATOM      4  C   UNL     1      -2.361  -0.416  -1.143  0.00  0.00    +0.142 C 
ATOM      5  N   UNL     1      -1.246   0.207  -1.876  0.00  0.00    -0.288 N 
ATOM      6  C   UNL     1      -0.224   0.727  -1.169  0.00  0.00    +0.307 C 
ATOM      7  O   UNL     1       0.699   1.247  -1.765  0.00  0.00    -0.252 OA
ATOM      8  C   UNL     1      -3.130  -0.930   1.364  0.00  0.00    +0.247 C 
ATOM      9  O   UNL     1      -4.191  -1.484   1.139  0.00  0.00    -0.270 OA
ATOM     10  N   UNL     1      -2.631  -0.716   2.595  0.00  0.00    -0.280 N 
ATOM     11  C   UNL     1      -1.344  -0.024   2.429  0.00  0.00    +0.160 C 
ATOM     12  H   UNL     1      -1.250   0.245  -2.845  0.00  0.00    +0.151 HD
ENDROOT
BRANCH   4  13
ATOM     13  C   UNL     1      -3.628   0.306  -1.523  0.00  0.00    -0.019 A 
ATOM     14  C   UNL     1      -3.659   1.689  -1.530  0.00  0.00    +0.006 A 
ATOM     15  C   UNL     1      -4.819   2.355  -1.879  0.00  0.00    +0.004 A 
ATOM     16  C   UNL     1      -5.951   1.641  -2.220  0.00  0.00    +0.046 A 
ATOM     17  C   UNL     1      -5.923   0.254  -2.213  0.00  0.00    +0.129 A 
ATOM     18  C   UNL     1      -4.755  -0.412  -1.869  0.00  0.00    +0.052 A 
BRANCH  17  19
ATOM     19  O   UNL     1      -7.035  -0.451  -2.549  0.00  0.00    -0.456 OA
BRANCH  19  20
ATOM     20  C   UNL     1      -6.944  -1.807  -2.585  0.00  0.00    +0.128 A 
ATOM     21  C   UNL     1      -6.996  -2.539  -1.408  0.00  0.00    +0.046 A 
ATOM     22  C   UNL     1      -6.904  -3.916  -1.448  0.00  0.00    +0.004 A 
ATOM     23  C   UNL     1      -6.759  -4.566  -2.660  0.00  0.00    +0.000 A 
ATOM     24  C   UNL     1      -6.707  -3.839  -3.835  0.00  0.00    +0.004 A 
ATOM     25  C   UNL     1      -6.805  -2.461  -3.801  0.00  0.00    +0.046 A 
ENDBRANCH  19  20
ENDBRANCH  17  19
ENDBRANCH   4  13
BRANCH   1  27
ATOM     26  C   UNL     1       0.691   2.746   1.147  0.00  0.00    +0.025 C 
ATOM     27  C   UNL     1       0.968   1.271   0.851  0.00  0.00    +0.111 C 
ENDBRANCH   1  27
BRANCH  10  28
ATOM     28  C   UNL     1      -3.254  -1.099   3.864  0.00  0.00    +0.165 C 
BRANCH  28  29
ATOM     29  C   UNL     1      -4.594  -0.423   3.991  0.00  0.00    +0.234 C 
ATOM     30  O   UNL     1      -5.114   0.080   3.018  0.00  0.00    -0.274 OA
ATOM     31  N   UNL     1      -5.216  -0.377   5.186  0.00  0.00    -0.314 N 
ATOM     32  H   UNL     1      -4.777  -0.732   5.975  0.00  0.00    +0.149 HD
BRANCH  31  33
ATOM     33  C   UNL     1      -6.554   0.208   5.293  0.00  0.00    +0.106 C 
BRANCH  33  34
ATOM     34  C   UNL     1      -7.027   0.136   6.747  0.00  0.00    +0.047 C 
BRANCH  34  35
ATOM     35  C   UNL     1      -8.425   0.748   6.859  0.00  0.00    +0.161 C 
BRANCH  35  36
ATOM     36  O   UNL     1      -8.867   0.680   8.216  0.00  0.00    -0.383 OA
ATOM     37  C   UNL     1     -10.169   1.228   8.432  0.00  0.00    +0.193 C 
ENDBRANCH  35  36
ENDBRANCH  34  35
ENDBRANCH  33  34
ENDBRANCH  31  33
ENDBRANCH  28  29
BRANCH  28  38
ATOM     38  C   UNL     1      -3.443  -2.617   3.901  0.00  0.00    +0.012 C 
ATOM     39  C   UNL     1      -2.099  -3.305   3.649  0.00  0.00    +0.009 C 
ATOM     40  C   UNL     1      -3.977  -3.031   5.274  0.00  0.00    +0.009 C 
ENDBRANCH  28  38
ENDBRANCH  10  28
TORSDOF 11
