REMARK  Name = ZINC59990250
REMARK  10 active torsions:
REMARK  status: ('A' for Active; 'I' for Inactive)
REMARK    1  A    between atoms: C_1  and  C_2
REMARK    2  A    between atoms: C_3  and  C_15
REMARK    3  A    between atoms: N_5  and  C_7
REMARK    4  A    between atoms: N_17  and  C_18
REMARK    5  A    between atoms: C_18  and  C_19
REMARK    6  A    between atoms: C_19  and  C_20
REMARK    7  A    between atoms: C_19  and  C_21
REMARK    8  A    between atoms: C_19  and  N_22
REMARK    9  A    between atoms: C_24  and  C_31
REMARK   10  A    between atoms: C_27  and  C_30
REMARK                            x       y       z     vdW  Elec       q    Type
REMARK                         _______ _______ _______ _____ _____    ______ ____
ROOT
ATOM      1  C   UNL     1       0.734   1.839  -4.482  0.00  0.00    +0.249 C 
ATOM      2  O   UNL     1       1.400   0.907  -4.071  0.00  0.00    -0.270 OA
ATOM      3  N   UNL     1      -0.564   1.653  -4.795  0.00  0.00    -0.313 N 
ATOM      4  H   UNL     1      -1.095   2.396  -5.122  0.00  0.00    +0.149 HD
ENDROOT
BRANCH   1   7
ATOM      5  C   UNL     1       2.172   2.926  -7.094  0.00  0.00    +0.068 C 
ATOM      6  C   UNL     1       1.989   3.667  -5.794  0.00  0.00    +0.074 A 
ATOM      7  C   UNL     1       1.346   3.169  -4.638  0.00  0.00    +0.096 A 
ATOM      8  C   UNL     1       1.399   4.166  -3.681  0.00  0.00    +0.145 A 
ATOM      9  N   UNL     1       2.041   5.215  -4.229  0.00  0.00    -0.220 N 
ATOM     10  N   UNL     1       2.402   4.878  -5.538  0.00  0.00    -0.170 NA
ATOM     11 CL   UNL     1       0.755   4.082  -2.071  0.00  0.00    -0.061 Cl
BRANCH   9  12
ATOM     12  C   UNL     1       2.308   6.436  -3.594  0.00  0.00    +0.067 A 
ATOM     13  C   UNL     1       1.399   6.960  -2.686  0.00  0.00    +0.030 A 
ATOM     14  C   UNL     1       1.663   8.163  -2.061  0.00  0.00    +0.040 A 
ATOM     15  C   UNL     1       2.836   8.846  -2.339  0.00  0.00    +0.124 A 
ATOM     16  C   UNL     1       3.744   8.324  -3.245  0.00  0.00    +0.040 A 
ATOM     17  C   UNL     1       3.486   7.119  -3.867  0.00  0.00    +0.030 A 
ATOM     18  F   UNL     1       3.093  10.022  -1.727  0.00  0.00    -0.205 F 
ENDBRANCH   9  12
ENDBRANCH   1   7
BRANCH   3  19
ATOM     19  C   UNL     1      -1.172   0.329  -4.640  0.00  0.00    +0.092 C 
BRANCH  19  20
ATOM     20  C   UNL     1      -2.671   0.419  -4.936  0.00  0.00    -0.055 C 
ATOM     21  C   UNL     1      -2.879   0.781  -6.407  0.00  0.00    -0.008 C 
ATOM     22  C   UNL     1      -3.330  -0.930  -4.644  0.00  0.00    -0.008 C 
BRANCH  20  23
ATOM     23  N   UNL     1      -3.276   1.454  -4.086  0.00  0.00    +0.384 N 
ATOM     24  C   UNL     1      -3.038   1.127  -2.675  0.00  0.00    -0.075 C 
ATOM     25  C   UNL     1      -3.596   2.243  -1.788  0.00  0.00    -0.031 C 
ATOM     26  C   UNL     1      -5.101   2.379  -2.035  0.00  0.00    +0.003 C 
ATOM     27  C   UNL     1      -5.342   2.645  -3.524  0.00  0.00    -0.031 C 
ATOM     28  C   UNL     1      -4.720   1.515  -4.346  0.00  0.00    -0.075 C 
ATOM     29  C   UNL     1      -4.699   3.977  -3.916  0.00  0.00    +0.005 C 
ATOM     30  C   UNL     1      -3.347   1.900  -0.318  0.00  0.00    +0.005 C 
ATOM     31  H   UNL     1      -2.859   2.348  -4.298  0.00  0.00    -0.081 HD
ENDBRANCH  20  23
ENDBRANCH  19  20
ENDBRANCH   3  19
TORSDOF 5
