REMARK  Name = ZINC07387399
REMARK  8 active torsions:
REMARK  status: ('A' for Active; 'I' for Inactive)
REMARK    1  A    between atoms: C_1  and  C_2
REMARK    2  A    between atoms: C_5  and  S_9
REMARK    3  A    between atoms: C_6  and  C_8
REMARK    4  A    between atoms: S_9  and  N_12
REMARK    5  A    between atoms: N_12  and  N_13
REMARK    6  A    between atoms: C_14  and  C_16
REMARK    7  A    between atoms: C_17  and  C_27
REMARK    8  A    between atoms: C_19  and  C_21
REMARK                            x       y       z     vdW  Elec       q    Type
REMARK                         _______ _______ _______ _____ _____    ______ ____
ROOT
ATOM      1  N   UNL     1      -0.124   1.268  -0.216  0.00  0.00    -0.227 N 
ATOM      2  C   UNL     1       0.984   2.021  -0.368  0.00  0.00    +0.267 C 
ATOM      3  O   UNL     1       2.082   1.495  -0.368  0.00  0.00    -0.268 OA
ATOM      4  H   UNL     1      -0.999   1.686  -0.220  0.00  0.00    +0.171 HD
ENDROOT
BRANCH   2   5
ATOM      5  C   UNL     1       0.866   3.472  -0.533  0.00  0.00    +0.098 A 
ATOM      6  C   UNL     1       1.858   4.430  -0.703  0.00  0.00    +0.058 A 
ATOM      7  N   UNL     1       1.487   5.675  -0.830  0.00  0.00    -0.243 NA
ATOM      8  C   UNL     1       0.208   6.025  -0.799  0.00  0.00    +0.109 A 
ATOM      9  S   UNL     1      -0.595   4.501  -0.581  0.00  0.00    -0.062 S 
ATOM     10  C   UNL     1       3.314   4.044  -0.740  0.00  0.00    +0.067 C 
BRANCH   8  11
ATOM     11  C   UNL     1      -0.384   7.373  -0.924  0.00  0.00    +0.007 A 
ATOM     12  C   UNL     1       0.439   8.488  -1.097  0.00  0.00    +0.010 A 
ATOM     13  C   UNL     1      -0.121   9.743  -1.218  0.00  0.00    +0.001 A 
ATOM     14  C   UNL     1      -1.494   9.899  -1.159  0.00  0.00    +0.000 A 
ATOM     15  C   UNL     1      -2.316   8.800  -0.983  0.00  0.00    +0.001 A 
ATOM     16  C   UNL     1      -1.769   7.539  -0.866  0.00  0.00    +0.010 A 
ENDBRANCH   8  11
ENDBRANCH   2   5
BRANCH   1  17
ATOM     17  N   UNL     1      -0.011  -0.120  -0.058  0.00  0.00    -0.108 NA
ATOM     18  H   UNL     1       0.468  -0.646  -0.718  0.00  0.00    +0.172 HD
BRANCH  17  19
ATOM     19  S   UNL     1      -0.695  -0.862   1.255  0.00  0.00    +0.074 S 
ATOM     20  O   UNL     1      -0.550  -2.261   1.052  0.00  0.00    -0.152 OA
ATOM     21  O   UNL     1      -0.185  -0.203   2.406  0.00  0.00    -0.152 OA
BRANCH  19  26
ATOM     22  C   UNL     1      -6.612   0.304   1.081  0.00  0.00    +0.044 C 
ATOM     23  C   UNL     1      -5.134   0.012   1.124  0.00  0.00    -0.050 A 
ATOM     24  C   UNL     1      -4.361   0.514   2.155  0.00  0.00    +0.005 A 
ATOM     25  C   UNL     1      -3.005   0.247   2.194  0.00  0.00    +0.029 A 
ATOM     26  C   UNL     1      -2.423  -0.522   1.204  0.00  0.00    +0.110 A 
ATOM     27  C   UNL     1      -3.195  -1.020   0.172  0.00  0.00    -0.024 A 
ATOM     28  C   UNL     1      -4.552  -0.757   0.135  0.00  0.00    +0.008 A 
ATOM     29  C   UNL     1      -2.559  -1.853  -0.911  0.00  0.00    +0.046 C 
ENDBRANCH  19  26
ENDBRANCH  17  19
ENDBRANCH   1  17
TORSDOF 5
