REMARK  Name = ZINC35924717
REMARK  11 active torsions:
REMARK  status: ('A' for Active; 'I' for Inactive)
REMARK    1  A    between atoms: C_1  and  C_2
REMARK    2  A    between atoms: C_2  and  C_3
REMARK    3  A    between atoms: C_3  and  C_5
REMARK    4  A    between atoms: C_3  and  N_6
REMARK    5  A    between atoms: C_7  and  C_9
REMARK    6  A    between atoms: C_9  and  C_10
REMARK    7  A    between atoms: C_17  and  C_21
REMARK    8  A    between atoms: C_18  and  C_20
REMARK    9  A    between atoms: C_23  and  C_34
REMARK   10  A    between atoms: N_24  and  C_26
REMARK   11  A    between atoms: C_31  and  C_32
REMARK                            x       y       z     vdW  Elec       q    Type
REMARK                         _______ _______ _______ _____ _____    ______ ____
ROOT
ATOM      1  C   UNL     1       6.862   1.530   3.777  0.00  0.00    +0.044 A 
ATOM      2  C   UNL     1       7.769   0.682   4.259  0.00  0.00    +0.071 A 
ATOM      3  S   UNL     1       7.988   1.288   5.925  0.00  0.00    -0.057 S 
ATOM      4  C   UNL     1       6.834   2.640   5.833  0.00  0.00    +0.180 A 
ATOM      5  N   UNL     1       6.362   2.551   4.551  0.00  0.00    -0.258 N 
ATOM      6  C   UNL     1       5.438   3.483   4.172  0.00  0.00    +0.268 A 
ATOM      7  O   UNL     1       4.971   3.460   3.045  0.00  0.00    -0.266 OA
ATOM      8  C   UNL     1       5.025   4.469   5.086  0.00  0.00    +0.088 A 
ATOM      9  C   UNL     1       5.565   4.483   6.367  0.00  0.00    +0.055 A 
ATOM     10  N   UNL     1       6.454   3.552   6.695  0.00  0.00    -0.227 NA
ATOM     11  C   UNL     1       5.143   5.528   7.368  0.00  0.00    +0.066 C 
ENDROOT
BRANCH   8  12
ATOM     12  C   UNL     1       4.024   5.486   4.686  0.00  0.00    +0.100 A 
ATOM     13  C   UNL     1       3.397   5.581   3.427  0.00  0.00    +0.053 A 
ATOM     14  C   UNL     1       2.554   6.636   3.461  0.00  0.00    +0.042 A 
ATOM     15  N   UNL     1       2.637   7.196   4.696  0.00  0.00    -0.236 N 
ATOM     16  N   UNL     1       3.559   6.455   5.447  0.00  0.00    -0.166 NA
ATOM     17  C   UNL     1       1.677   7.108   2.330  0.00  0.00    +0.066 C 
BRANCH  15  18
ATOM     18  C   UNL     1       1.921   8.314   5.142  0.00  0.00    +0.071 A 
ATOM     19  C   UNL     1       1.909   9.479   4.387  0.00  0.00    +0.066 A 
ATOM     20  C   UNL     1       1.201  10.581   4.830  0.00  0.00    +0.125 A 
ATOM     21  C   UNL     1       0.506  10.523   6.027  0.00  0.00    +0.039 A 
ATOM     22  C   UNL     1       0.518   9.364   6.780  0.00  0.00    +0.008 A 
ATOM     23  C   UNL     1       1.218   8.258   6.338  0.00  0.00    -0.025 A 
ATOM     24  C   UNL     1       1.223   6.993   7.157  0.00  0.00    +0.046 C 
ATOM     25  F   UNL     1       1.189  11.716   4.096  0.00  0.00    -0.205 F 
ENDBRANCH  15  18
ENDBRANCH   8  12
BRANCH   1  26
ATOM     26  C   UNL     1       6.380   1.373   2.357  0.00  0.00    +0.150 C 
BRANCH  26  28
ATOM     27  N   UNL     1       4.488   0.301   1.178  0.00  0.00    -0.312 N 
ATOM     28  C   UNL     1       5.105   0.570   2.346  0.00  0.00    +0.219 C 
ATOM     29  O   UNL     1       4.634   0.165   3.388  0.00  0.00    -0.275 OA
ATOM     30  H   UNL     1       4.865   0.624   0.345  0.00  0.00    +0.149 HD
BRANCH  27  31
ATOM     31  C   UNL     1       3.249  -0.480   1.167  0.00  0.00    +0.070 C 
ATOM     32  C   UNL     1       3.586  -1.972   1.163  0.00  0.00    +0.028 C 
BRANCH  31  34
ATOM     33  C   UNL     1       1.997   1.326  -0.022  0.00  0.00    +0.005 C 
ATOM     34  C   UNL     1       2.441  -0.137  -0.086  0.00  0.00    +0.018 C 
ENDBRANCH  31  34
ENDBRANCH  27  31
ENDBRANCH  26  28
ENDBRANCH   1  26
TORSDOF 6
