REMARK  Name = ZINC52888935
REMARK  9 active torsions:
REMARK  status: ('A' for Active; 'I' for Inactive)
REMARK    1  A    between atoms: C_2  and  C_3
REMARK    2  A    between atoms: C_3  and  N_4
REMARK    3  A    between atoms: C_5  and  C_19
REMARK    4  A    between atoms: C_8  and  S_9
REMARK    5  A    between atoms: S_9  and  C_10
REMARK    6  A    between atoms: C_10  and  C_11
REMARK    7  A    between atoms: C_13  and  C_16
REMARK    8  A    between atoms: C_19  and  O_20
REMARK    9  A    between atoms: O_20  and  C_21
REMARK                            x       y       z     vdW  Elec       q    Type
REMARK                         _______ _______ _______ _____ _____    ______ ____
ROOT
ATOM      1  N   UNL     1       1.367  -1.676   1.111  0.00  0.00    -0.299 N 
ATOM      2  C   UNL     1       1.833  -1.425   2.373  0.00  0.00    +0.172 A 
ATOM      3  N   UNL     1       1.697  -2.523   3.061  0.00  0.00    -0.130 NA
ATOM      4  N   UNL     1       1.181  -3.444   2.327  0.00  0.00    -0.122 NA
ATOM      5  C   UNL     1       0.954  -2.977   1.121  0.00  0.00    +0.192 A 
ENDROOT
BRANCH   1   6
ATOM      6  C   UNL     1       1.317  -0.740  -0.015  0.00  0.00    +0.152 C 
BRANCH   6   8
ATOM      7  C   UNL     1      -0.016   1.306   0.009  0.00  0.00    +0.005 C 
ATOM      8  C   UNL     1       0.002  -0.004   0.002  0.00  0.00    -0.013 C 
ENDBRANCH   6   8
ENDBRANCH   1   6
BRANCH   5   9
ATOM      9  S   UNL     1       0.251  -3.863  -0.230  0.00  0.00    -0.078 S 
BRANCH   9  10
ATOM     10  C   UNL     1      -0.067  -5.515   0.447  0.00  0.00    +0.157 C 
BRANCH  10  11
ATOM     11  C   UNL     1      -0.677  -6.386  -0.621  0.00  0.00    +0.182 A 
ATOM     12  N   UNL     1      -1.986  -6.514  -0.867  0.00  0.00    -0.195 NA
ATOM     13  C   UNL     1      -2.177  -7.344  -1.855  0.00  0.00    +0.230 A 
ATOM     14  O   UNL     1      -0.982  -7.777  -2.276  0.00  0.00    -0.338 OA
ATOM     15  N   UNL     1      -0.016  -7.133  -1.458  0.00  0.00    -0.060 NA
BRANCH  13  16
ATOM     16  C   UNL     1      -3.513  -7.745  -2.425  0.00  0.00    +0.078 C 
ATOM     17  C   UNL     1      -3.531  -8.883  -3.448  0.00  0.00    +0.014 C 
ATOM     18  C   UNL     1      -3.771  -7.442  -3.902  0.00  0.00    +0.014 C 
ENDBRANCH  13  16
ENDBRANCH  10  11
ENDBRANCH   9  10
ENDBRANCH   5   9
BRANCH   2  19
ATOM     19  C   UNL     1       2.398  -0.122   2.874  0.00  0.00    +0.305 C 
BRANCH  19  20
ATOM     20  O   UNL     1       1.343   0.680   3.410  0.00  0.00    -0.481 OA
BRANCH  20  21
ATOM     21  C   UNL     1       1.686   1.898   3.908  0.00  0.00    +0.156 A 
ATOM     22  C   UNL     1       3.008   2.314   3.876  0.00  0.00    +0.048 A 
ATOM     23  C   UNL     1       3.354   3.553   4.383  0.00  0.00    +0.004 A 
ATOM     24  C   UNL     1       2.384   4.377   4.923  0.00  0.00    +0.003 A 
ATOM     25  C   UNL     1       1.065   3.965   4.957  0.00  0.00    +0.042 A 
ATOM     26  C   UNL     1       0.711   2.730   4.445  0.00  0.00    +0.165 A 
ATOM     27  F   UNL     1      -0.579   2.330   4.472  0.00  0.00    -0.202 F 
ENDBRANCH  20  21
ENDBRANCH  19  20
ENDBRANCH   2  19
TORSDOF 9
