REMARK  Name = ZINC50564095
REMARK  7 active torsions:
REMARK  status: ('A' for Active; 'I' for Inactive)
REMARK    1  A    between atoms: C_1  and  C_2
REMARK    2  A    between atoms: N_7  and  C_11
REMARK    3  A    between atoms: C_8  and  C_10
REMARK    4  A    between atoms: C_14  and  S_18
REMARK    5  A    between atoms: C_16  and  N_17
REMARK    6  A    between atoms: S_18  and  N_21
REMARK    7  A    between atoms: N_21  and  C_22
REMARK                            x       y       z     vdW  Elec       q    Type
REMARK                         _______ _______ _______ _____ _____    ______ ____
ROOT
ATOM      1  C   UNL     1       0.430  -2.792   2.200  0.00  0.00    +0.051 A 
ATOM      2  C   UNL     1       1.298  -3.132   3.227  0.00  0.00    +0.027 A 
ATOM      3  C   UNL     1       0.862  -3.940   4.261  0.00  0.00    +0.030 A 
ATOM      4  C   UNL     1      -0.438  -4.411   4.275  0.00  0.00    +0.107 A 
ATOM      5  C   UNL     1      -1.310  -4.077   3.255  0.00  0.00    +0.053 A 
ATOM      6  C   UNL     1      -0.882  -3.263   2.217  0.00  0.00    +0.048 A 
ENDROOT
BRANCH   1  12
ATOM      7  C   UNL     1      -0.019   1.526   0.010  0.00  0.00    +0.009 C 
ATOM      8  C   UNL     1       0.002  -0.004   0.002  0.00  0.00    +0.006 C 
ATOM      9  C   UNL     1       0.720  -0.498  -1.256  0.00  0.00    +0.006 C 
ATOM     10  C   UNL     1       0.712  -2.028  -1.282  0.00  0.00    +0.019 C 
ATOM     11  C   UNL     1       1.463  -2.559  -0.057  0.00  0.00    +0.105 C 
ATOM     12  N   UNL     1       0.869  -1.973   1.153  0.00  0.00    -0.325 N 
ATOM     13  C   UNL     1       0.744  -0.512   1.242  0.00  0.00    +0.073 C 
ATOM     14  C   UNL     1      -0.044  -0.140   2.500  0.00  0.00    +0.028 C 
ENDBRANCH   1  12
BRANCH   6  15
ATOM     15  N   UNL     1      -1.765  -2.919   1.186  0.00  0.00    -0.356 N 
ATOM     16  H   UNL     1      -1.464  -2.352   0.458  0.00  0.00    +0.142 HD
ATOM     17  H   UNL     1      -2.678  -3.247   1.198  0.00  0.00    +0.142 HD
ENDBRANCH   6  15
BRANCH   4  18
ATOM     18  S   UNL     1      -0.985  -5.441   5.596  0.00  0.00    +0.058 S 
ATOM     19  O   UNL     1      -2.081  -6.195   5.096  0.00  0.00    -0.153 OA
ATOM     20  O   UNL     1       0.175  -6.053   6.141  0.00  0.00    -0.153 OA
BRANCH  18  21
ATOM     21  N   UNL     1      -1.593  -4.447   6.772  0.00  0.00    -0.193 NA
ATOM     22  C   UNL     1      -2.790  -3.644   6.507  0.00  0.00    +0.127 C 
ATOM     23  H   UNL     1      -1.156  -4.395   7.637  0.00  0.00    +0.148 HD
ENDBRANCH  18  21
ENDBRANCH   4  18
TORSDOF 4
