REMARK  Name = ZINC23084499
REMARK  13 active torsions:
REMARK  status: ('A' for Active; 'I' for Inactive)
REMARK    1  A    between atoms: C_1  and  C_2
REMARK    2  A    between atoms: C_2  and  O_3
REMARK    3  A    between atoms: O_3  and  C_4
REMARK    4  A    between atoms: C_4  and  C_6
REMARK    5  A    between atoms: C_7  and  C_35
REMARK    6  A    between atoms: C_12  and  C_16
REMARK    7  A    between atoms: C_16  and  C_18
REMARK    8  A    between atoms: C_16  and  N_19
REMARK    9  A    between atoms: N_22  and  C_25
REMARK   10  A    between atoms: C_25  and  C_26
REMARK   11  A    between atoms: C_29  and  C_32
REMARK   12  A    between atoms: C_32  and  C_33
REMARK   13  A    between atoms: C_32  and  C_34
REMARK                            x       y       z     vdW  Elec       q    Type
REMARK                         _______ _______ _______ _____ _____    ______ ____
ROOT
ATOM      1  C   UNL     1       2.440   4.014  -0.000  0.00  0.00    -0.004 C 
ATOM      2  C   UNL     1       3.279   3.549  -1.192  0.00  0.00    -0.005 C 
ENDROOT
BRANCH   1   9
ATOM      3  C   UNL     1      -3.656   2.330   0.031  0.00  0.00    +0.102 A 
ATOM      4  C   UNL     1      -2.602   1.462   0.022  0.00  0.00    -0.015 A 
ATOM      5  C   UNL     1      -1.296   1.956   0.019  0.00  0.00    +0.076 A 
ATOM      6  C   UNL     1      -0.014   1.214   0.009  0.00  0.00    +0.282 A 
ATOM      7  O   UNL     1       0.002  -0.004   0.002  0.00  0.00    -0.265 OA
ATOM      8  N   UNL     1       1.133   1.921   0.002  0.00  0.00    -0.197 NA
ATOM      9  C   UNL     1       1.126   3.276   0.008  0.00  0.00    +0.098 A 
ATOM     10  N   UNL     1       0.015   3.961   0.022  0.00  0.00    -0.339 N 
ATOM     11  C   UNL     1      -1.170   3.365   0.030  0.00  0.00    +0.092 A 
ATOM     12  S   UNL     1      -2.854   3.924   0.047  0.00  0.00    -0.064 S 
ATOM     13  C   UNL     1      -2.847  -0.025   0.015  0.00  0.00    +0.046 C 
ATOM     14  H   UNL     1       0.047   5.061   0.027  0.00  0.00    +0.167 HD
BRANCH   3  15
ATOM     15  C   UNL     1      -5.088   2.027   0.036  0.00  0.00    +0.346 C 
ATOM     16  O   UNL     1      -5.466   0.870   0.032  0.00  0.00    -0.244 OA
BRANCH  15  17
ATOM     17  O   UNL     1      -5.990   3.030   0.045  0.00  0.00    -0.461 OA
BRANCH  17  19
ATOM     18  C   UNL     1      -8.258   3.918   0.060  0.00  0.00    +0.048 C 
ATOM     19  C   UNL     1      -7.393   2.656   0.050  0.00  0.00    +0.229 C 
ENDBRANCH  17  19
ENDBRANCH  15  17
ENDBRANCH   3  15
ENDBRANCH   1   9
BRANCH   1  20
ATOM     20  N   UNL     1       2.191   5.458  -0.111  0.00  0.00    +0.388 N 
ATOM     21  C   UNL     1       1.490   5.776  -1.363  0.00  0.00    -0.062 C 
ATOM     22  C   UNL     1       1.179   7.274  -1.404  0.00  0.00    +0.066 C 
ATOM     23  N   UNL     1       2.432   8.035  -1.296  0.00  0.00    -0.302 NA
ATOM     24  C   UNL     1       3.132   7.716  -0.044  0.00  0.00    +0.066 C 
ATOM     25  C   UNL     1       3.443   6.218  -0.004  0.00  0.00    -0.062 C 
ATOM     26  H   UNL     1       1.541   5.752   0.726  0.00  0.00    -0.081 HD
BRANCH  23  27
ATOM     27  C   UNL     1       2.182   9.478  -1.407  0.00  0.00    +0.119 C 
BRANCH  27  28
ATOM     28  C   UNL     1       1.691   9.798  -2.796  0.00  0.00    -0.033 A 
ATOM     29  C   UNL     1       2.594  10.117  -3.792  0.00  0.00    +0.005 A 
ATOM     30  C   UNL     1       2.144  10.406  -5.067  0.00  0.00    +0.004 A 
ATOM     31  C   UNL     1       0.789  10.384  -5.343  0.00  0.00    -0.045 A 
ATOM     32  C   UNL     1      -0.114  10.070  -4.345  0.00  0.00    +0.004 A 
ATOM     33  C   UNL     1       0.337   9.777  -3.071  0.00  0.00    +0.005 A 
BRANCH  31  34
ATOM     34  C   UNL     1       0.298  10.703  -6.731  0.00  0.00    +0.013 C 
ATOM     35  C   UNL     1       0.730  12.120  -7.112  0.00  0.00    +0.012 C 
ATOM     36  C   UNL     1       0.894   9.703  -7.725  0.00  0.00    +0.012 C 
ENDBRANCH  31  34
ENDBRANCH  27  28
ENDBRANCH  23  27
ENDBRANCH   1  20
TORSDOF 8
