REMARK  Name = ZINC66306100
REMARK  5 active torsions:
REMARK  status: ('A' for Active; 'I' for Inactive)
REMARK    1  A    between atoms: C_1  and  C_2
REMARK    2  A    between atoms: C_7  and  C_8
REMARK    3  A    between atoms: C_10  and  C_13
REMARK    4  A    between atoms: N_15  and  C_16
REMARK    5  A    between atoms: C_21  and  N_23
REMARK                            x       y       z     vdW  Elec       q    Type
REMARK                         _______ _______ _______ _____ _____    ______ ____
ROOT
ATOM      1  C   UNL     1       0.014  -0.420   6.185  0.00  0.00    +0.263 C 
ATOM      2  O   UNL     1      -0.081   0.314   7.150  0.00  0.00    -0.269 OA
ATOM      3  N   UNL     1       0.230  -1.739   6.360  0.00  0.00    -0.305 N 
ATOM      4  H   UNL     1       0.306  -2.325   5.591  0.00  0.00    +0.149 HD
ENDROOT
BRANCH   1   7
ATOM      5  C   UNL     1      -0.121  -0.125   2.565  0.00  0.00    +0.109 A 
ATOM      6  N   UNL     1      -0.006  -0.661   3.766  0.00  0.00    -0.234 NA
ATOM      7  C   UNL     1      -0.108   0.131   4.824  0.00  0.00    +0.133 A 
ATOM      8  C   UNL     1      -0.328   1.470   4.635  0.00  0.00    +0.080 A 
ATOM      9  S   UNL     1      -0.381   1.596   2.957  0.00  0.00    -0.075 S 
BRANCH   5  16
ATOM     10  C   UNL     1       2.016  -1.993   2.008  0.00  0.00    +0.044 C 
ATOM     11  C   UNL     1       0.978  -1.682   0.961  0.00  0.00    -0.041 A 
ATOM     12  C   UNL     1       1.038  -2.293  -0.275  0.00  0.00    +0.004 A 
ATOM     13  C   UNL     1       0.086  -2.008  -1.238  0.00  0.00    +0.000 A 
ATOM     14  C   UNL     1      -0.931  -1.109  -0.969  0.00  0.00    +0.001 A 
ATOM     15  C   UNL     1      -1.002  -0.492   0.263  0.00  0.00    +0.011 A 
ATOM     16  C   UNL     1      -0.048  -0.779   1.240  0.00  0.00    +0.010 A 
ENDBRANCH   5  16
ENDBRANCH   1   7
BRANCH   3  17
ATOM     17  C   UNL     1       0.351  -2.288   7.713  0.00  0.00    +0.096 C 
ATOM     18  C   UNL     1      -1.044  -2.649   8.264  0.00  0.00    +0.024 C 
ATOM     19  C   UNL     1      -1.195  -4.159   7.956  0.00  0.00    +0.004 C 
ATOM     20  C   UNL     1       0.232  -4.704   8.214  0.00  0.00    +0.027 C 
ATOM     21  C   UNL     1       1.163  -3.594   7.682  0.00  0.00    +0.108 C 
BRANCH  21  22
ATOM     22  N   UNL     1       2.343  -3.473   8.542  0.00  0.00    -0.334 N 
ATOM     23  C   UNL     1       2.344  -3.228   9.889  0.00  0.00    +0.105 A 
ATOM     24  C   UNL     1       3.633  -3.196  10.278  0.00  0.00    +0.101 A 
ATOM     25  N   UNL     1       4.398  -3.415   9.198  0.00  0.00    -0.352 N 
ATOM     26  C   UNL     1       3.632  -3.587   8.155  0.00  0.00    +0.174 A 
ATOM     27  H   UNL     1       5.367  -3.445   9.193  0.00  0.00    +0.166 HD
ENDBRANCH  21  22
ENDBRANCH   3  17
TORSDOF 4
