REMARK  Name = ZINC64946659
REMARK  13 active torsions:
REMARK  status: ('A' for Active; 'I' for Inactive)
REMARK    1  A    between atoms: C_1  and  C_2
REMARK    2  A    between atoms: C_2  and  N_3
REMARK    3  A    between atoms: C_4  and  C_23
REMARK    4  A    between atoms: C_7  and  S_8
REMARK    5  A    between atoms: S_8  and  C_9
REMARK    6  A    between atoms: C_9  and  C_10
REMARK    7  A    between atoms: N_12  and  C_13
REMARK    8  A    between atoms: N_12  and  C_17
REMARK    9  A    between atoms: C_13  and  C_14
REMARK   10  A    between atoms: C_17  and  C_18
REMARK   11  A    between atoms: C_18  and  O_20
REMARK   12  A    between atoms: O_20  and  C_21
REMARK   13  A    between atoms: C_21  and  C_22
REMARK                            x       y       z     vdW  Elec       q    Type
REMARK                         _______ _______ _______ _____ _____    ______ ____
ROOT
ATOM      1  C   UNL     1       4.793  -1.052  -0.941  0.00  0.00    +0.173 C 
ENDROOT
BRANCH   1   2
ATOM      2  C   UNL     1       5.947  -0.946   0.023  0.00  0.00    +0.226 C 
ATOM      3  O   UNL     1       5.754  -0.573   1.161  0.00  0.00    -0.275 OA
ATOM      4  N   UNL     1       7.192  -1.265  -0.380  0.00  0.00    -0.290 N 
BRANCH   4   5
ATOM      5  C   UNL     1       7.425  -1.716  -1.754  0.00  0.00    +0.112 C 
BRANCH   5   6
ATOM      6  C   UNL     1       7.724  -0.507  -2.643  0.00  0.00    +0.006 C 
ATOM      7  C   UNL     1       6.735  -0.197  -3.769  0.00  0.00    +0.005 C 
ATOM      8  C   UNL     1       8.111  -0.778  -4.098  0.00  0.00    +0.005 C 
ENDBRANCH   5   6
ENDBRANCH   4   5
BRANCH   4   9
ATOM      9  C   UNL     1       8.314  -1.162   0.557  0.00  0.00    +0.228 C 
BRANCH   9  10
ATOM     10  C   UNL     1       8.484  -2.472   1.283  0.00  0.00    +0.325 C 
ATOM     11  O   UNL     1       7.745  -3.397   1.042  0.00  0.00    -0.249 OA
BRANCH  10  12
ATOM     12  O   UNL     1       9.458  -2.611   2.196  0.00  0.00    -0.464 OA
BRANCH  12  13
ATOM     13  C   UNL     1       9.561  -3.880   2.846  0.00  0.00    +0.229 C 
ATOM     14  C   UNL     1      10.719  -3.849   3.845  0.00  0.00    +0.048 C 
ENDBRANCH  12  13
ENDBRANCH  10  12
ENDBRANCH   9  10
ENDBRANCH   4   9
ENDBRANCH   1   2
BRANCH   1  15
ATOM     15  S   UNL     1       3.260  -0.556  -0.106  0.00  0.00    -0.077 S 
BRANCH  15  20
ATOM     16  N   UNL     1       0.688  -0.476  -1.203  0.00  0.00    -0.300 N 
ATOM     17  C   UNL     1       0.123  -0.750  -2.430  0.00  0.00    +0.200 A 
ATOM     18  N   UNL     1       1.095  -1.145  -3.222  0.00  0.00    -0.125 NA
ATOM     19  N   UNL     1       2.211  -1.137  -2.584  0.00  0.00    -0.122 NA
ATOM     20  C   UNL     1       2.023  -0.733  -1.348  0.00  0.00    +0.192 A 
BRANCH  17  21
ATOM     21  C   UNL     1      -1.299  -0.624  -2.786  0.00  0.00    +0.172 A 
ATOM     22  C   UNL     1      -1.810  -0.621  -4.049  0.00  0.00    +0.053 A 
ATOM     23  C   UNL     1      -3.206  -0.481  -3.921  0.00  0.00    +0.042 A 
ATOM     24  C   UNL     1      -3.477  -0.406  -2.602  0.00  0.00    +0.196 A 
ATOM     25  O   UNL     1      -2.324  -0.497  -1.919  0.00  0.00    -0.460 OA
ENDBRANCH  17  21
BRANCH  16  27
ATOM     26  C   UNL     1      -0.019   1.526   0.010  0.00  0.00    +0.027 C 
ATOM     27  C   UNL     1       0.002  -0.004   0.002  0.00  0.00    +0.122 C 
ENDBRANCH  16  27
ENDBRANCH  15  20
ENDBRANCH   1  15
TORSDOF 11
