REMARK  Name = ZINC20255367
REMARK  6 active torsions:
REMARK  status: ('A' for Active; 'I' for Inactive)
REMARK    1  A    between atoms: C_1  and  C_2
REMARK    2  A    between atoms: C_2  and  C_4
REMARK    3  A    between atoms: C_2  and  N_18
REMARK    4  A    between atoms: N_8  and  C_9
REMARK    5  A    between atoms: C_12  and  O_15
REMARK    6  A    between atoms: O_15  and  C_16
REMARK                            x       y       z     vdW  Elec       q    Type
REMARK                         _______ _______ _______ _____ _____    ______ ____
ROOT
ATOM      1  C   UNL     1       2.076   0.607   0.178  0.00  0.00    +0.125 A 
ATOM      2  N   UNL     1       1.117   1.487   0.245  0.00  0.00    -0.135 NA
ATOM      3  N   UNL     1      -0.011   0.900   0.425  0.00  0.00    -0.121 NA
ATOM      4  C   UNL     1       0.165  -0.400   0.484  0.00  0.00    +0.207 A 
ATOM      5  N   UNL     1       1.504  -0.629   0.328  0.00  0.00    -0.275 N 
ATOM      6  S   UNL     1      -1.086  -1.618   0.721  0.00  0.00    -0.009 SA
ENDROOT
BRANCH   5   7
ATOM      7  C   UNL     1       2.157  -1.872   0.323  0.00  0.00    +0.050 A 
ATOM      8  C   UNL     1       3.067  -2.182   1.324  0.00  0.00    +0.030 A 
ATOM      9  C   UNL     1       3.704  -3.407   1.322  0.00  0.00    +0.047 A 
ATOM     10  C   UNL     1       3.444  -4.323   0.312  0.00  0.00    +0.120 A 
ATOM     11  C   UNL     1       2.539  -4.011  -0.692  0.00  0.00    +0.047 A 
ATOM     12  C   UNL     1       1.897  -2.788  -0.687  0.00  0.00    +0.030 A 
BRANCH  10  13
ATOM     13  O   UNL     1       4.077  -5.526   0.307  0.00  0.00    -0.495 OA
ATOM     14  C   UNL     1       4.995  -5.781   1.372  0.00  0.00    +0.277 C 
ENDBRANCH  10  13
ENDBRANCH   5   7
BRANCH   1  16
ATOM     15  C   UNL     1       3.781   1.304  -1.481  0.00  0.00    -0.005 C 
ATOM     16  C   UNL     1       3.541   0.894  -0.027  0.00  0.00    -0.002 C 
BRANCH  16  17
ATOM     17  N   UNL     1       3.955   1.986   0.865  0.00  0.00    +0.386 N 
ATOM     18  C   UNL     1       5.386   2.275   0.713  0.00  0.00    -0.078 C 
ATOM     19  C   UNL     1       5.750   3.507   1.545  0.00  0.00    -0.019 C 
ATOM     20  C   UNL     1       5.417   3.240   3.016  0.00  0.00    -0.004 C 
ATOM     21  C   UNL     1       3.930   2.894   3.139  0.00  0.00    -0.019 C 
ATOM     22  C   UNL     1       3.619   1.680   2.261  0.00  0.00    -0.078 C 
ATOM     23  H   UNL     1       3.398   2.890   0.576  0.00  0.00    -0.081 HD
ENDBRANCH  16  17
ENDBRANCH   1  16
TORSDOF 4
