REMARK  Name = ZINC59158474
REMARK  9 active torsions:
REMARK  status: ('A' for Active; 'I' for Inactive)
REMARK    1  A    between atoms: C_1  and  C_2
REMARK    2  A    between atoms: C_2  and  C_4
REMARK    3  A    between atoms: C_2  and  S_27
REMARK    4  A    between atoms: N_6  and  N_7
REMARK    5  A    between atoms: N_15  and  C_18
REMARK    6  A    between atoms: C_18  and  C_19
REMARK    7  A    between atoms: C_19  and  O_20
REMARK    8  A    between atoms: O_20  and  C_21
REMARK    9  A    between atoms: S_27  and  C_28
REMARK                            x       y       z     vdW  Elec       q    Type
REMARK                         _______ _______ _______ _____ _____    ______ ____
ROOT
ATOM      1  N   UNL     1       0.749  -1.111   3.525  0.00  0.00    -0.174 NA
ATOM      2  C   UNL     1       0.134  -1.159   4.681  0.00  0.00    +0.153 C 
ATOM      3  C   UNL     1      -1.292  -0.869   4.957  0.00  0.00    +0.028 A 
ATOM      4  C   UNL     1      -2.359  -0.485   4.152  0.00  0.00    +0.012 A 
ATOM      5  C   UNL     1      -3.604  -0.285   4.715  0.00  0.00    +0.001 A 
ATOM      6  C   UNL     1      -3.788  -0.468   6.075  0.00  0.00    +0.002 A 
ATOM      7  C   UNL     1      -2.735  -0.849   6.882  0.00  0.00    +0.024 A 
ATOM      8  C   UNL     1      -1.474  -1.055   6.334  0.00  0.00    +0.046 A 
ATOM      9  N   UNL     1      -0.267  -1.434   6.910  0.00  0.00    -0.262 N 
ATOM     10  C   UNL     1       0.711  -1.519   5.992  0.00  0.00    +0.271 C 
ATOM     11  O   UNL     1       1.867  -1.833   6.205  0.00  0.00    -0.268 OA
ENDROOT
BRANCH   1  14
ATOM     12  C   UNL     1       0.685  -0.627   1.194  0.00  0.00    +0.245 C 
ATOM     13  O   UNL     1       1.778  -1.138   1.072  0.00  0.00    -0.273 OA
ATOM     14  N   UNL     1       0.097  -0.575   2.406  0.00  0.00    -0.205 N 
ATOM     15  H   UNL     1      -0.777  -0.167   2.504  0.00  0.00    +0.177 HD
BRANCH  12  17
ATOM     16  C   UNL     1       0.272   1.450  -0.096  0.00  0.00    +0.029 C 
ATOM     17  C   UNL     1      -0.016  -0.050  -0.008  0.00  0.00    +0.137 C 
BRANCH  17  18
ATOM     18  S   UNL     1       0.587  -0.870  -1.510  0.00  0.00    -0.093 S 
BRANCH  18  19
ATOM     19  C   UNL     1      -0.419  -0.202  -2.793  0.00  0.00    +0.098 A 
ATOM     20  C   UNL     1      -0.230  -0.622  -4.107  0.00  0.00    +0.035 A 
ATOM     21  C   UNL     1      -1.026  -0.089  -5.104  0.00  0.00    +0.004 A 
ATOM     22  C   UNL     1      -1.989   0.850  -4.753  0.00  0.00    +0.020 A 
ATOM     23  C   UNL     1      -2.122   1.221  -3.431  0.00  0.00    +0.112 A 
ATOM     24  N   UNL     1      -1.351   0.692  -2.499  0.00  0.00    -0.249 NA
ENDBRANCH  18  19
ENDBRANCH  17  18
ENDBRANCH  12  17
ENDBRANCH   1  14
BRANCH   9  25
ATOM     25  C   UNL     1      -0.086  -1.714   8.337  0.00  0.00    +0.155 C 
BRANCH  25  26
ATOM     26  C   UNL     1      -0.349  -3.197   8.604  0.00  0.00    +0.248 C 
BRANCH  26  27
ATOM     27  O   UNL     1       0.640  -3.983   7.936  0.00  0.00    -0.490 OA
BRANCH  27  28
ATOM     28  C   UNL     1       0.550  -5.333   8.072  0.00  0.00    +0.121 A 
ATOM     29  C   UNL     1      -0.473  -5.888   8.827  0.00  0.00    +0.045 A 
ATOM     30  C   UNL     1      -0.562  -7.260   8.963  0.00  0.00    +0.004 A 
ATOM     31  C   UNL     1       0.366  -8.079   8.348  0.00  0.00    +0.000 A 
ATOM     32  C   UNL     1       1.386  -7.528   7.595  0.00  0.00    +0.004 A 
ATOM     33  C   UNL     1       1.477  -6.157   7.450  0.00  0.00    +0.045 A 
ENDBRANCH  27  28
ENDBRANCH  26  27
ENDBRANCH  25  26
ENDBRANCH   9  25
TORSDOF 8
