REMARK  Name = ZINC36810820
REMARK  11 active torsions:
REMARK  status: ('A' for Active; 'I' for Inactive)
REMARK    1  A    between atoms: C_1  and  N_2
REMARK    2  A    between atoms: N_2  and  C_3
REMARK    3  A    between atoms: N_2  and  C_4
REMARK    4  A    between atoms: C_4  and  C_5
REMARK    5  A    between atoms: C_5  and  C_6
REMARK    6  A    between atoms: C_6  and  N_7
REMARK    7  A    between atoms: C_16  and  S_17
REMARK    8  A    between atoms: S_17  and  C_18
REMARK    9  A    between atoms: C_18  and  C_19
REMARK   10  A    between atoms: N_24  and  C_25
REMARK   11  A    between atoms: C_25  and  C_26
REMARK                            x       y       z     vdW  Elec       q    Type
REMARK                         _______ _______ _______ _____ _____    ______ ____
ROOT
ATOM      1  N   UNL     1      -2.777  -4.025  -0.239  0.00  0.00    -0.287 N 
ATOM      2  C   UNL     1      -2.810  -4.581  -1.465  0.00  0.00    +0.263 A 
ATOM      3  O   UNL     1      -2.854  -3.878  -2.460  0.00  0.00    -0.267 OA
ATOM      4  C   UNL     1      -2.794  -6.006  -1.583  0.00  0.00    +0.076 A 
ATOM      5  C   UNL     1      -2.825  -6.816  -2.802  0.00  0.00    -0.023 A 
ATOM      6  C   UNL     1      -2.800  -8.155  -2.648  0.00  0.00    -0.004 A 
ATOM      7  S   UNL     1      -2.735  -8.417  -0.896  0.00  0.00    -0.073 S 
ATOM      8  C   UNL     1      -2.742  -6.720  -0.374  0.00  0.00    +0.117 A 
ATOM      9  N   UNL     1      -2.711  -6.111   0.806  0.00  0.00    -0.216 NA
ATOM     10  C   UNL     1      -2.722  -4.796   0.886  0.00  0.00    +0.173 A 
ATOM     11  C   UNL     1      -2.825  -9.194  -3.728  0.00  0.00    +0.043 C 
ATOM     12  C   UNL     1      -3.258  -8.521  -5.038  0.00  0.00    +0.005 C 
ATOM     13  C   UNL     1      -2.445  -7.236  -5.222  0.00  0.00    +0.005 C 
ATOM     14  C   UNL     1      -2.883  -6.192  -4.194  0.00  0.00    +0.037 C 
ENDROOT
BRANCH   1  15
ATOM     15  C   UNL     1      -2.794  -2.566  -0.111  0.00  0.00    +0.125 C 
BRANCH  15  16
ATOM     16  C   UNL     1      -1.358  -2.037  -0.122  0.00  0.00    +0.003 C 
BRANCH  16  17
ATOM     17  C   UNL     1      -1.376  -0.512   0.012  0.00  0.00    -0.078 C 
BRANCH  17  19
ATOM     18  C   UNL     1      -0.018   1.465   0.010  0.00  0.00    -0.097 C 
ATOM     19  N   UNL     1       0.002  -0.004   0.002  0.00  0.00    +0.376 N 
ATOM     20  C   UNL     1       0.713  -0.491   1.192  0.00  0.00    -0.097 C 
ATOM     21  H   UNL     1       0.474  -0.330  -0.828  0.00  0.00    -0.083 HD
ENDBRANCH  17  19
ENDBRANCH  16  17
ENDBRANCH  15  16
ENDBRANCH   1  15
BRANCH  10  22
ATOM     22  S   UNL     1      -2.673  -4.021   2.468  0.00  0.00    -0.078 S 
BRANCH  22  23
ATOM     23  C   UNL     1      -2.607  -5.409   3.634  0.00  0.00    +0.173 C 
BRANCH  23  24
ATOM     24  C   UNL     1      -2.561  -4.879   5.044  0.00  0.00    +0.231 C 
ATOM     25  O   UNL     1      -2.571  -3.683   5.243  0.00  0.00    -0.274 OA
ATOM     26  N   UNL     1      -2.508  -5.734   6.084  0.00  0.00    -0.239 N 
ATOM     27  C   UNL     1      -2.467  -5.260   7.345  0.00  0.00    +0.306 C 
ATOM     28  O   UNL     1      -2.477  -4.061   7.544  0.00  0.00    -0.252 OA
ATOM     29  N   UNL     1      -2.414  -6.115   8.386  0.00  0.00    -0.296 N 
ATOM     30  H   UNL     1      -2.500  -6.691   5.926  0.00  0.00    +0.159 HD
ATOM     31  H   UNL     1      -2.405  -7.072   8.227  0.00  0.00    +0.151 HD
BRANCH  29  32
ATOM     32  C   UNL     1      -2.369  -5.600   9.756  0.00  0.00    +0.132 C 
BRANCH  32  33
ATOM     33  C   UNL     1      -2.314  -6.753  10.725  0.00  0.00    -0.016 C 
ATOM     34  C   UNL     1      -1.349  -6.821  11.608  0.00  0.00    +0.005 C 
ENDBRANCH  32  33
ENDBRANCH  29  32
ENDBRANCH  23  24
ENDBRANCH  22  23
ENDBRANCH  10  22
TORSDOF 9
