REMARK  Name = ZINC00865989
REMARK  5 active torsions:
REMARK  status: ('A' for Active; 'I' for Inactive)
REMARK    1  A    between atoms: C_4  and  C_7
REMARK    2  A    between atoms: C_10  and  C_31
REMARK    3  A    between atoms: C_14  and  C_17
REMARK    4  A    between atoms: N_19  and  C_20
REMARK    5  A    between atoms: C_25  and  C_26
REMARK                            x       y       z     vdW  Elec       q    Type
REMARK                         _______ _______ _______ _____ _____    ______ ____
ROOT
ATOM      1  C   UNL     1       3.700  -0.719  -0.024  0.00  0.00    +0.104 C 
ATOM      2  C   UNL     1       4.027  -1.212   1.390  0.00  0.00    +0.063 C 
ATOM      3  C   UNL     1       5.388  -1.917   1.393  0.00  0.00    +0.215 C 
ATOM      4  N   UNL     1       5.417  -2.896   0.301  0.00  0.00    -0.238 N 
ATOM      5  C   UNL     1       4.575  -2.862  -0.760  0.00  0.00    +0.130 A 
ATOM      6  C   UNL     1       4.890  -3.932  -1.577  0.00  0.00    +0.096 A 
ATOM      7  C   UNL     1       5.967  -4.615  -0.959  0.00  0.00    +0.149 A 
ATOM      8  N   UNL     1       6.266  -3.990   0.148  0.00  0.00    -0.177 NA
ATOM      9  N   UNL     1       3.603  -1.888  -0.921  0.00  0.00    -0.322 N 
ATOM     10  H   UNL     1       2.898  -1.970  -1.581  0.00  0.00    +0.148 HD
ENDROOT
BRANCH   1  14
ATOM     11  C   UNL     1      -0.023   1.375   0.007  0.00  0.00    +0.000 A 
ATOM     12  C   UNL     1       1.166   2.079   0.011  0.00  0.00    +0.000 A 
ATOM     13  C   UNL     1       2.371   1.402   0.001  0.00  0.00    +0.005 A 
ATOM     14  C   UNL     1       2.386   0.019  -0.012  0.00  0.00    -0.027 A 
ATOM     15  C   UNL     1       1.197  -0.685  -0.015  0.00  0.00    +0.005 A 
ATOM     16  C   UNL     1      -0.008  -0.007  -0.006  0.00  0.00    +0.000 A 
ENDBRANCH   1  14
BRANCH   6  17
ATOM     17  C   UNL     1       4.235  -4.290  -2.841  0.00  0.00    +0.253 C 
ATOM     18  O   UNL     1       3.314  -3.615  -3.262  0.00  0.00    -0.270 OA
ATOM     19  N   UNL     1       4.653  -5.368  -3.534  0.00  0.00    -0.281 N 
ATOM     20  H   UNL     1       5.436  -5.859  -3.241  0.00  0.00    +0.155 HD
BRANCH  19  21
ATOM     21  C   UNL     1       3.957  -5.778  -4.676  0.00  0.00    +0.045 A 
ATOM     22  C   UNL     1       2.614  -5.457  -4.825  0.00  0.00    +0.024 A 
ATOM     23  C   UNL     1       1.929  -5.863  -5.954  0.00  0.00    +0.002 A 
ATOM     24  C   UNL     1       2.580  -6.589  -6.934  0.00  0.00    +0.001 A 
ATOM     25  C   UNL     1       3.917  -6.911  -6.789  0.00  0.00    +0.014 A 
ATOM     26  C   UNL     1       4.608  -6.503  -5.665  0.00  0.00    +0.076 A 
BRANCH  26  27
ATOM     27  C   UNL     1       6.067  -6.848  -5.510  0.00  0.00    +0.419 C 
ATOM     28  F   UNL     1       6.495  -7.575  -6.626  0.00  0.00    -0.166 F 
ATOM     29  F   UNL     1       6.816  -5.671  -5.405  0.00  0.00    -0.166 F 
ATOM     30  F   UNL     1       6.244  -7.618  -4.356  0.00  0.00    -0.166 F 
ENDBRANCH  26  27
ENDBRANCH  19  21
ENDBRANCH   6  17
BRANCH   3  31
ATOM     31  C   UNL     1       5.592  -2.632   2.730  0.00  0.00    +0.412 C 
ATOM     32  F   UNL     1       4.578  -3.578   2.913  0.00  0.00    -0.168 F 
ATOM     33  F   UNL     1       6.835  -3.275   2.730  0.00  0.00    -0.168 F 
ATOM     34  F   UNL     1       5.551  -1.696   3.770  0.00  0.00    -0.168 F 
ENDBRANCH   3  31
TORSDOF 5
