REMARK  Name = ZINC09436172
REMARK  8 active torsions:
REMARK  status: ('A' for Active; 'I' for Inactive)
REMARK    1  A    between atoms: C_1  and  C_2
REMARK    2  A    between atoms: C_8  and  C_10
REMARK    3  A    between atoms: C_10  and  O_11
REMARK    4  A    between atoms: O_11  and  C_12
REMARK    5  A    between atoms: C_12  and  C_14
REMARK    6  A    between atoms: C_15  and  C_16
REMARK    7  A    between atoms: C_17  and  C_29
REMARK    8  A    between atoms: N_19  and  C_22
REMARK                            x       y       z     vdW  Elec       q    Type
REMARK                         _______ _______ _______ _____ _____    ______ ____
ROOT
ATOM      1  C   UNL     1      -7.710   4.381   6.878  0.00  0.00    +0.092 C 
ATOM      2  C   UNL     1      -8.984   4.687   7.217  0.00  0.00    +0.020 C 
ENDROOT
BRANCH   2   3
ATOM      3  C   UNL     1      -9.291   5.145   8.577  0.00  0.00    +0.035 A 
ATOM      4  C   UNL     1     -10.038   6.295   8.928  0.00  0.00    +0.069 A 
ATOM      5  N   UNL     1     -10.095   6.359  10.230  0.00  0.00    -0.170 NA
ATOM      6  N   UNL     1      -9.391   5.277  10.771  0.00  0.00    -0.221 N 
ATOM      7  C   UNL     1      -8.901   4.536   9.759  0.00  0.00    +0.140 A 
ATOM      8 CL   UNL     1      -7.955   3.088   9.908  0.00  0.00    -0.061 Cl
ATOM      9  C   UNL     1     -10.663   7.272   7.966  0.00  0.00    +0.068 C 
BRANCH   6  10
ATOM     10  C   UNL     1      -9.224   5.010  12.138  0.00  0.00    +0.067 A 
ATOM     11  C   UNL     1      -9.198   3.699  12.591  0.00  0.00    +0.030 A 
ATOM     12  C   UNL     1      -9.030   3.437  13.937  0.00  0.00    +0.040 A 
ATOM     13  C   UNL     1      -8.896   4.483  14.835  0.00  0.00    +0.124 A 
ATOM     14  C   UNL     1      -8.927   5.793  14.385  0.00  0.00    +0.040 A 
ATOM     15  C   UNL     1      -9.090   6.058  13.039  0.00  0.00    +0.030 A 
ATOM     16  F   UNL     1      -8.737   4.226  16.151  0.00  0.00    -0.205 F 
ENDBRANCH   6  10
ENDBRANCH   2   3
BRANCH   1  17
ATOM     17  C   UNL     1      -7.413   3.940   5.567  0.00  0.00    +0.332 C 
ATOM     18  O   UNL     1      -8.304   3.835   4.745  0.00  0.00    -0.246 OA
BRANCH  17  19
ATOM     19  O   UNL     1      -6.143   3.635   5.229  0.00  0.00    -0.452 OA
BRANCH  19  20
ATOM     20  C   UNL     1      -5.916   3.196   3.889  0.00  0.00    +0.328 C 
BRANCH  20  28
ATOM     21  C   UNL     1      -0.013   1.086   0.008  0.00  0.00    +0.066 C 
ATOM     22  C   UNL     1      -0.718   1.572   1.248  0.00  0.00    +0.047 A 
ATOM     23  C   UNL     1      -0.029   1.806   2.391  0.00  0.00    +0.071 A 
ATOM     24  S   UNL     1      -1.348   2.342   3.471  0.00  0.00    -0.060 S 
ATOM     25  C   UNL     1      -2.646   2.204   2.326  0.00  0.00    +0.165 A 
ATOM     26  N   UNL     1      -2.019   1.784   1.244  0.00  0.00    -0.230 NA
ATOM     27  N   UNL     1      -3.999   2.473   2.502  0.00  0.00    -0.262 N 
ATOM     28  C   UNL     1      -4.449   2.904   3.697  0.00  0.00    +0.256 C 
ATOM     29  O   UNL     1      -3.675   3.058   4.618  0.00  0.00    -0.272 OA
ATOM     30  H   UNL     1      -4.618   2.351   1.766  0.00  0.00    +0.157 HD
ENDBRANCH  20  28
ENDBRANCH  19  20
ENDBRANCH  17  19
ENDBRANCH   1  17
TORSDOF 6
