REMARK  Name = ZINC06782566
REMARK  4 active torsions:
REMARK  status: ('A' for Active; 'I' for Inactive)
REMARK    1  A    between atoms: C_1  and  C_2
REMARK    2  A    between atoms: C_7  and  N_12
REMARK    3  A    between atoms: C_9  and  C_11
REMARK    4  A    between atoms: C_13  and  C_15
REMARK                            x       y       z     vdW  Elec       q    Type
REMARK                         _______ _______ _______ _____ _____    ______ ____
ROOT
ATOM      1  C   UNL     1      -5.084  -0.411  -0.965  0.00  0.00    +0.078 C 
ATOM      2  C   UNL     1      -4.717  -1.350   0.187  0.00  0.00    +0.031 C 
ATOM      3  C   UNL     1      -3.265  -1.806   0.024  0.00  0.00    +0.107 C 
ATOM      4  N   UNL     1      -2.380  -0.635   0.022  0.00  0.00    -0.313 N 
ATOM      5  C   UNL     1      -2.683   0.258  -1.104  0.00  0.00    +0.107 C 
ATOM      6  C   UNL     1      -4.117   0.776  -0.974  0.00  0.00    +0.031 C 
ATOM      7  C   UNL     1      -1.052  -1.018   0.007  0.00  0.00    +0.146 A 
ATOM      8  C   UNL     1       0.002  -0.004   0.002  0.00  0.00    +0.087 A 
ATOM      9  C   UNL     1      -0.017   1.373   0.010  0.00  0.00    +0.031 A 
ATOM     10  C   UNL     1       1.315   1.802  -0.001  0.00  0.00    +0.020 A 
ATOM     11  C   UNL     1       2.107   0.702  -0.014  0.00  0.00    +0.092 A 
ATOM     12  N   UNL     1       1.322  -0.405  -0.013  0.00  0.00    -0.311 N 
ATOM     13  C   UNL     1       1.608  -1.767  -0.022  0.00  0.00    +0.072 A 
ATOM     14  C   UNL     1       2.925  -2.205  -0.037  0.00  0.00    +0.028 A 
ATOM     15  C   UNL     1       3.204  -3.556  -0.047  0.00  0.00    +0.002 A 
ATOM     16  C   UNL     1       2.174  -4.484  -0.042  0.00  0.00    +0.002 A 
ATOM     17  C   UNL     1       0.861  -4.069  -0.028  0.00  0.00    +0.030 A 
ATOM     18  C   UNL     1       0.561  -2.701  -0.018  0.00  0.00    +0.090 A 
ATOM     19  N   UNL     1      -0.736  -2.294  -0.003  0.00  0.00    -0.228 NA
ENDROOT
BRANCH   1  21
ATOM     20  N   UNL     1      -7.034   0.934  -1.678  0.00  0.00    -0.312 N 
ATOM     21  C   UNL     1      -6.494   0.088  -0.778  0.00  0.00    +0.216 C 
ATOM     22  O   UNL     1      -7.142  -0.271   0.182  0.00  0.00    -0.276 OA
ATOM     23  H   UNL     1      -6.516   1.221  -2.446  0.00  0.00    +0.149 HD
BRANCH  20  29
ATOM     24  C   UNL     1     -11.009   2.709  -4.021  0.00  0.00    +0.008 C 
ATOM     25  C   UNL     1     -10.422   2.318  -2.664  0.00  0.00    -0.009 C 
ATOM     26  C   UNL     1     -10.413   3.538  -1.741  0.00  0.00    +0.003 C 
ATOM     27  C   UNL     1      -9.826   3.147  -0.383  0.00  0.00    +0.002 C 
ATOM     28  C   UNL     1      -8.395   2.640  -0.573  0.00  0.00    +0.022 C 
ATOM     29  C   UNL     1      -8.405   1.419  -1.496  0.00  0.00    +0.076 C 
ATOM     30  C   UNL     1      -8.991   1.811  -2.853  0.00  0.00    +0.009 C 
ATOM     31  C   UNL     1      -8.138   2.916  -3.478  0.00  0.00    +0.009 C 
ENDBRANCH  20  29
ENDBRANCH   1  21
TORSDOF 2
