REMARK  Name = ZINC35124115
REMARK  8 active torsions:
REMARK  status: ('A' for Active; 'I' for Inactive)
REMARK    1  A    between atoms: C_1  and  C_2
REMARK    2  A    between atoms: C_7  and  N_8
REMARK    3  A    between atoms: C_12  and  C_24
REMARK    4  A    between atoms: C_16  and  C_18
REMARK    5  A    between atoms: C_24  and  O_26
REMARK    6  A    between atoms: O_26  and  C_27
REMARK    7  A    between atoms: C_27  and  C_28
REMARK    8  A    between atoms: C_27  and  C_29
REMARK                            x       y       z     vdW  Elec       q    Type
REMARK                         _______ _______ _______ _____ _____    ______ ____
ROOT
ATOM      1  N   UNL     1       0.009  -0.011   2.417  0.00  0.00    -0.269 N 
ATOM      2  C   UNL     1      -0.053  -0.691   3.578  0.00  0.00    +0.308 C 
ATOM      3  O   UNL     1      -0.018  -1.907   3.573  0.00  0.00    -0.252 OA
ATOM      4  N   UNL     1      -0.154  -0.025   4.745  0.00  0.00    -0.259 N 
ATOM      5  C   UNL     1      -0.291   1.421   4.790  0.00  0.00    +0.197 C 
ATOM      6  C   UNL     1      -0.371   2.013   6.219  0.00  0.00    +0.105 C 
ATOM      7  S   UNL     1       0.397   0.633   7.179  0.00  0.00    -0.136 S 
ATOM      8  C   UNL     1      -0.138  -0.728   6.047  0.00  0.00    +0.139 C 
ATOM      9  H   UNL     1       0.043   0.959   2.424  0.00  0.00    +0.156 HD
ENDROOT
BRANCH   1  16
ATOM     10  C   UNL     1      -1.322   1.158   0.190  0.00  0.00    +0.045 C 
ATOM     11  C   UNL     1      -0.614  -0.168   0.088  0.00  0.00    -0.029 A 
ATOM     12  C   UNL     1      -0.593  -0.851  -1.113  0.00  0.00    +0.005 A 
ATOM     13  C   UNL     1       0.057  -2.068  -1.206  0.00  0.00    +0.000 A 
ATOM     14  C   UNL     1       0.687  -2.606  -0.099  0.00  0.00    +0.002 A 
ATOM     15  C   UNL     1       0.670  -1.928   1.104  0.00  0.00    +0.023 A 
ATOM     16  C   UNL     1       0.023  -0.703   1.200  0.00  0.00    +0.038 A 
ENDBRANCH   1  16
BRANCH   8  17
ATOM     17  C   UNL     1       0.878  -1.871   6.042  0.00  0.00    +0.020 C 
ATOM     18  C   UNL     1       0.957  -2.490   7.439  0.00  0.00    +0.006 C 
ATOM     19  C   UNL     1       1.973  -3.634   7.434  0.00  0.00    +0.000 C 
ATOM     20  C   UNL     1       3.348  -3.092   7.038  0.00  0.00    +0.000 C 
ATOM     21  C   UNL     1       3.270  -2.473   5.641  0.00  0.00    +0.000 C 
ATOM     22  C   UNL     1       2.253  -1.330   5.646  0.00  0.00    +0.006 C 
ENDBRANCH   8  17
BRANCH   5  23
ATOM     23  C   UNL     1       0.893   2.035   4.088  0.00  0.00    +0.329 C 
ATOM     24  O   UNL     1       1.746   1.326   3.609  0.00  0.00    -0.249 OA
BRANCH  23  25
ATOM     25  O   UNL     1       0.999   3.370   3.994  0.00  0.00    -0.461 OA
BRANCH  25  26
ATOM     26  C   UNL     1       2.147   3.883   3.315  0.00  0.00    +0.170 C 
ATOM     27  C   UNL     1       1.832   4.037   1.826  0.00  0.00    +0.052 C 
ATOM     28  C   UNL     1       2.519   5.247   3.901  0.00  0.00    +0.052 C 
ENDBRANCH  25  26
ENDBRANCH  23  25
ENDBRANCH   5  23
TORSDOF 5
