REMARK  Name = ZINC54616686
REMARK  15 active torsions:
REMARK  status: ('A' for Active; 'I' for Inactive)
REMARK    1  A    between atoms: C_1  and  C_2
REMARK    2  A    between atoms: C_2  and  C_3
REMARK    3  A    between atoms: C_3  and  C_4
REMARK    4  A    between atoms: C_4  and  S_5
REMARK    5  A    between atoms: S_5  and  C_6
REMARK    6  A    between atoms: C_11  and  C_28
REMARK    7  A    between atoms: C_13  and  C_17
REMARK    8  A    between atoms: C_14  and  C_16
REMARK    9  A    between atoms: N_19  and  C_20
REMARK   10  A    between atoms: C_24  and  C_27
REMARK   11  A    between atoms: C_25  and  C_26
REMARK   12  A    between atoms: C_33  and  O_34
REMARK   13  A    between atoms: O_34  and  C_35
REMARK   14  A    between atoms: C_35  and  C_36
REMARK   15  A    between atoms: C_36  and  C_37
REMARK                            x       y       z     vdW  Elec       q    Type
REMARK                         _______ _______ _______ _____ _____    ______ ____
ROOT
ATOM      1  C   UNL     1       1.382  -4.553   1.192  0.00  0.00    +0.210 A 
ATOM      2  N   UNL     1       0.460  -5.294   0.559  0.00  0.00    -0.187 NA
ATOM      3  C   UNL     1       0.630  -6.553   0.861  0.00  0.00    +0.219 A 
ATOM      4  N   UNL     1       1.681  -6.644   1.712  0.00  0.00    -0.220 N 
ATOM      5  N   UNL     1       2.154  -5.346   1.904  0.00  0.00    -0.141 NA
ATOM      6  C   UNL     1       2.160  -7.905   2.273  0.00  0.00    +0.181 C 
ATOM      7  C   UNL     1       1.520  -9.054   1.541  0.00  0.00    +0.060 C 
ATOM      8  C   UNL     1       0.483  -8.903   0.705  0.00  0.00    +0.018 C 
ATOM      9  N   UNL     1      -0.073  -7.674   0.443  0.00  0.00    -0.287 N 
ATOM     10  C   UNL     1      -0.093 -10.121   0.030  0.00  0.00    +0.061 C 
ATOM     11  H   UNL     1      -0.924  -7.593  -0.016  0.00  0.00    +0.155 HD
ENDROOT
BRANCH   6  12
ATOM     12  C   UNL     1       1.797  -7.975   3.734  0.00  0.00    +0.023 A 
ATOM     13  C   UNL     1       0.482  -7.813   4.128  0.00  0.00    +0.009 A 
ATOM     14  C   UNL     1       0.148  -7.877   5.468  0.00  0.00    +0.001 A 
ATOM     15  C   UNL     1       1.128  -8.103   6.417  0.00  0.00    +0.004 A 
ATOM     16  C   UNL     1       2.443  -8.267   6.028  0.00  0.00    +0.046 A 
ATOM     17  C   UNL     1       2.780  -8.208   4.683  0.00  0.00    +0.126 A 
BRANCH  17  18
ATOM     18  O   UNL     1       4.073  -8.374   4.298  0.00  0.00    -0.492 OA
BRANCH  18  19
ATOM     19  C   UNL     1       5.020  -8.690   5.320  0.00  0.00    +0.229 C 
BRANCH  19  20
ATOM     20  C   UNL     1       6.418  -8.789   4.708  0.00  0.00    +0.038 C 
ATOM     21  C   UNL     1       7.413  -9.243   5.778  0.00  0.00    +0.007 C 
ENDBRANCH  19  20
ENDBRANCH  18  19
ENDBRANCH  17  18
ENDBRANCH   6  12
BRANCH   7  22
ATOM     22  C   UNL     1       2.039 -10.355   1.744  0.00  0.00    +0.248 C 
ATOM     23  O   UNL     1       3.040 -10.710   1.149  0.00  0.00    -0.270 OA
ATOM     24  N   UNL     1       1.424 -11.200   2.594  0.00  0.00    -0.281 N 
ATOM     25  H   UNL     1       0.670 -10.893   3.123  0.00  0.00    +0.155 HD
BRANCH  24  26
ATOM     26  C   UNL     1       1.871 -12.520   2.714  0.00  0.00    +0.037 A 
ATOM     27  C   UNL     1       3.233 -12.791   2.760  0.00  0.00    +0.023 A 
ATOM     28  C   UNL     1       3.671 -14.095   2.878  0.00  0.00    +0.002 A 
ATOM     29  C   UNL     1       2.757 -15.130   2.952  0.00  0.00    +0.004 A 
ATOM     30  C   UNL     1       1.401 -14.863   2.907  0.00  0.00    -0.046 A 
ATOM     31  C   UNL     1       0.955 -13.560   2.794  0.00  0.00    -0.026 A 
ATOM     32  C   UNL     1      -0.523 -13.270   2.752  0.00  0.00    +0.046 C 
ATOM     33  C   UNL     1       0.408 -15.994   2.988  0.00  0.00    +0.044 C 
ENDBRANCH  24  26
ENDBRANCH   7  22
BRANCH   1  34
ATOM     34  S   UNL     1       1.539  -2.802   1.082  0.00  0.00    -0.084 S 
BRANCH  34  35
ATOM     35  C   UNL     1       0.199  -2.311  -0.037  0.00  0.00    +0.077 C 
BRANCH  35  36
ATOM     36  C   UNL     1       0.220  -0.792  -0.223  0.00  0.00    +0.011 C 
BRANCH  36  38
ATOM     37  C   UNL     1      -0.889   1.141  -1.352  0.00  0.00    +0.004 C 
ATOM     38  C   UNL     1      -0.911  -0.378  -1.167  0.00  0.00    -0.003 C 
ENDBRANCH  36  38
ENDBRANCH  35  36
ENDBRANCH  34  35
ENDBRANCH   1  34
TORSDOF 10
