REMARK  Name = ZINC11705754
REMARK  11 active torsions:
REMARK  status: ('A' for Active; 'I' for Inactive)
REMARK    1  A    between atoms: C_1  and  C_2
REMARK    2  A    between atoms: C_4  and  C_7
REMARK    3  A    between atoms: N_9  and  C_10
REMARK    4  A    between atoms: C_10  and  C_11
REMARK    5  A    between atoms: C_17  and  C_18
REMARK    6  A    between atoms: C_17  and  N_55
REMARK    7  A    between atoms: C_21  and  C_23
REMARK    8  A    between atoms: C_24  and  C_25
REMARK    9  A    between atoms: C_25  and  C_26
REMARK   10  A    between atoms: C_25  and  C_27
REMARK   11  A    between atoms: C_25  and  O_28
REMARK                            x       y       z     vdW  Elec       q    Type
REMARK                         _______ _______ _______ _____ _____    ______ ____
ROOT
ATOM      1  C   UNL     1       2.169   1.490   1.211  0.00  0.00    -0.011 C 
ATOM      2  C   UNL     1       1.420   2.051  -0.001  0.00  0.00    +0.001 C 
ATOM      3  C   UNL     1      -0.019   1.526   0.010  0.00  0.00    -0.018 C 
ATOM      4  C   UNL     1       0.002  -0.004   0.002  0.00  0.00    -0.078 C 
ATOM      5  C   UNL     1       2.126  -0.039   1.168  0.00  0.00    -0.073 C 
ATOM      6  N   UNL     1       0.716  -0.481   1.206  0.00  0.00    +0.383 N 
ATOM      7  H   UNL     1       0.265  -0.085   2.039  0.00  0.00    -0.081 HD
ENDROOT
BRANCH   1   8
ATOM      8  C   UNL     1       3.624   1.962   1.176  0.00  0.00    +0.106 C 
BRANCH   8  11
ATOM      9  C   UNL     1       4.855   4.058   1.337  0.00  0.00    +0.266 C 
ATOM     10  O   UNL     1       5.886   3.429   1.203  0.00  0.00    -0.268 OA
ATOM     11  N   UNL     1       3.670   3.417   1.337  0.00  0.00    -0.310 N 
ATOM     12  H   UNL     1       2.846   3.919   1.444  0.00  0.00    +0.149 HD
BRANCH   9  16
ATOM     13  C   UNL     1       6.373   8.877   1.789  0.00  0.00    +0.089 C 
ATOM     14  C   UNL     1       5.574   7.604   1.693  0.00  0.00    +0.135 A 
ATOM     15  C   UNL     1       6.062   6.354   1.522  0.00  0.00    +0.080 A 
ATOM     16  C   UNL     1       4.901   5.532   1.501  0.00  0.00    +0.168 A 
ATOM     17  N   UNL     1       3.881   6.340   1.648  0.00  0.00    -0.073 NA
ATOM     18  O   UNL     1       4.240   7.489   1.762  0.00  0.00    -0.359 OA
ENDBRANCH   9  16
ENDBRANCH   8  11
ENDBRANCH   1   8
BRANCH   6  19
ATOM     19  C   UNL     1       0.651  -1.955   1.280  0.00  0.00    -0.036 C 
BRANCH  19  20
ATOM     20  C   UNL     1      -0.775  -2.365   1.543  0.00  0.00    -0.026 A 
ATOM     21  C   UNL     1      -1.759  -2.653   0.652  0.00  0.00    +0.010 A 
ATOM     22  C   UNL     1      -3.003  -3.014   1.119  0.00  0.00    +0.025 A 
ATOM     23  C   UNL     1      -3.210  -3.059   2.474  0.00  0.00    +0.062 A 
ATOM     24  S   UNL     1      -1.608  -2.590   3.107  0.00  0.00    -0.087 S 
BRANCH  23  25
ATOM     25  C   UNL     1      -4.401  -3.396   3.194  0.00  0.00    -0.056 C 
ATOM     26  C   UNL     1      -5.378  -3.671   3.785  0.00  0.00    -0.062 C 
BRANCH  26  27
ATOM     27  C   UNL     1      -6.602  -4.017   4.525  0.00  0.00    +0.121 C 
ATOM     28  C   UNL     1      -6.333  -5.230   5.418  0.00  0.00    +0.055 C 
ATOM     29  C   UNL     1      -7.026  -2.830   5.392  0.00  0.00    +0.055 C 
BRANCH  27  30
ATOM     30  O   UNL     1      -7.646  -4.329   3.600  0.00  0.00    -0.377 OA
ATOM     31  H   UNL     1      -7.445  -5.073   3.017  0.00  0.00    +0.211 HD
ENDBRANCH  27  30
ENDBRANCH  26  27
ENDBRANCH  23  25
ENDBRANCH  19  20
ENDBRANCH   6  19
TORSDOF 8
