REMARK  Name = ZINC19861715
REMARK  9 active torsions:
REMARK  status: ('A' for Active; 'I' for Inactive)
REMARK    1  A    between atoms: C_1  and  C_2
REMARK    2  A    between atoms: C_3  and  C_4
REMARK    3  A    between atoms: C_3  and  C_5
REMARK    4  A    between atoms: C_5  and  O_7
REMARK    5  A    between atoms: O_7  and  C_8
REMARK    6  A    between atoms: C_24  and  C_33
REMARK    7  A    between atoms: C_27  and  O_32
REMARK    8  A    between atoms: C_29  and  C_30
REMARK    9  A    between atoms: C_29  and  C_31
REMARK                            x       y       z     vdW  Elec       q    Type
REMARK                         _______ _______ _______ _____ _____    ______ ____
ROOT
ATOM      1  C   UNL     1      -1.025   0.546  -2.717  0.00  0.00    +0.209 C 
ATOM      2  C   UNL     1       0.346   0.229  -3.287  0.00  0.00    -0.033 C 
ATOM      3  C   UNL     1       0.671  -0.830  -3.985  0.00  0.00    +0.011 C 
ATOM      4  C   UNL     1       1.269   1.377  -2.897  0.00  0.00    +0.019 C 
ATOM      5  C   UNL     1       2.002   0.972  -1.608  0.00  0.00    +0.008 C 
ATOM      6  C   UNL     1       1.291   1.590  -0.397  0.00  0.00    +0.005 C 
ATOM      7  C   UNL     1      -0.197   1.283  -0.475  0.00  0.00    +0.005 C 
ATOM      8  C   UNL     1      -0.811   1.744  -1.764  0.00  0.00    +0.016 C 
ATOM      9  C   UNL     1       0.301   2.532  -2.535  0.00  0.00    +0.019 C 
ATOM     10  C   UNL     1      -2.041   2.612  -1.716  0.00  0.00    +0.011 C 
ATOM     11  C   UNL     1      -2.850   2.467  -0.429  0.00  0.00    +0.005 C 
ATOM     12  C   UNL     1      -1.878   2.676   0.735  0.00  0.00    +0.003 C 
ATOM     13  C   UNL     1      -0.941   1.491   0.816  0.00  0.00    -0.025 C 
ATOM     14  C   UNL     1       0.020   1.643   1.995  0.00  0.00    +0.010 C 
ATOM     15  C   UNL     1      -0.767   1.839   3.289  0.00  0.00    +0.032 C 
ATOM     16  C   UNL     1      -1.620   3.098   3.208  0.00  0.00    +0.120 C 
ATOM     17  C   UNL     1      -2.578   3.069   2.017  0.00  0.00    -0.006 C 
ATOM     18  C   UNL     1      -3.114   4.512   1.849  0.00  0.00    +0.014 C 
ATOM     19  C   UNL     1      -3.780   2.178   2.333  0.00  0.00    +0.014 C 
ATOM     20  C   UNL     1      -1.716   0.194   1.040  0.00  0.00    +0.012 C 
ENDROOT
BRANCH  16  21
ATOM     21  O   UNL     1      -0.771   4.245   3.103  0.00  0.00    -0.391 OA
ATOM     22  H   UNL     1      -1.211   5.251   3.033  0.00  0.00    +0.210 HD
ENDBRANCH  16  21
BRANCH   1  23
ATOM     23  O   UNL     1      -1.578  -0.598  -2.028  0.00  0.00    -0.453 OA
BRANCH  23  24
ATOM     24  C   UNL     1      -2.362  -1.425  -2.748  0.00  0.00    +0.335 C 
ATOM     25  O   UNL     1      -2.576  -1.192  -3.921  0.00  0.00    -0.245 OA
BRANCH  24  28
ATOM     26  C   UNL     1      -3.998  -3.137  -4.278  0.00  0.00    +0.036 C 
ATOM     27  C   UNL     1      -3.733  -3.425  -2.823  0.00  0.00    -0.020 C 
ATOM     28  C   UNL     1      -2.959  -2.609  -2.113  0.00  0.00    +0.029 C 
ATOM     29  C   UNL     1      -2.693  -2.897  -0.657  0.00  0.00    +0.051 C 
ENDBRANCH  24  28
ENDBRANCH  23  24
ENDBRANCH   1  23
TORSDOF 4
