REMARK  Name = ZINC17075509
REMARK  12 active torsions:
REMARK  status: ('A' for Active; 'I' for Inactive)
REMARK    1  A    between atoms: C_1  and  C_2
REMARK    2  A    between atoms: C_2  and  C_3
REMARK    3  A    between atoms: C_2  and  C_4
REMARK    4  A    between atoms: C_4  and  N_5
REMARK    5  A    between atoms: N_5  and  C_6
REMARK    6  A    between atoms: C_6  and  N_8
REMARK    7  A    between atoms: N_8  and  N_9
REMARK    8  A    between atoms: C_10  and  C_12
REMARK    9  A    between atoms: C_19  and  C_22
REMARK   10  A    between atoms: C_22  and  C_23
REMARK   11  A    between atoms: C_22  and  C_24
REMARK   12  A    between atoms: C_22  and  C_25
REMARK                            x       y       z     vdW  Elec       q    Type
REMARK                         _______ _______ _______ _____ _____    ______ ____
ROOT
ATOM      1  N   UNL     1      -6.440   0.226  -0.886  0.00  0.00    -0.231 N 
ATOM      2  C   UNL     1      -5.116   0.421  -1.046  0.00  0.00    +0.261 C 
ATOM      3  O   UNL     1      -4.613   0.305  -2.147  0.00  0.00    -0.269 OA
ATOM      4  H   UNL     1      -6.841   0.319  -0.007  0.00  0.00    +0.173 HD
ENDROOT
BRANCH   2   5
ATOM      5  C   UNL     1      -4.279   0.776   0.112  0.00  0.00    +0.049 A 
ATOM      6  C   UNL     1      -4.826   0.914   1.369  0.00  0.00    +0.058 A 
ATOM      7  S   UNL     1      -3.460   1.325   2.353  0.00  0.00    -0.101 S 
ATOM      8  C   UNL     1      -2.200   1.309   1.109  0.00  0.00    -0.006 A 
ATOM      9  C   UNL     1      -2.852   0.990  -0.033  0.00  0.00    -0.025 A 
ATOM     10  C   UNL     1      -2.105   0.876  -1.356  0.00  0.00    +0.037 C 
ATOM     11  C   UNL     1      -0.759   1.596  -1.228  0.00  0.00    +0.009 C 
ATOM     12  C   UNL     1      -0.013   1.086   0.008  0.00  0.00    -0.000 C 
ATOM     13  C   UNL     1      -0.737   1.584   1.267  0.00  0.00    +0.046 C 
BRANCH  12  14
ATOM     14  C   UNL     1       1.422   1.618  -0.003  0.00  0.00    -0.035 C 
ATOM     15  C   UNL     1       2.163   1.113   1.237  0.00  0.00    +0.011 C 
ATOM     16  C   UNL     1       2.139   1.126  -1.262  0.00  0.00    +0.011 C 
ATOM     17  C   UNL     1       1.398   3.148   0.006  0.00  0.00    +0.011 C 
ENDBRANCH  12  14
ENDBRANCH   2   5
BRANCH   1  18
ATOM     18  N   UNL     1      -7.236  -0.111  -1.988  0.00  0.00    -0.246 N 
ATOM     19  H   UNL     1      -6.835  -0.204  -2.866  0.00  0.00    +0.172 HD
BRANCH  18  20
ATOM     20  C   UNL     1      -8.560  -0.306  -1.828  0.00  0.00    +0.147 C 
ATOM     21  S   UNL     1      -9.534  -0.719  -3.175  0.00  0.00    -0.017 S 
BRANCH  20  22
ATOM     22  N   UNL     1      -9.118  -0.177  -0.608  0.00  0.00    -0.325 N 
ATOM     23  H   UNL     1      -8.566   0.056   0.155  0.00  0.00    +0.148 HD
BRANCH  22  24
ATOM     24  C   UNL     1     -10.557  -0.389  -0.434  0.00  0.00    +0.106 C 
BRANCH  24  26
ATOM     25  C   UNL     1     -10.685   1.277   1.423  0.00  0.00    +0.009 C 
ATOM     26  C   UNL     1     -10.929  -0.183   1.036  0.00  0.00    -0.000 C 
ATOM     27  C   UNL     1     -12.406  -0.525   1.241  0.00  0.00    +0.009 C 
ENDBRANCH  24  26
ENDBRANCH  22  24
ENDBRANCH  20  22
ENDBRANCH  18  20
ENDBRANCH   1  18
TORSDOF 7
