REMARK  Name = ZINC01405053
REMARK  6 active torsions:
REMARK  status: ('A' for Active; 'I' for Inactive)
REMARK    1  A    between atoms: C_1  and  C_2
REMARK    2  A    between atoms: C_5  and  C_8
REMARK    3  A    between atoms: C_14  and  N_26
REMARK    4  A    between atoms: C_16  and  C_18
REMARK    5  A    between atoms: C_21  and  O_24
REMARK    6  A    between atoms: O_24  and  C_25
REMARK                            x       y       z     vdW  Elec       q    Type
REMARK                         _______ _______ _______ _____ _____    ______ ____
ROOT
ATOM      1  C   UNL     1       1.955   6.563   0.018  0.00  0.00    +0.080 A 
ATOM      2  C   UNL     1       3.286   6.247   0.005  0.00  0.00    +0.077 A 
ATOM      3  S   UNL     1       3.202   4.461   0.004  0.00  0.00    -0.056 S 
ATOM      4  C   UNL     1       1.420   4.322   0.011  0.00  0.00    +0.196 A 
ATOM      5  N   UNL     1       1.057   5.590   0.021  0.00  0.00    -0.221 NA
ATOM      6  N   UNL     1       0.626   3.178   0.012  0.00  0.00    -0.193 N 
ATOM      7  C   UNL     1       1.074   1.891   0.002  0.00  0.00    +0.131 A 
ATOM      8  C   UNL     1      -0.013   1.076   0.008  0.00  0.00    +0.074 A 
ATOM      9  C   UNL     1      -1.161   1.890   0.017  0.00  0.00    +0.095 A 
ATOM     10  N   UNL     1      -0.774   3.148   0.025  0.00  0.00    -0.163 NA
ENDROOT
BRANCH   1  15
ATOM     11  C   UNL     1       0.274  12.071   0.061  0.00  0.00    +0.044 C 
ATOM     12  C   UNL     1       0.714  10.630   0.050  0.00  0.00    -0.050 A 
ATOM     13  C   UNL     1      -0.232   9.620   0.053  0.00  0.00    +0.004 A 
ATOM     14  C   UNL     1       0.165   8.299   0.042  0.00  0.00    +0.010 A 
ATOM     15  C   UNL     1       1.522   7.981   0.029  0.00  0.00    +0.001 A 
ATOM     16  C   UNL     1       2.471   9.002   0.033  0.00  0.00    +0.010 A 
ATOM     17  C   UNL     1       2.062  10.321   0.037  0.00  0.00    +0.004 A 
ENDBRANCH   1  15
BRANCH   9  18
ATOM     18  C   UNL     1      -2.566   1.412   0.020  0.00  0.00    +0.002 A 
ATOM     19  C   UNL     1      -2.838   0.045   0.008  0.00  0.00    +0.013 A 
ATOM     20  C   UNL     1      -4.145  -0.397   0.018  0.00  0.00    +0.046 A 
ATOM     21  C   UNL     1      -5.189   0.519   0.027  0.00  0.00    +0.120 A 
ATOM     22  C   UNL     1      -4.920   1.881   0.033  0.00  0.00    +0.046 A 
ATOM     23  C   UNL     1      -3.616   2.329   0.030  0.00  0.00    +0.013 A 
BRANCH  21  24
ATOM     24  O   UNL     1      -6.475   0.082   0.030  0.00  0.00    -0.495 OA
ATOM     25  C   UNL     1      -6.679  -1.333   0.024  0.00  0.00    +0.277 C 
ENDBRANCH  21  24
ENDBRANCH   9  18
BRANCH   7  26
ATOM     26  N   UNL     1       2.408   1.484  -0.012  0.00  0.00    -0.273 N 
ATOM     27  C   UNL     1       2.712   0.171  -0.022  0.00  0.00    +0.331 C 
ATOM     28  O   UNL     1       1.825  -0.656  -0.018  0.00  0.00    -0.279 OA
ATOM     29  H   UNL     1       3.117   2.146  -0.015  0.00  0.00    +0.156 HD
ENDBRANCH   7  26
TORSDOF 4
