REMARK  Name = ZINC40172588
REMARK  12 active torsions:
REMARK  status: ('A' for Active; 'I' for Inactive)
REMARK    1  A    between atoms: C_1  and  C_2
REMARK    2  A    between atoms: C_2  and  C_3
REMARK    3  A    between atoms: C_3  and  C_5
REMARK    4  A    between atoms: C_3  and  N_17
REMARK    5  A    between atoms: N_7  and  C_8
REMARK    6  A    between atoms: C_13  and  C_14
REMARK    7  A    between atoms: C_14  and  C_15
REMARK    8  A    between atoms: C_14  and  C_16
REMARK    9  A    between atoms: C_21  and  S_22
REMARK   10  A    between atoms: S_22  and  C_23
REMARK   11  A    between atoms: C_23  and  C_24
REMARK   12  A    between atoms: C_24  and  C_25
REMARK                            x       y       z     vdW  Elec       q    Type
REMARK                         _______ _______ _______ _____ _____    ______ ____
ROOT
ATOM      1  N   UNL     1       2.123  -0.088  -1.228  0.00  0.00    -0.279 N 
ATOM      2  C   UNL     1       3.028  -0.436  -0.266  0.00  0.00    +0.216 A 
ATOM      3  N   UNL     1       4.176   0.118  -0.570  0.00  0.00    -0.113 NA
ATOM      4  N   UNL     1       4.006   0.842  -1.758  0.00  0.00    -0.121 NA
ATOM      5  C   UNL     1       2.761   0.701  -2.143  0.00  0.00    +0.194 A 
ATOM      6  N   UNL     1       2.776  -1.237   0.840  0.00  0.00    -0.328 N 
ATOM      7  H   UNL     1       1.890  -1.605   0.981  0.00  0.00    +0.145 HD
ATOM      8  H   UNL     1       3.487  -1.429   1.472  0.00  0.00    +0.145 HD
ENDROOT
BRANCH   1   9
ATOM      9  C   UNL     1       0.716  -0.496  -1.275  0.00  0.00    +0.178 C 
BRANCH   9  10
ATOM     10  C   UNL     1       0.630  -1.999  -1.333  0.00  0.00    +0.240 C 
ATOM     11  O   UNL     1       1.644  -2.665  -1.335  0.00  0.00    -0.273 OA
ATOM     12  N   UNL     1      -0.573  -2.604  -1.382  0.00  0.00    -0.284 N 
ATOM     13  H   UNL     1      -1.384  -2.078  -1.300  0.00  0.00    +0.155 HD
BRANCH  12  14
ATOM     14  C   UNL     1      -0.653  -3.991  -1.552  0.00  0.00    +0.037 A 
ATOM     15  C   UNL     1       0.385  -4.677  -2.169  0.00  0.00    +0.023 A 
ATOM     16  C   UNL     1       0.303  -6.045  -2.335  0.00  0.00    +0.002 A 
ATOM     17  C   UNL     1      -0.811  -6.732  -1.888  0.00  0.00    +0.000 A 
ATOM     18  C   UNL     1      -1.846  -6.052  -1.274  0.00  0.00    +0.006 A 
ATOM     19  C   UNL     1      -1.767  -4.684  -1.099  0.00  0.00    -0.024 A 
BRANCH  19  20
ATOM     20  C   UNL     1      -2.893  -3.944  -0.423  0.00  0.00    +0.015 C 
ATOM     21  C   UNL     1      -4.208  -4.246  -1.145  0.00  0.00    +0.012 C 
ATOM     22  C   UNL     1      -2.996  -4.396   1.036  0.00  0.00    +0.012 C 
ENDBRANCH  19  20
ENDBRANCH  12  14
ENDBRANCH   9  10
BRANCH   9  24
ATOM     23  C   UNL     1      -0.023   1.538  -0.026  0.00  0.00    +0.006 C 
ATOM     24  C   UNL     1      -0.002   0.008  -0.021  0.00  0.00    +0.031 C 
ENDBRANCH   9  24
ENDBRANCH   1   9
BRANCH   5  25
ATOM     25  S   UNL     1       2.037   1.409  -3.585  0.00  0.00    -0.086 S 
BRANCH  25  26
ATOM     26  C   UNL     1       3.398   2.329  -4.354  0.00  0.00    +0.082 C 
BRANCH  26  27
ATOM     27  C   UNL     1       2.900   3.002  -5.634  0.00  0.00    +0.046 C 
BRANCH  27  28
ATOM     28  C   UNL     1       4.031   3.766  -6.273  0.00  0.00    -0.047 A 
ATOM     29  C   UNL     1       4.251   5.088  -5.932  0.00  0.00    +0.003 A 
ATOM     30  C   UNL     1       5.288   5.789  -6.518  0.00  0.00    +0.000 A 
ATOM     31  C   UNL     1       6.106   5.168  -7.444  0.00  0.00    +0.000 A 
ATOM     32  C   UNL     1       5.886   3.846  -7.784  0.00  0.00    +0.000 A 
ATOM     33  C   UNL     1       4.852   3.144  -7.195  0.00  0.00    +0.003 A 
ENDBRANCH  27  28
ENDBRANCH  26  27
ENDBRANCH  25  26
ENDBRANCH   5  25
TORSDOF 9
