REMARK  Name = ZINC48114464
REMARK  12 active torsions:
REMARK  status: ('A' for Active; 'I' for Inactive)
REMARK    1  A    between atoms: C_1  and  C_2
REMARK    2  A    between atoms: C_2  and  C_3
REMARK    3  A    between atoms: C_3  and  C_4
REMARK    4  A    between atoms: C_3  and  N_5
REMARK    5  A    between atoms: C_6  and  C_8
REMARK    6  A    between atoms: C_12  and  C_14
REMARK    7  A    between atoms: C_14  and  N_15
REMARK    8  A    between atoms: N_18  and  C_19
REMARK    9  A    between atoms: C_22  and  C_26
REMARK   10  A    between atoms: C_24  and  C_25
REMARK   11  A    between atoms: C_26  and  O_28
REMARK   12  A    between atoms: O_28  and  C_29
REMARK                            x       y       z     vdW  Elec       q    Type
REMARK                         _______ _______ _______ _____ _____    ______ ____
ROOT
ATOM      1  N   UNL     1       0.836   2.451  -8.657  0.00  0.00    -0.295 N 
ATOM      2  C   UNL     1       1.468   2.826  -9.787  0.00  0.00    +0.304 C 
ATOM      3  O   UNL     1       1.657   2.018 -10.675  0.00  0.00    -0.252 OA
ATOM      4  N   UNL     1       1.889   4.098  -9.933  0.00  0.00    -0.269 N 
ATOM      5  H   UNL     1       0.685   3.096  -7.949  0.00  0.00    +0.151 HD
ATOM      6  H   UNL     1       1.667   4.763  -9.262  0.00  0.00    +0.156 HD
ENDROOT
BRANCH   4   7
ATOM      7  C   UNL     1       2.644   4.459 -11.048  0.00  0.00    +0.038 A 
ATOM      8  C   UNL     1       3.394   3.497 -11.720  0.00  0.00    +0.024 A 
ATOM      9  C   UNL     1       4.141   3.850 -12.820  0.00  0.00    +0.017 A 
ATOM     10  C   UNL     1       4.146   5.176 -13.264  0.00  0.00    +0.059 A 
ATOM     11  C   UNL     1       3.392   6.139 -12.587  0.00  0.00    +0.020 A 
ATOM     12  C   UNL     1       2.643   5.778 -11.490  0.00  0.00    -0.028 A 
ATOM     13  C   UNL     1       1.824   6.814 -10.764  0.00  0.00    +0.046 C 
BRANCH  10  14
ATOM     14  C   UNL     1       4.945   5.557 -14.443  0.00  0.00    +0.339 C 
ATOM     15  O   UNL     1       4.949   6.710 -14.827  0.00  0.00    -0.245 OA
BRANCH  14  16
ATOM     16  O   UNL     1       5.672   4.628 -15.094  0.00  0.00    -0.464 OA
ATOM     17  C   UNL     1       6.423   5.068 -16.227  0.00  0.00    +0.280 C 
ENDBRANCH  14  16
ENDBRANCH  10  14
ENDBRANCH   4   7
BRANCH   1  18
ATOM     18  C   UNL     1       0.378   1.069  -8.499  0.00  0.00    +0.141 C 
BRANCH  18  23
ATOM     19  C   UNL     1      -0.169   0.402  -4.814  0.00  0.00    +0.037 A 
ATOM     20  C   UNL     1      -1.541   0.627  -4.698  0.00  0.00    +0.013 A 
ATOM     21  C   UNL     1      -2.274   0.991  -5.808  0.00  0.00    +0.001 A 
ATOM     22  C   UNL     1      -1.652   1.133  -7.036  0.00  0.00    +0.005 A 
ATOM     23  C   UNL     1      -0.292   0.912  -7.158  0.00  0.00    -0.030 A 
ATOM     24  C   UNL     1       0.454   0.553  -6.054  0.00  0.00    +0.018 A 
BRANCH  19  26
ATOM     25  N   UNL     1       0.019  -0.132  -2.432  0.00  0.00    -0.309 N 
ATOM     26  C   UNL     1       0.623   0.012  -3.628  0.00  0.00    +0.244 C 
ATOM     27  O   UNL     1       1.820  -0.177  -3.732  0.00  0.00    -0.270 OA
ATOM     28  H   UNL     1      -0.935   0.019  -2.350  0.00  0.00    +0.149 HD
BRANCH  25  29
ATOM     29  C   UNL     1       0.804  -0.519  -1.257  0.00  0.00    +0.070 C 
ATOM     30  C   UNL     1       0.936  -2.042  -1.210  0.00  0.00    +0.028 C 
BRANCH  29  32
ATOM     31  C   UNL     1       0.079   1.501   0.022  0.00  0.00    +0.005 C 
ATOM     32  C   UNL     1       0.100  -0.028   0.010  0.00  0.00    +0.018 C 
ENDBRANCH  29  32
ENDBRANCH  25  29
ENDBRANCH  19  26
ENDBRANCH  18  23
ENDBRANCH   1  18
TORSDOF 8
