REMARK  Name = ZINC00087781
REMARK  5 active torsions:
REMARK  status: ('A' for Active; 'I' for Inactive)
REMARK    1  A    between atoms: C_1  and  C_2
REMARK    2  A    between atoms: C_3  and  C_25
REMARK    3  A    between atoms: C_11  and  C_13
REMARK    4  A    between atoms: C_13  and  S_14
REMARK    5  A    between atoms: S_14  and  C_15
REMARK                            x       y       z     vdW  Elec       q    Type
REMARK                         _______ _______ _______ _____ _____    ______ ____
ROOT
ATOM      1  C   UNL     1      -0.018   1.503   0.010  0.00  0.00    +0.046 C 
ATOM      2  C   UNL     1       0.002  -0.004   0.002  0.00  0.00    -0.022 A 
ATOM      3  C   UNL     1       0.008  -0.793  -1.081  0.00  0.00    +0.027 A 
ATOM      4  N   UNL     1       0.028  -2.114  -0.697  0.00  0.00    -0.283 N 
ATOM      5  C   UNL     1       0.036  -2.197   0.684  0.00  0.00    +0.057 A 
ATOM      6  C   UNL     1       0.026  -0.881   1.178  0.00  0.00    +0.003 A 
ATOM      7  C   UNL     1       0.035  -0.654   2.554  0.00  0.00    +0.010 A 
ATOM      8  C   UNL     1       0.058  -1.724   3.422  0.00  0.00    +0.001 A 
ATOM      9  C   UNL     1       0.072  -3.022   2.933  0.00  0.00    +0.002 A 
ATOM     10  C   UNL     1       0.054  -3.262   1.576  0.00  0.00    +0.027 A 
ATOM     11  C   UNL     1       0.038  -3.167  -1.538  0.00  0.00    +0.242 C 
ATOM     12  O   UNL     1       0.030  -2.985  -2.737  0.00  0.00    -0.271 OA
ATOM     13  C   UNL     1      -0.006  -0.307  -2.507  0.00  0.00    +0.064 C 
ENDROOT
BRANCH  11  14
ATOM     14  C   UNL     1       0.060  -4.570  -0.989  0.00  0.00    +0.176 C 
BRANCH  14  15
ATOM     15  S   UNL     1       0.070  -5.756  -2.362  0.00  0.00    -0.078 S 
BRANCH  15  16
ATOM     16  C   UNL     1       0.096  -7.328  -1.566  0.00  0.00    +0.168 A 
ATOM     17  N   UNL     1       0.115  -8.533  -2.209  0.00  0.00    -0.333 N 
ATOM     18  H   UNL     1       0.116  -8.673  -3.169  0.00  0.00    +0.168 HD
ATOM     19  C   UNL     1       0.131  -9.518  -1.235  0.00  0.00    +0.067 A 
ATOM     20  C   UNL     1       0.153 -10.904  -1.270  0.00  0.00    +0.028 A 
ATOM     21  C   UNL     1       0.165 -11.621  -0.091  0.00  0.00    +0.002 A 
ATOM     22  C   UNL     1       0.155 -10.964   1.131  0.00  0.00    +0.002 A 
ATOM     23  C   UNL     1       0.133  -9.588   1.184  0.00  0.00    +0.030 A 
ATOM     24  C   UNL     1       0.121  -8.848  -0.001  0.00  0.00    +0.090 A 
ATOM     25  N   UNL     1       0.105  -7.516  -0.269  0.00  0.00    -0.222 NA
ENDBRANCH  15  16
ENDBRANCH  14  15
ENDBRANCH  11  14
TORSDOF 3
