REMARK  Name = ZINC15839178
REMARK  9 active torsions:
REMARK  status: ('A' for Active; 'I' for Inactive)
REMARK    1  A    between atoms: C_1  and  C_2
REMARK    2  A    between atoms: C_2  and  C_34
REMARK    3  A    between atoms: N_17  and  C_22
REMARK    4  A    between atoms: C_19  and  S_20
REMARK    5  A    between atoms: S_20  and  C_21
REMARK    6  A    between atoms: C_22  and  C_23
REMARK    7  A    between atoms: N_25  and  C_26
REMARK    8  A    between atoms: C_26  and  C_27
REMARK    9  A    between atoms: C_27  and  C_28
REMARK                            x       y       z     vdW  Elec       q    Type
REMARK                         _______ _______ _______ _____ _____    ______ ____
ROOT
ATOM      1  C   UNL     1      -4.054  -0.834  -1.464  0.00  0.00    +0.016 C 
ATOM      2  C   UNL     1      -3.677  -0.722   0.014  0.00  0.00    +0.001 C 
ATOM      3  C   UNL     1      -4.803  -0.020   0.769  0.00  0.00    +0.047 C 
ATOM      4  C   UNL     1      -4.881   1.430   0.375  0.00  0.00    -0.037 A 
ATOM      5  C   UNL     1      -6.103   2.068   0.298  0.00  0.00    +0.004 A 
ATOM      6  C   UNL     1      -6.166   3.405  -0.052  0.00  0.00    +0.000 A 
ATOM      7  C   UNL     1      -5.010   4.112  -0.328  0.00  0.00    +0.001 A 
ATOM      8  C   UNL     1      -3.781   3.485  -0.258  0.00  0.00    +0.010 A 
ATOM      9  C   UNL     1      -3.714   2.139   0.093  0.00  0.00    +0.004 A 
ATOM     10  C   UNL     1      -2.411   1.439   0.172  0.00  0.00    +0.084 A 
ATOM     11  C   UNL     1      -2.394   0.048   0.142  0.00  0.00    +0.049 A 
ATOM     12  C   UNL     1      -1.167  -0.612   0.225  0.00  0.00    +0.266 A 
ATOM     13  O   UNL     1      -1.114  -1.831   0.205  0.00  0.00    -0.267 OA
ATOM     14  N   UNL     1      -0.039   0.124   0.328  0.00  0.00    -0.222 N 
ATOM     15  C   UNL     1      -0.107   1.486   0.348  0.00  0.00    +0.237 A 
ATOM     16  N   UNL     1      -1.268   2.117   0.275  0.00  0.00    -0.211 NA
ATOM     17  N   UNL     1       1.169   1.949   0.454  0.00  0.00    -0.221 N 
ATOM     18  N   UNL     1       2.016   0.834   0.499  0.00  0.00    -0.142 NA
ATOM     19  C   UNL     1       1.286  -0.240   0.424  0.00  0.00    +0.198 A 
ATOM     20  C   UNL     1      -3.482  -2.126   0.591  0.00  0.00    +0.016 C 
ENDROOT
BRANCH  19  21
ATOM     21  S   UNL     1       1.894  -1.894   0.441  0.00  0.00    -0.089 S 
ATOM     22  C   UNL     1       3.670  -1.574   0.585  0.00  0.00    +0.093 C 
ENDBRANCH  19  21
BRANCH  17  23
ATOM     23  C   UNL     1       1.579   3.354   0.510  0.00  0.00    +0.242 C 
BRANCH  23  24
ATOM     24  C   UNL     1       1.611   3.812   1.946  0.00  0.00    +0.235 C 
ATOM     25  O   UNL     1       1.319   3.040   2.834  0.00  0.00    -0.274 OA
ATOM     26  N   UNL     1       1.964   5.078   2.242  0.00  0.00    -0.313 N 
ATOM     27  H   UNL     1       2.197   5.696   1.531  0.00  0.00    +0.149 HD
BRANCH  26  28
ATOM     28  C   UNL     1       1.995   5.523   3.637  0.00  0.00    +0.109 C 
BRANCH  28  29
ATOM     29  C   UNL     1       2.424   6.990   3.696  0.00  0.00    +0.054 C 
BRANCH  29  30
ATOM     30  C   UNL     1       2.456   7.447   5.131  0.00  0.00    -0.046 A 
ATOM     31  C   UNL     1       1.327   8.001   5.706  0.00  0.00    +0.004 A 
ATOM     32  C   UNL     1       1.354   8.415   7.024  0.00  0.00    +0.000 A 
ATOM     33  C   UNL     1       2.514   8.287   7.765  0.00  0.00    +0.000 A 
ATOM     34  C   UNL     1       3.645   7.739   7.189  0.00  0.00    +0.000 A 
ATOM     35  C   UNL     1       3.616   7.319   5.872  0.00  0.00    +0.004 A 
ENDBRANCH  29  30
ENDBRANCH  28  29
ENDBRANCH  26  28
ENDBRANCH  23  24
ENDBRANCH  17  23
TORSDOF 6
