REMARK  Name = ZINC59386865
REMARK  4 active torsions:
REMARK  status: ('A' for Active; 'I' for Inactive)
REMARK    1  A    between atoms: C_9  and  C_12
REMARK    2  A    between atoms: C_10  and  O_11
REMARK    3  A    between atoms: C_12  and  C_14
REMARK    4  A    between atoms: C_12  and  N_21
REMARK                            x       y       z     vdW  Elec       q    Type
REMARK                         _______ _______ _______ _____ _____    ______ ____
ROOT
ATOM      1  C   UNL     1       5.004  -2.702  -0.059  0.00  0.00    +0.139 C 
ENDROOT
BRANCH   1  10
ATOM      2  C   UNL     1       0.149   1.526  -0.641  0.00  0.00    +0.001 A 
ATOM      3  C   UNL     1       1.357   2.218  -0.594  0.00  0.00    +0.001 A 
ATOM      4  C   UNL     1       2.541   1.555  -0.473  0.00  0.00    +0.012 A 
ATOM      5  C   UNL     1       2.547   0.153  -0.394  0.00  0.00    +0.024 A 
ATOM      6  C   UNL     1       1.318  -0.551  -0.443  0.00  0.00    -0.014 A 
ATOM      7  C   UNL     1       0.117   0.167  -0.568  0.00  0.00    +0.008 A 
ATOM      8  C   UNL     1       1.325  -1.954  -0.364  0.00  0.00    +0.009 A 
ATOM      9  C   UNL     1       2.507  -2.619  -0.242  0.00  0.00    +0.010 A 
ATOM     10  C   UNL     1       3.716  -1.932  -0.195  0.00  0.00    +0.019 A 
ATOM     11  C   UNL     1       3.752  -0.567  -0.268  0.00  0.00    +0.130 A 
BRANCH  11  12
ATOM     12  O   UNL     1       4.939   0.089  -0.221  0.00  0.00    -0.506 OA
ATOM     13  H   UNL     1       5.221   0.329   0.673  0.00  0.00    +0.292 HD
ENDBRANCH  11  12
ENDBRANCH   1  10
BRANCH   1  14
ATOM     14  C   UNL     1       5.550  -3.012  -1.429  0.00  0.00    +0.012 A 
ATOM     15  C   UNL     1       5.200  -4.190  -2.063  0.00  0.00    +0.008 A 
ATOM     16  C   UNL     1       5.700  -4.475  -3.319  0.00  0.00    +0.001 A 
ATOM     17  C   UNL     1       6.552  -3.582  -3.944  0.00  0.00    +0.003 A 
ATOM     18  C   UNL     1       6.904  -2.405  -3.313  0.00  0.00    +0.039 A 
ATOM     19  C   UNL     1       6.399  -2.116  -2.056  0.00  0.00    +0.129 A 
ATOM     20  F   UNL     1       6.738  -0.962  -1.440  0.00  0.00    -0.205 F 
ENDBRANCH   1  14
BRANCH   1  21
ATOM     21  N   UNL     1       4.752  -3.953   0.660  0.00  0.00    -0.312 N 
ATOM     22  C   UNL     1       4.689  -3.955   2.045  0.00  0.00    +0.159 A 
ATOM     23  N   UNL     1       4.913  -2.959   2.876  0.00  0.00    -0.233 NA
ATOM     24  C   UNL     1       4.810  -3.124   4.183  0.00  0.00    +0.120 A 
ATOM     25  C   UNL     1       4.465  -4.358   4.622  0.00  0.00    +0.068 A 
ATOM     26  S   UNL     1       4.299  -5.229   3.072  0.00  0.00    -0.061 S 
ATOM     27  H   UNL     1       4.629  -4.779   0.168  0.00  0.00    +0.149 HD
ENDBRANCH   1  21
TORSDOF 4
