REMARK  Name = ZINC66383995
REMARK  8 active torsions:
REMARK  status: ('A' for Active; 'I' for Inactive)
REMARK    1  A    between atoms: C_1  and  C_2
REMARK    2  A    between atoms: C_5  and  C_23
REMARK    3  A    between atoms: C_7  and  N_8
REMARK    4  A    between atoms: N_11  and  C_12
REMARK    5  A    between atoms: C_12  and  C_13
REMARK    6  A    between atoms: C_13  and  C_14
REMARK    7  A    between atoms: C_14  and  C_15
REMARK    8  A    between atoms: N_25  and  C_26
REMARK                            x       y       z     vdW  Elec       q    Type
REMARK                         _______ _______ _______ _____ _____    ______ ____
ROOT
ATOM      1  N   UNL     1       0.025  -0.007   2.417  0.00  0.00    -0.269 N 
ATOM      2  C   UNL     1      -0.057  -0.682   3.581  0.00  0.00    +0.304 C 
ATOM      3  O   UNL     1      -0.040  -1.898   3.581  0.00  0.00    -0.253 OA
ATOM      4  N   UNL     1      -0.156  -0.010   4.745  0.00  0.00    -0.299 N 
ATOM      5  H   UNL     1       0.078   0.961   2.421  0.00  0.00    +0.156 HD
ATOM      6  H   UNL     1      -0.169   0.960   4.745  0.00  0.00    +0.150 HD
ENDROOT
BRANCH   1  13
ATOM      7  C   UNL     1      -1.266   1.183   0.183  0.00  0.00    +0.045 C 
ATOM      8  C   UNL     1      -0.586  -0.158   0.085  0.00  0.00    -0.029 A 
ATOM      9  C   UNL     1      -0.576  -0.839  -1.118  0.00  0.00    +0.006 A 
ATOM     10  C   UNL     1       0.044  -2.068  -1.215  0.00  0.00    +0.013 A 
ATOM     11  C   UNL     1       0.665  -2.627  -0.096  0.00  0.00    +0.038 A 
ATOM     12  C   UNL     1       0.655  -1.940   1.117  0.00  0.00    +0.036 A 
ATOM     13  C   UNL     1       0.033  -0.703   1.203  0.00  0.00    +0.038 A 
BRANCH  11  14
ATOM     14  C   UNL     1       1.329  -3.944  -0.197  0.00  0.00    +0.244 C 
ATOM     15  O   UNL     1       1.869  -4.429   0.778  0.00  0.00    -0.270 OA
ATOM     16  N   UNL     1       1.337  -4.606  -1.371  0.00  0.00    -0.314 N 
ATOM     17  C   UNL     1       1.996  -5.911  -1.471  0.00  0.00    +0.128 C 
ATOM     18  H   UNL     1       0.907  -4.220  -2.149  0.00  0.00    +0.149 HD
ENDBRANCH  11  14
ENDBRANCH   1  13
BRANCH   4  19
ATOM     19  C   UNL     1      -0.245  -0.744   6.010  0.00  0.00    +0.106 C 
BRANCH  19  20
ATOM     20  C   UNL     1      -0.348   0.248   7.169  0.00  0.00    +0.023 C 
BRANCH  20  21
ATOM     21  C   UNL     1      -0.441  -0.518   8.490  0.00  0.00    +0.037 C 
BRANCH  21  22
ATOM     22  C   UNL     1      -0.543   0.460   9.632  0.00  0.00    -0.046 A 
ATOM     23  C   UNL     1       0.604   0.928  10.245  0.00  0.00    +0.005 A 
ATOM     24  C   UNL     1       0.512   1.825  11.293  0.00  0.00    +0.022 A 
ATOM     25  C   UNL     1      -0.729   2.254  11.729  0.00  0.00    +0.059 A 
ATOM     26  C   UNL     1      -1.878   1.785  11.115  0.00  0.00    +0.060 A 
ATOM     27  C   UNL     1      -1.783   0.892  10.063  0.00  0.00    +0.025 A 
ATOM     28 CL   UNL     1      -3.436   2.322  11.661  0.00  0.00    -0.082 Cl
ATOM     29 CL   UNL     1      -0.845   3.379  13.046  0.00  0.00    -0.082 Cl
ENDBRANCH  21  22
ENDBRANCH  20  21
ENDBRANCH  19  20
ENDBRANCH   4  19
TORSDOF 6
