REMARK  Name = ZINC24227993
REMARK  12 active torsions:
REMARK  status: ('A' for Active; 'I' for Inactive)
REMARK    1  A    between atoms: C_1  and  C_2
REMARK    2  A    between atoms: C_2  and  C_4
REMARK    3  A    between atoms: C_2  and  N_32
REMARK    4  A    between atoms: C_7  and  S_16
REMARK    5  A    between atoms: N_8  and  C_9
REMARK    6  A    between atoms: S_16  and  C_17
REMARK    7  A    between atoms: C_17  and  C_19
REMARK    8  A    between atoms: C_17  and  C_20
REMARK    9  A    between atoms: N_22  and  C_23
REMARK   10  A    between atoms: C_28  and  C_29
REMARK   11  A    between atoms: C_29  and  C_30
REMARK   12  A    between atoms: C_29  and  C_31
REMARK                            x       y       z     vdW  Elec       q    Type
REMARK                         _______ _______ _______ _____ _____    ______ ____
ROOT
ATOM      1  C   UNL     1       0.734  -0.529  -1.214  0.00  0.00    +0.125 A 
ATOM      2  N   UNL     1       2.019  -0.520  -1.430  0.00  0.00    -0.135 NA
ATOM      3  N   UNL     1       2.276  -0.999  -2.594  0.00  0.00    -0.122 NA
ATOM      4  C   UNL     1       1.159  -1.345  -3.192  0.00  0.00    +0.197 A 
ATOM      5  N   UNL     1       0.138  -1.061  -2.327  0.00  0.00    -0.275 N 
ENDROOT
BRANCH   5   6
ATOM      6  C   UNL     1      -1.234  -1.268  -2.537  0.00  0.00    +0.050 A 
ATOM      7  C   UNL     1      -1.929  -2.173  -1.746  0.00  0.00    +0.029 A 
ATOM      8  C   UNL     1      -3.279  -2.375  -1.955  0.00  0.00    +0.040 A 
ATOM      9  C   UNL     1      -3.939  -1.677  -2.952  0.00  0.00    +0.124 A 
ATOM     10  C   UNL     1      -3.247  -0.774  -3.742  0.00  0.00    +0.040 A 
ATOM     11  C   UNL     1      -1.898  -0.565  -3.532  0.00  0.00    +0.029 A 
ATOM     12  F   UNL     1      -5.260  -1.877  -3.155  0.00  0.00    -0.205 F 
ENDBRANCH   5   6
BRANCH   1  14
ATOM     13  C   UNL     1       0.018   1.479   0.052  0.00  0.00    -0.005 C 
ATOM     14  C   UNL     1       0.034  -0.051   0.032  0.00  0.00    -0.002 C 
BRANCH  14  15
ATOM     15  N   UNL     1       0.746  -0.548   1.216  0.00  0.00    +0.386 N 
ATOM     16  C   UNL     1       0.768  -2.016   1.191  0.00  0.00    -0.078 C 
ATOM     17  C   UNL     1       1.578  -2.538   2.379  0.00  0.00    -0.019 C 
ATOM     18  C   UNL     1       0.931  -2.058   3.682  0.00  0.00    -0.004 C 
ATOM     19  C   UNL     1       0.846  -0.529   3.664  0.00  0.00    -0.019 C 
ATOM     20  C   UNL     1       0.063  -0.081   2.428  0.00  0.00    -0.078 C 
ATOM     21  H   UNL     1       1.693  -0.200   1.209  0.00  0.00    -0.081 HD
ENDBRANCH  14  15
ENDBRANCH   1  14
BRANCH   4  22
ATOM     22  S   UNL     1       1.005  -2.047  -4.801  0.00  0.00    -0.073 S 
BRANCH  22  23
ATOM     23  C   UNL     1       2.715  -2.165  -5.393  0.00  0.00    +0.137 C 
ATOM     24  C   UNL     1       3.489  -3.157  -4.522  0.00  0.00    +0.029 C 
BRANCH  23  25
ATOM     25  C   UNL     1       2.720  -2.643  -6.822  0.00  0.00    +0.230 C 
ATOM     26  O   UNL     1       1.751  -3.218  -7.273  0.00  0.00    -0.274 OA
ATOM     27  N   UNL     1       3.800  -2.432  -7.600  0.00  0.00    -0.284 N 
ATOM     28  H   UNL     1       4.542  -1.903  -7.267  0.00  0.00    +0.155 HD
BRANCH  27  29
ATOM     29  C   UNL     1       3.851  -2.974  -8.889  0.00  0.00    +0.037 A 
ATOM     30  C   UNL     1       3.106  -4.105  -9.198  0.00  0.00    +0.023 A 
ATOM     31  C   UNL     1       3.158  -4.638 -10.471  0.00  0.00    +0.002 A 
ATOM     32  C   UNL     1       3.952  -4.048 -11.437  0.00  0.00    +0.000 A 
ATOM     33  C   UNL     1       4.696  -2.922 -11.133  0.00  0.00    +0.006 A 
ATOM     34  C   UNL     1       4.642  -2.380  -9.863  0.00  0.00    -0.024 A 
BRANCH  34  35
ATOM     35  C   UNL     1       5.447  -1.150  -9.534  0.00  0.00    +0.015 C 
ATOM     36  C   UNL     1       6.919  -1.397  -9.873  0.00  0.00    +0.012 C 
ATOM     37  C   UNL     1       4.928   0.034 -10.352  0.00  0.00    +0.012 C 
ENDBRANCH  34  35
ENDBRANCH  27  29
ENDBRANCH  23  25
ENDBRANCH  22  23
ENDBRANCH   4  22
TORSDOF 8
