REMARK  Name = ZINC08416147
REMARK  13 active torsions:
REMARK  status: ('A' for Active; 'I' for Inactive)
REMARK    1  A    between atoms: C_1  and  C_2
REMARK    2  A    between atoms: C_2  and  O_3
REMARK    3  A    between atoms: O_3  and  C_4
REMARK    4  A    between atoms: C_4  and  C_6
REMARK    5  A    between atoms: C_8  and  C_33
REMARK    6  A    between atoms: C_15  and  C_26
REMARK    7  A    between atoms: C_17  and  C_21
REMARK    8  A    between atoms: C_18  and  C_20
REMARK    9  A    between atoms: C_21  and  O_23
REMARK   10  A    between atoms: O_23  and  C_24
REMARK   11  A    between atoms: C_24  and  C_25
REMARK   12  A    between atoms: C_38  and  O_39
REMARK   13  A    between atoms: O_39  and  C_40
REMARK                            x       y       z     vdW  Elec       q    Type
REMARK                         _______ _______ _______ _____ _____    ______ ____
ROOT
ATOM      1  C   UNL     1       1.341  -2.262  -2.245  0.00  0.00    +0.176 C 
ATOM      2  C   UNL     1       1.513  -3.784  -2.290  0.00  0.00    +0.049 C 
ATOM      3  C   UNL     1       2.479  -4.195  -1.177  0.00  0.00    +0.060 C 
ATOM      4  C   UNL     1       3.798  -3.487  -1.364  0.00  0.00    +0.016 C 
ATOM      5  C   UNL     1       3.857  -2.265  -1.934  0.00  0.00    +0.025 C 
ATOM      6  C   UNL     1       2.691  -1.610  -2.374  0.00  0.00    +0.176 C 
ATOM      7  O   UNL     1       2.774  -0.503  -2.866  0.00  0.00    -0.291 OA
ATOM      8  C   UNL     1       5.180  -1.565  -2.120  0.00  0.00    +0.092 C 
ATOM      9  C   UNL     1       6.239  -2.173  -1.249  0.00  0.00    +0.065 C 
ATOM     10  C   UNL     1       6.082  -3.394  -0.709  0.00  0.00    +0.016 C 
ATOM     11  N   UNL     1       4.940  -4.111  -0.939  0.00  0.00    -0.321 N 
ATOM     12  C   UNL     1       7.171  -3.977   0.154  0.00  0.00    +0.061 C 
ATOM     13  H   UNL     1       4.940  -5.071  -0.799  0.00  0.00    +0.152 HD
ENDROOT
BRANCH   8  14
ATOM     14  C   UNL     1       5.601  -1.679  -3.562  0.00  0.00    -0.035 A 
ATOM     15  C   UNL     1       5.789  -2.926  -4.130  0.00  0.00    +0.007 A 
ATOM     16  C   UNL     1       6.176  -3.032  -5.453  0.00  0.00    +0.038 A 
ATOM     17  C   UNL     1       6.374  -1.890  -6.210  0.00  0.00    +0.123 A 
ATOM     18  C   UNL     1       6.185  -0.642  -5.640  0.00  0.00    +0.038 A 
ATOM     19  C   UNL     1       5.794  -0.538  -4.319  0.00  0.00    +0.007 A 
ATOM     20  F   UNL     1       6.752  -1.992  -7.502  0.00  0.00    -0.205 F 
ENDBRANCH   8  14
BRANCH   2  21
ATOM     21  C   UNL     1       0.178  -4.451  -2.080  0.00  0.00    -0.001 A 
ATOM     22  C   UNL     1       0.072  -5.531  -1.224  0.00  0.00    +0.007 A 
ATOM     23  C   UNL     1      -1.152  -6.144  -1.032  0.00  0.00    +0.001 A 
ATOM     24  C   UNL     1      -2.273  -5.678  -1.694  0.00  0.00    +0.004 A 
ATOM     25  C   UNL     1      -2.172  -4.598  -2.550  0.00  0.00    +0.046 A 
ATOM     26  C   UNL     1      -0.946  -3.978  -2.741  0.00  0.00    +0.124 A 
BRANCH  26  27
ATOM     27  O   UNL     1      -0.845  -2.913  -3.578  0.00  0.00    -0.495 OA
ATOM     28  C   UNL     1      -2.044  -2.480  -4.225  0.00  0.00    +0.277 C 
ENDBRANCH  26  27
ENDBRANCH   2  21
BRANCH   1  29
ATOM     29  C   UNL     1       0.711  -1.863  -0.935  0.00  0.00    +0.318 C 
ATOM     30  O   UNL     1       0.391  -2.712  -0.137  0.00  0.00    -0.250 OA
BRANCH  29  31
ATOM     31  O   UNL     1       0.506  -0.567  -0.656  0.00  0.00    -0.464 OA
BRANCH  31  33
ATOM     32  C   UNL     1      -0.247   1.254   0.743  0.00  0.00    +0.048 C 
ATOM     33  C   UNL     1      -0.095  -0.262   0.604  0.00  0.00    +0.229 C 
ENDBRANCH  31  33
ENDBRANCH  29  31
ENDBRANCH   1  29
BRANCH   9  34
ATOM     34  C   UNL     1       7.425  -1.448  -0.990  0.00  0.00    +0.338 C 
ATOM     35  O   UNL     1       8.236  -1.874  -0.189  0.00  0.00    -0.245 OA
BRANCH  34  36
ATOM     36  O   UNL     1       7.658  -0.284  -1.632  0.00  0.00    -0.462 OA
BRANCH  36  37
ATOM     37  C   UNL     1       8.877   0.395  -1.323  0.00  0.00    +0.229 C 
ATOM     38  C   UNL     1       8.964   1.684  -2.142  0.00  0.00    +0.048 C 
ENDBRANCH  36  37
ENDBRANCH  34  36
ENDBRANCH   9  34
TORSDOF 9
