REMARK  Name = ZINC59795023
REMARK  9 active torsions:
REMARK  status: ('A' for Active; 'I' for Inactive)
REMARK    1  A    between atoms: C_2  and  C_3
REMARK    2  A    between atoms: C_3  and  N_4
REMARK    3  A    between atoms: C_5  and  C_28
REMARK    4  A    between atoms: C_8  and  S_9
REMARK    5  A    between atoms: S_9  and  C_10
REMARK    6  A    between atoms: C_10  and  C_11
REMARK    7  A    between atoms: N_13  and  C_14
REMARK    8  A    between atoms: C_17  and  S_20
REMARK    9  A    between atoms: S_20  and  N_23
REMARK                            x       y       z     vdW  Elec       q    Type
REMARK                         _______ _______ _______ _____ _____    ______ ____
ROOT
ATOM      1  C   UNL     1       0.300  -6.487   1.188  0.00  0.00    +0.227 C 
ATOM      2  O   UNL     1       0.260  -6.037   2.313  0.00  0.00    -0.275 OA
ATOM      3  N   UNL     1       0.735  -7.746   0.981  0.00  0.00    -0.285 N 
ATOM      4  H   UNL     1       0.832  -8.083   0.077  0.00  0.00    +0.155 HD
ENDROOT
BRANCH   3   5
ATOM      5  C   UNL     1       1.045  -8.567   2.071  0.00  0.00    +0.034 A 
ATOM      6  C   UNL     1       2.078  -9.490   1.974  0.00  0.00    +0.025 A 
ATOM      7  C   UNL     1       2.382 -10.299   3.052  0.00  0.00    +0.030 A 
ATOM      8  C   UNL     1       1.659 -10.190   4.226  0.00  0.00    +0.106 A 
ATOM      9  C   UNL     1       0.630  -9.272   4.325  0.00  0.00    +0.030 A 
ATOM     10  C   UNL     1       0.325  -8.456   3.253  0.00  0.00    +0.025 A 
BRANCH   8  11
ATOM     11  S   UNL     1       2.050 -11.224   5.598  0.00  0.00    +0.061 S 
ATOM     12  O   UNL     1       0.875 -11.307   6.392  0.00  0.00    -0.153 OA
ATOM     13  O   UNL     1       2.695 -12.375   5.069  0.00  0.00    -0.153 OA
BRANCH  11  14
ATOM     14  N   UNL     1       3.180 -10.425   6.507  0.00  0.00    -0.177 NA
ATOM     15  C   UNL     1       4.638 -10.518   6.338  0.00  0.00    +0.109 C 
ATOM     16  C   UNL     1       5.282  -9.625   7.419  0.00  0.00    +0.018 C 
ATOM     17  C   UNL     1       4.169  -9.522   8.495  0.00  0.00    +0.018 C 
ATOM     18  C   UNL     1       2.891  -9.496   7.615  0.00  0.00    +0.109 C 
ENDBRANCH  11  14
ENDBRANCH   8  11
ENDBRANCH   3   5
BRANCH   1  19
ATOM     19  C   UNL     1      -0.136  -5.639   0.021  0.00  0.00    +0.173 C 
BRANCH  19  20
ATOM     20  S   UNL     1      -0.661  -4.010   0.620  0.00  0.00    -0.077 S 
BRANCH  20  25
ATOM     21  N   UNL     1      -1.607  -1.870  -0.913  0.00  0.00    -0.298 N 
ATOM     22  C   UNL     1      -1.833  -1.631  -2.249  0.00  0.00    +0.165 A 
ATOM     23  N   UNL     1      -1.509  -2.726  -2.897  0.00  0.00    -0.128 NA
ATOM     24  N   UNL     1      -1.101  -3.620  -2.069  0.00  0.00    -0.122 NA
ATOM     25  C   UNL     1      -1.134  -3.149  -0.843  0.00  0.00    +0.193 A 
BRANCH  22  26
ATOM     26  C   UNL     1      -2.346  -0.378  -2.843  0.00  0.00    +0.019 A 
ATOM     27  C   UNL     1      -2.936  -0.392  -4.108  0.00  0.00    +0.013 A 
ATOM     28  C   UNL     1      -3.413   0.780  -4.657  0.00  0.00    +0.021 A 
ATOM     29  C   UNL     1      -3.305   1.970  -3.956  0.00  0.00    +0.041 A 
ATOM     30  C   UNL     1      -2.720   1.990  -2.701  0.00  0.00    +0.021 A 
ATOM     31  C   UNL     1      -2.246   0.823  -2.139  0.00  0.00    +0.013 A 
ATOM     32 CL   UNL     1      -3.906   3.442  -4.654  0.00  0.00    -0.084 Cl
ENDBRANCH  22  26
BRANCH  21  33
ATOM     33  C   UNL     1      -1.821  -0.942   0.201  0.00  0.00    +0.152 C 
BRANCH  33  35
ATOM     34  C   UNL     1      -0.470   1.048   0.619  0.00  0.00    +0.005 C 
ATOM     35  C   UNL     1      -0.522  -0.259   0.542  0.00  0.00    -0.013 C 
ENDBRANCH  33  35
ENDBRANCH  21  33
ENDBRANCH  20  25
ENDBRANCH  19  20
ENDBRANCH   1  19
TORSDOF 9
