REMARK  Name = ZINC06133849
REMARK  7 active torsions:
REMARK  status: ('A' for Active; 'I' for Inactive)
REMARK    1  A    between atoms: C_1  and  C_2
REMARK    2  A    between atoms: C_5  and  S_8
REMARK    3  A    between atoms: S_8  and  N_11
REMARK    4  A    between atoms: C_16  and  C_17
REMARK    5  A    between atoms: C_16  and  N_49
REMARK    6  A    between atoms: N_19  and  N_20
REMARK    7  A    between atoms: C_21  and  C_22
REMARK                            x       y       z     vdW  Elec       q    Type
REMARK                         _______ _______ _______ _____ _____    ______ ____
ROOT
ATOM      1  N   UNL     1      -0.993   2.209   1.554  0.00  0.00    -0.180 NA
ATOM      2  C   UNL     1      -0.242   1.513   0.499  0.00  0.00    +0.091 C 
ATOM      3  C   UNL     1      -0.898   1.815  -0.852  0.00  0.00    -0.061 C 
ATOM      4  C   UNL     1      -1.882   3.863  -0.005  0.00  0.00    -0.061 C 
ATOM      5  C   UNL     1      -1.266   3.645   1.381  0.00  0.00    +0.091 C 
ATOM      6  N   UNL     1      -0.979   3.282  -1.022  0.00  0.00    +0.387 N 
ATOM      7  H   UNL     1      -0.042   3.684  -0.904  0.00  0.00    -0.081 HD
ENDROOT
BRANCH   1   8
ATOM      8  S   UNL     1      -1.523   1.398   2.897  0.00  0.00    +0.061 S 
ATOM      9  O   UNL     1      -2.628   2.132   3.406  0.00  0.00    -0.153 OA
ATOM     10  O   UNL     1      -1.622   0.028   2.532  0.00  0.00    -0.153 OA
BRANCH   8  15
ATOM     11  C   UNL     1       2.845   1.766   7.043  0.00  0.00    +0.044 C 
ATOM     12  C   UNL     1       1.754   1.674   6.008  0.00  0.00    -0.050 A 
ATOM     13  C   UNL     1       0.770   2.643   5.952  0.00  0.00    +0.005 A 
ATOM     14  C   UNL     1      -0.231   2.559   5.003  0.00  0.00    +0.029 A 
ATOM     15  C   UNL     1      -0.247   1.505   4.108  0.00  0.00    +0.105 A 
ATOM     16  C   UNL     1       0.734   0.533   4.166  0.00  0.00    +0.029 A 
ATOM     17  C   UNL     1       1.737   0.620   5.113  0.00  0.00    +0.005 A 
ENDBRANCH   8  15
ENDBRANCH   1   8
BRANCH   6  18
ATOM     18  C   UNL     1      -1.472   3.606  -2.377  0.00  0.00    +0.020 C 
BRANCH  18  19
ATOM     19  C   UNL     1      -2.874   3.090  -2.569  0.00  0.00    +0.216 C 
ATOM     20  O   UNL     1      -3.394   2.410  -1.708  0.00  0.00    -0.276 OA
ATOM     21  N   UNL     1      -3.552   3.382  -3.697  0.00  0.00    -0.209 N 
ATOM     22  H   UNL     1      -3.136   3.925  -4.385  0.00  0.00    +0.177 HD
BRANCH  21  23
ATOM     23  N   UNL     1      -4.856   2.902  -3.876  0.00  0.00    -0.187 NA
ATOM     24  C   UNL     1      -5.509   3.184  -4.964  0.00  0.00    +0.145 C 
BRANCH  24  25
ATOM     25  C   UNL     1      -6.874   2.681  -5.151  0.00  0.00    +0.033 A 
ATOM     26  C   UNL     1      -7.732   2.864  -6.221  0.00  0.00    +0.018 A 
ATOM     27  C   UNL     1      -8.979   2.286  -6.166  0.00  0.00    +0.023 A 
ATOM     28  C   UNL     1      -9.327   1.559  -5.070  0.00  0.00    +0.055 A 
ATOM     29  S   UNL     1      -7.859   1.667  -4.061  0.00  0.00    -0.080 S 
ATOM     30 BR   UNL     1     -10.950   0.657  -4.712  0.00  0.00    -0.043 Br
ENDBRANCH  24  25
ENDBRANCH  21  23
ENDBRANCH  18  19
ENDBRANCH   6  18
TORSDOF 6
