REMARK  Name = ZINC04295099
REMARK  10 active torsions:
REMARK  status: ('A' for Active; 'I' for Inactive)
REMARK    1  A    between atoms: C_1  and  C_2
REMARK    2  A    between atoms: C_2  and  C_12
REMARK    3  A    between atoms: N_3  and  C_4
REMARK    4  A    between atoms: C_7  and  O_10
REMARK    5  A    between atoms: O_10  and  C_11
REMARK    6  A    between atoms: C_13  and  O_29
REMARK    7  A    between atoms: N_16  and  C_26
REMARK    8  A    between atoms: C_17  and  C_19
REMARK    9  A    between atoms: C_26  and  C_27
REMARK   10  A    between atoms: C_27  and  O_28
REMARK                            x       y       z     vdW  Elec       q    Type
REMARK                         _______ _______ _______ _____ _____    ______ ____
ROOT
ATOM      1  C   UNL     1      -2.151   1.681  -1.202  0.00  0.00    +0.043 C 
ATOM      2  C   UNL     1      -2.976   1.387  -0.165  0.00  0.00    +0.186 C 
ATOM      3  C   UNL     1      -4.369   1.612  -0.576  0.00  0.00    +0.282 C 
ATOM      4  O   UNL     1      -5.341   1.437   0.134  0.00  0.00    -0.267 OA
ATOM      5  N   UNL     1      -4.413   2.039  -1.851  0.00  0.00    -0.282 N 
ATOM      6  C   UNL     1      -3.034   2.124  -2.346  0.00  0.00    +0.142 C 
ENDROOT
BRANCH   6   7
ATOM      7  C   UNL     1      -2.853   1.205  -3.527  0.00  0.00    -0.022 A 
ATOM      8  C   UNL     1      -3.479  -0.027  -3.547  0.00  0.00    +0.007 A 
ATOM      9  C   UNL     1      -3.314  -0.869  -4.630  0.00  0.00    +0.015 A 
ATOM     10  C   UNL     1      -2.521  -0.479  -5.694  0.00  0.00    +0.018 A 
ATOM     11  C   UNL     1      -1.894   0.753  -5.674  0.00  0.00    +0.015 A 
ATOM     12  C   UNL     1      -2.064   1.597  -4.593  0.00  0.00    +0.007 A 
ATOM     13 BR   UNL     1      -2.294  -1.632  -7.176  0.00  0.00    -0.050 Br
ENDBRANCH   6   7
BRANCH   1  15
ATOM     14  C   UNL     1      -0.007   1.137   0.025  0.00  0.00    +0.064 C 
ATOM     15  C   UNL     1      -0.740   1.594  -1.209  0.00  0.00    +0.022 C 
ATOM     16  N   UNL     1      -0.071   1.911  -2.287  0.00  0.00    -0.358 N 
ATOM     17  H   UNL     1      -0.532   2.294  -3.050  0.00  0.00    +0.166 HD
BRANCH  16  18
ATOM     18  C   UNL     1       1.276   1.704  -2.339  0.00  0.00    +0.040 A 
ATOM     19  C   UNL     1       1.800   0.429  -2.099  0.00  0.00    +0.029 A 
ATOM     20  C   UNL     1       3.161   0.225  -2.153  0.00  0.00    +0.047 A 
ATOM     21  C   UNL     1       4.014   1.282  -2.445  0.00  0.00    +0.120 A 
ATOM     22  C   UNL     1       3.499   2.551  -2.683  0.00  0.00    +0.047 A 
ATOM     23  C   UNL     1       2.139   2.764  -2.638  0.00  0.00    +0.029 A 
BRANCH  21  24
ATOM     24  O   UNL     1       5.355   1.076  -2.496  0.00  0.00    -0.495 OA
ATOM     25  C   UNL     1       6.174   2.207  -2.801  0.00  0.00    +0.277 C 
ENDBRANCH  21  24
ENDBRANCH  16  18
ENDBRANCH   1  15
BRANCH   2  26
ATOM     26  O   UNL     1      -2.578   0.956   1.058  0.00  0.00    -0.502 OA
ATOM     27  H   UNL     1      -3.305   0.796   1.675  0.00  0.00    +0.292 HD
ENDBRANCH   2  26
BRANCH   5  28
ATOM     28  C   UNL     1      -5.623   2.367  -2.608  0.00  0.00    +0.137 C 
BRANCH  28  29
ATOM     29  C   UNL     1      -5.958   3.848  -2.418  0.00  0.00    +0.175 C 
BRANCH  29  30
ATOM     30  O   UNL     1      -4.923   4.648  -2.993  0.00  0.00    -0.393 OA
ATOM     31  H   UNL     1      -5.069   5.600  -2.909  0.00  0.00    +0.209 HD
ENDBRANCH  29  30
ENDBRANCH  28  29
ENDBRANCH   5  28
TORSDOF 8
