REMARK  Name = ZINC14008779
REMARK  7 active torsions:
REMARK  status: ('A' for Active; 'I' for Inactive)
REMARK    1  A    between atoms: C_1  and  C_2
REMARK    2  A    between atoms: C_2  and  C_3
REMARK    3  A    between atoms: C_6  and  N_9
REMARK    4  A    between atoms: C_15  and  C_16
REMARK    5  A    between atoms: C_18  and  C_29
REMARK    6  A    between atoms: N_19  and  C_22
REMARK    7  A    between atoms: C_20  and  C_21
REMARK                            x       y       z     vdW  Elec       q    Type
REMARK                         _______ _______ _______ _____ _____    ______ ____
ROOT
ATOM      1  N   UNL     1      -5.148  -2.378  -0.485  0.00  0.00    -0.226 NA
ATOM      2  C   UNL     1      -6.083  -1.772  -1.183  0.00  0.00    +0.166 C 
ATOM      3  N   UNL     1      -5.936  -0.830  -2.177  0.00  0.00    -0.260 N 
ATOM      4  C   UNL     1      -6.994  -0.319  -2.783  0.00  0.00    +0.256 C 
ATOM      5  O   UNL     1      -6.882   0.515  -3.663  0.00  0.00    -0.269 OA
ATOM      6  C   UNL     1      -8.314  -0.802  -2.346  0.00  0.00    +0.078 C 
ATOM      7  C   UNL     1      -9.550  -0.454  -2.790  0.00  0.00    +0.030 C 
ATOM      8  S   UNL     1      -7.854  -1.977  -1.081  0.00  0.00    -0.049 S 
ATOM      9  H   UNL     1      -5.047  -0.537  -2.435  0.00  0.00    +0.157 HD
ENDROOT
BRANCH   7  10
ATOM     10  C   UNL     1      -9.704   0.660  -3.732  0.00  0.00    -0.003 A 
ATOM     11  C   UNL     1      -8.914   1.897  -3.775  0.00  0.00    +0.031 A 
ATOM     12  C   UNL     1      -9.398   2.627  -4.794  0.00  0.00    +0.022 A 
ATOM     13  N   UNL     1     -10.424   1.946  -5.387  0.00  0.00    -0.317 N 
ATOM     14  C   UNL     1     -10.618   0.756  -4.763  0.00  0.00    +0.028 A 
ATOM     15  C   UNL     1     -11.652  -0.278  -5.129  0.00  0.00    +0.064 C 
ATOM     16  C   UNL     1      -8.891   3.982  -5.215  0.00  0.00    +0.064 C 
BRANCH  13  17
ATOM     17  C   UNL     1     -11.164   2.406  -6.484  0.00  0.00    +0.048 A 
ATOM     18  C   UNL     1     -12.515   2.691  -6.342  0.00  0.00    +0.026 A 
ATOM     19  C   UNL     1     -13.242   3.145  -7.425  0.00  0.00    +0.003 A 
ATOM     20  C   UNL     1     -12.626   3.316  -8.651  0.00  0.00    +0.015 A 
ATOM     21  C   UNL     1     -11.280   3.033  -8.796  0.00  0.00    +0.020 A 
ATOM     22  C   UNL     1     -10.546   2.583  -7.715  0.00  0.00    +0.041 A 
ATOM     23 BR   UNL     1     -10.441   3.267 -10.475  0.00  0.00    -0.050 Br
ENDBRANCH  13  17
ENDBRANCH   7  10
BRANCH   1  27
ATOM     24  C   UNL     1      -1.162  -1.496  -1.164  0.00  0.00    -0.047 A 
ATOM     25  C   UNL     1      -1.637  -1.583   0.133  0.00  0.00    +0.006 A 
ATOM     26  C   UNL     1      -2.965  -1.876   0.367  0.00  0.00    +0.028 A 
ATOM     27  C   UNL     1      -3.830  -2.086  -0.710  0.00  0.00    +0.067 A 
ATOM     28  C   UNL     1      -3.343  -1.997  -2.016  0.00  0.00    +0.028 A 
ATOM     29  C   UNL     1      -2.015  -1.698  -2.235  0.00  0.00    +0.006 A 
BRANCH  24  31
ATOM     30  C   UNL     1       0.467   0.342  -1.509  0.00  0.00    +0.009 C 
ATOM     31  C   UNL     1       0.289  -1.175  -1.411  0.00  0.00    +0.032 C 
ENDBRANCH  24  31
ENDBRANCH   1  27
TORSDOF 4
