REMARK  Name = ZINC09366080
REMARK  5 active torsions:
REMARK  status: ('A' for Active; 'I' for Inactive)
REMARK    1  A    between atoms: C_11  and  S_16
REMARK    2  A    between atoms: N_12  and  C_13
REMARK    3  A    between atoms: S_16  and  C_17
REMARK    4  A    between atoms: C_17  and  C_18
REMARK    5  A    between atoms: C_18  and  C_20
REMARK                            x       y       z     vdW  Elec       q    Type
REMARK                         _______ _______ _______ _____ _____    ______ ____
ROOT
ATOM      1  C   UNL     1      15.367   3.631   1.198  0.00  0.00    +0.001 A 
ATOM      2  C   UNL     1      16.550   3.110   1.709  0.00  0.00    +0.002 A 
ATOM      3  C   UNL     1      16.637   1.802   2.089  0.00  0.00    +0.028 A 
ATOM      4  C   UNL     1      15.520   0.964   1.965  0.00  0.00    +0.072 A 
ATOM      5  C   UNL     1      14.321   1.500   1.439  0.00  0.00    +0.012 A 
ATOM      6  C   UNL     1      14.260   2.840   1.065  0.00  0.00    +0.011 A 
ATOM      7  C   UNL     1      13.365   0.385   1.447  0.00  0.00    +0.040 C 
ATOM      8  C   UNL     1      12.019   0.404   1.020  0.00  0.00    +0.121 C 
ATOM      9  N   UNL     1      11.311  -0.649   0.569  0.00  0.00    -0.221 N 
ATOM     10  N   UNL     1      10.023  -0.189   0.261  0.00  0.00    -0.158 NA
ATOM     11  C   UNL     1       9.976   1.090   0.512  0.00  0.00    +0.180 C 
ATOM     12  N   UNL     1      11.200   1.490   0.989  0.00  0.00    -0.262 N 
ATOM     13  C   UNL     1      14.081  -0.706   1.964  0.00  0.00    +0.123 C 
ATOM     14  N   UNL     1      15.307  -0.332   2.248  0.00  0.00    -0.254 NA
ATOM     15  H   UNL     1      11.566  -1.709   0.422  0.00  0.00    +0.176 HD
ENDROOT
BRANCH  12  16
ATOM     16  C   UNL     1      11.561   2.851   1.393  0.00  0.00    +0.082 C 
ATOM     17  C   UNL     1      10.421   3.843   1.632  0.00  0.00    +0.025 C 
ATOM     18  C   UNL     1      11.306   3.978   0.390  0.00  0.00    +0.025 C 
ENDBRANCH  12  16
BRANCH  11  19
ATOM     19  S   UNL     1       8.573   2.130   0.284  0.00  0.00    -0.081 S 
BRANCH  19  20
ATOM     20  C   UNL     1       7.386   0.921  -0.353  0.00  0.00    +0.156 C 
BRANCH  20  21
ATOM     21  C   UNL     1       6.071   1.605  -0.628  0.00  0.00    +0.173 C 
ATOM     22  O   UNL     1       5.949   2.792  -0.415  0.00  0.00    -0.291 OA
BRANCH  21  23
ATOM     23  C   UNL     1       4.938   0.833  -1.155  0.00  0.00    +0.020 A 
ATOM     24  C   UNL     1       5.077  -0.538  -1.402  0.00  0.00    +0.015 A 
ATOM     25  C   UNL     1       4.015  -1.262  -1.895  0.00  0.00    +0.048 A 
ATOM     26  C   UNL     1       2.803  -0.635  -2.150  0.00  0.00    +0.142 A 
ATOM     27  C   UNL     1       2.656   0.733  -1.906  0.00  0.00    +0.076 A 
ATOM     28  C   UNL     1       3.715   1.466  -1.411  0.00  0.00    +0.038 A 
ATOM     29  N   UNL     1       1.424   1.348  -2.171  0.00  0.00    -0.280 N 
ATOM     30  C   UNL     1       0.331   0.574  -2.347  0.00  0.00    +0.255 C 
ATOM     31  O   UNL     1      -0.739   1.081  -2.611  0.00  0.00    -0.272 OA
ATOM     32  C   UNL     1       0.448  -0.924  -2.220  0.00  0.00    +0.325 C 
ATOM     33  O   UNL     1       1.750  -1.342  -2.636  0.00  0.00    -0.481 OA
ATOM     34  H   UNL     1       1.358   2.444  -2.232  0.00  0.00    +0.155 HD
ENDBRANCH  21  23
ENDBRANCH  20  21
ENDBRANCH  19  20
ENDBRANCH  11  19
TORSDOF 5
