REMARK  Name = ZINC06194339
REMARK  10 active torsions:
REMARK  status: ('A' for Active; 'I' for Inactive)
REMARK    1  A    between atoms: C_1  and  C_2
REMARK    2  A    between atoms: C_4  and  N_23
REMARK    3  A    between atoms: C_7  and  N_8
REMARK    4  A    between atoms: N_8  and  C_9
REMARK    5  A    between atoms: C_9  and  N_11
REMARK    6  A    between atoms: N_11  and  C_12
REMARK    7  A    between atoms: C_12  and  C_14
REMARK    8  A    between atoms: C_12  and  N_18
REMARK    9  A    between atoms: C_19  and  O_21
REMARK   10  A    between atoms: O_21  and  C_22
REMARK                            x       y       z     vdW  Elec       q    Type
REMARK                         _______ _______ _______ _____ _____    ______ ____
ROOT
ATOM      1  C   UNL     1       2.426  -0.237   0.079  0.00  0.00    +0.136 C 
ATOM      2  S   UNL     1       0.960  -1.121   0.089  0.00  0.00    -0.019 S 
ENDROOT
BRANCH   1   3
ATOM      3  N   UNL     1       2.402   1.107  -0.015  0.00  0.00    -0.297 N 
ATOM      4  H   UNL     1       3.233   1.603  -0.083  0.00  0.00    +0.154 HD
BRANCH   3  11
ATOM      5  C   UNL     1       2.124   3.369   1.688  0.00  0.00    +0.046 C 
ATOM      6  C   UNL     1       1.001   2.896   0.801  0.00  0.00    -0.027 A 
ATOM      7  C   UNL     1      -0.208   3.565   0.800  0.00  0.00    +0.038 A 
ATOM      8  C   UNL     1      -1.238   3.131  -0.013  0.00  0.00    +0.127 A 
ATOM      9  C   UNL     1      -1.062   2.029  -0.830  0.00  0.00    +0.034 A 
ATOM     10  C   UNL     1       0.142   1.353  -0.829  0.00  0.00    +0.026 A 
ATOM     11  C   UNL     1       1.180   1.786  -0.014  0.00  0.00    +0.036 A 
BRANCH   8  12
ATOM     12  N   UNL     1      -2.532   3.851  -0.013  0.00  0.00    +0.056 N 
ATOM     13  O   UNL     1      -2.687   4.824   0.703  0.00  0.00    -0.126 OA
ATOM     14  O   UNL     1      -3.441   3.470  -0.729  0.00  0.00    -0.126 OA
ENDBRANCH   8  12
ENDBRANCH   3  11
ENDBRANCH   1   3
BRANCH   1  15
ATOM     15  N   UNL     1       3.605  -0.886   0.166  0.00  0.00    -0.305 N 
ATOM     16  H   UNL     1       4.435  -0.385   0.161  0.00  0.00    +0.150 HD
BRANCH  15  17
ATOM     17  C   UNL     1       3.631  -2.347   0.269  0.00  0.00    +0.214 C 
BRANCH  17  18
ATOM     18  C   UNL     1       4.695  -2.906  -0.678  0.00  0.00    +0.225 C 
ATOM     19 CL   UNL     1       6.309  -2.243  -0.225  0.00  0.00    -0.080 Cl
ATOM     20 CL   UNL     1       4.727  -4.704  -0.552  0.00  0.00    -0.080 Cl
ATOM     21 CL   UNL     1       4.303  -2.429  -2.372  0.00  0.00    -0.080 Cl
ENDBRANCH  17  18
BRANCH  17  22
ATOM     22  N   UNL     1       3.949  -2.735   1.645  0.00  0.00    -0.259 N 
ATOM     23  C   UNL     1       2.980  -3.206   2.454  0.00  0.00    +0.401 C 
ATOM     24  O   UNL     1       1.842  -3.309   2.042  0.00  0.00    -0.226 OA
ATOM     25  H   UNL     1       4.858  -2.652   1.974  0.00  0.00    +0.154 HD
BRANCH  23  26
ATOM     26  O   UNL     1       3.273  -3.562   3.719  0.00  0.00    -0.454 OA
ATOM     27  C   UNL     1       2.179  -4.061   4.534  0.00  0.00    +0.282 C 
ENDBRANCH  23  26
ENDBRANCH  17  22
ENDBRANCH  15  17
ENDBRANCH   1  15
TORSDOF 8
