REMARK  Name = ZINC09602501
REMARK  8 active torsions:
REMARK  status: ('A' for Active; 'I' for Inactive)
REMARK    1  A    between atoms: C_1  and  C_2
REMARK    2  A    between atoms: C_5  and  C_8
REMARK    3  A    between atoms: C_11  and  S_14
REMARK    4  A    between atoms: N_12  and  N_13
REMARK    5  A    between atoms: S_14  and  C_15
REMARK    6  A    between atoms: C_15  and  C_16
REMARK    7  A    between atoms: C_22  and  C_29
REMARK    8  A    between atoms: C_24  and  C_28
REMARK                            x       y       z     vdW  Elec       q    Type
REMARK                         _______ _______ _______ _____ _____    ______ ____
ROOT
ATOM      1  S   UNL     1       8.289   1.829   0.359  0.00  0.00    -0.075 S 
ENDROOT
BRANCH   1   5
ATOM      2  C   UNL     1      12.053   2.643  -0.299  0.00  0.00    +0.182 A 
ATOM      3  N   UNL     1      11.523   3.834  -0.152  0.00  0.00    -0.127 NA
ATOM      4  N   UNL     1      10.262   3.728   0.071  0.00  0.00    -0.121 NA
ATOM      5  C   UNL     1       9.911   2.462   0.088  0.00  0.00    +0.209 A 
ATOM      6  N   UNL     1      11.037   1.727  -0.151  0.00  0.00    -0.224 N 
BRANCH   2  11
ATOM      7  C   UNL     1      17.585   1.471  -1.369  0.00  0.00    +0.044 C 
ATOM      8  C   UNL     1      16.136   1.778  -1.089  0.00  0.00    -0.050 A 
ATOM      9  C   UNL     1      15.172   0.811  -1.311  0.00  0.00    +0.004 A 
ATOM     10  C   UNL     1      13.844   1.085  -1.056  0.00  0.00    +0.012 A 
ATOM     11  C   UNL     1      13.475   2.342  -0.574  0.00  0.00    +0.021 A 
ATOM     12  C   UNL     1      14.452   3.315  -0.358  0.00  0.00    +0.012 A 
ATOM     13  C   UNL     1      15.777   3.026  -0.612  0.00  0.00    +0.004 A 
ENDBRANCH   2  11
BRANCH   6  14
ATOM     14  N   UNL     1      11.135   0.367  -0.226  0.00  0.00    -0.295 N 
ATOM     15  H   UNL     1      11.082   0.052  -1.183  0.00  0.00    +0.163 HD
ATOM     16  H   UNL     1      11.982   0.040   0.216  0.00  0.00    +0.163 HD
ENDBRANCH   6  14
ENDBRANCH   1   5
BRANCH   1  17
ATOM     17  C   UNL     1       7.383   3.379   0.592  0.00  0.00    +0.173 C 
BRANCH  17  18
ATOM     18  C   UNL     1       5.928   3.077   0.847  0.00  0.00    +0.229 C 
ATOM     19  O   UNL     1       5.543   1.927   0.869  0.00  0.00    -0.275 OA
ATOM     20  N   UNL     1       5.056   4.084   1.050  0.00  0.00    -0.264 N 
ATOM     21  C   UNL     1       3.720   3.807   1.284  0.00  0.00    +0.165 A 
ATOM     22  N   UNL     1       2.731   4.642   1.501  0.00  0.00    -0.224 NA
ATOM     23  C   UNL     1       1.464   4.227   1.716  0.00  0.00    +0.083 A 
ATOM     24  C   UNL     1       0.316   5.017   1.961  0.00  0.00    -0.024 A 
ATOM     25  C   UNL     1      -0.906   4.432   2.162  0.00  0.00    +0.009 A 
ATOM     26  C   UNL     1      -1.065   3.054   2.126  0.00  0.00    -0.049 A 
ATOM     27  C   UNL     1       0.036   2.251   1.895  0.00  0.00    +0.020 A 
ATOM     28  C   UNL     1       1.265   2.828   1.693  0.00  0.00    +0.041 A 
ATOM     29  S   UNL     1       2.902   2.219   1.367  0.00  0.00    -0.052 S 
ATOM     30  C   UNL     1      -2.424   2.438   2.343  0.00  0.00    +0.044 C 
ATOM     31  C   UNL     1       0.440   6.518   2.002  0.00  0.00    +0.046 C 
ATOM     32  H   UNL     1       5.365   5.004   1.032  0.00  0.00    +0.157 HD
ENDBRANCH  17  18
ENDBRANCH   1  17
TORSDOF 5
