REMARK  Name = ZINC40124672
REMARK  7 active torsions:
REMARK  status: ('A' for Active; 'I' for Inactive)
REMARK    1  A    between atoms: C_1  and  C_2
REMARK    2  A    between atoms: C_2  and  C_3
REMARK    3  A    between atoms: C_2  and  C_4
REMARK    4  A    between atoms: C_2  and  C_5
REMARK    5  A    between atoms: C_8  and  C_11
REMARK    6  A    between atoms: C_13  and  C_19
REMARK    7  A    between atoms: C_19  and  C_21
REMARK                            x       y       z     vdW  Elec       q    Type
REMARK                         _______ _______ _______ _____ _____    ______ ____
ROOT
ATOM      1  C   UNL     1       2.714  -1.863  -4.745  0.00  0.00    +0.142 C 
ATOM      2  C   UNL     1       3.687  -2.966  -4.398  0.00  0.00    +0.079 C 
ATOM      3  C   UNL     1       4.915  -2.533  -4.766  0.00  0.00    +0.249 C 
ATOM      4  C   UNL     1       4.799  -1.179  -5.345  0.00  0.00    +0.285 C 
ATOM      5  O   UNL     1       5.728  -0.521  -5.769  0.00  0.00    -0.267 OA
ATOM      6  N   UNL     1       3.512  -0.783  -5.336  0.00  0.00    -0.298 N 
ATOM      7  O   UNL     1       6.067  -3.229  -4.624  0.00  0.00    -0.282 OA
ATOM      8  H   UNL     1       3.173   0.065  -5.663  0.00  0.00    +0.150 HD
ENDROOT
BRANCH   1  12
ATOM      9  C   UNL     1       0.750  -0.477  -1.214  0.00  0.00    -0.042 A 
ATOM     10  C   UNL     1       0.064  -1.259  -2.124  0.00  0.00    +0.004 A 
ATOM     11  C   UNL     1       0.700  -1.708  -3.267  0.00  0.00    +0.006 A 
ATOM     12  C   UNL     1       2.021  -1.373  -3.500  0.00  0.00    -0.023 A 
ATOM     13  C   UNL     1       2.706  -0.590  -2.590  0.00  0.00    +0.006 A 
ATOM     14  C   UNL     1       2.069  -0.138  -1.449  0.00  0.00    +0.004 A 
BRANCH   9  16
ATOM     15  C   UNL     1       0.054   1.542   0.046  0.00  0.00    +0.015 C 
ATOM     16  C   UNL     1       0.057   0.012   0.032  0.00  0.00    -0.013 C 
ATOM     17  C   UNL     1       0.797  -0.508   1.265  0.00  0.00    +0.015 C 
ATOM     18  C   UNL     1      -1.385  -0.500   0.048  0.00  0.00    +0.015 C 
ENDBRANCH   9  16
ENDBRANCH   1  12
BRANCH   2  19
ATOM     19  C   UNL     1       3.362  -4.258  -3.783  0.00  0.00    +0.230 C 
ATOM     20  O   UNL     1       3.773  -4.521  -2.667  0.00  0.00    -0.283 OA
BRANCH  19  21
ATOM     21  C   UNL     1       2.541  -5.233  -4.513  0.00  0.00    +0.176 A 
ATOM     22  C   UNL     1       2.096  -6.416  -4.008  0.00  0.00    +0.061 A 
ATOM     23  C   UNL     1       1.327  -7.049  -5.078  0.00  0.00    +0.021 A 
ATOM     24  C   UNL     1       0.626  -8.252  -5.193  0.00  0.00    +0.011 A 
ATOM     25  C   UNL     1      -0.005  -8.559  -6.365  0.00  0.00    +0.001 A 
ATOM     26  C   UNL     1       0.046  -7.684  -7.441  0.00  0.00    +0.004 A 
ATOM     27  C   UNL     1       0.734  -6.492  -7.349  0.00  0.00    +0.047 A 
ATOM     28  C   UNL     1       1.383  -6.158  -6.167  0.00  0.00    +0.136 A 
ATOM     29  O   UNL     1       2.110  -5.090  -5.783  0.00  0.00    -0.452 OA
ENDBRANCH  19  21
ENDBRANCH   2  19
TORSDOF 4
