REMARK  Name = ZINC65533064
REMARK  6 active torsions:
REMARK  status: ('A' for Active; 'I' for Inactive)
REMARK    1  A    between atoms: C_1  and  C_2
REMARK    2  A    between atoms: C_7  and  C_8
REMARK    3  A    between atoms: C_8  and  N_9
REMARK    4  A    between atoms: C_16  and  C_19
REMARK    5  A    between atoms: C_19  and  N_20
REMARK    6  A    between atoms: C_22  and  C_25
REMARK                            x       y       z     vdW  Elec       q    Type
REMARK                         _______ _______ _______ _____ _____    ______ ____
ROOT
ATOM      1  N   UNL     1      -1.337   0.481   2.820  0.00  0.00    -0.295 N 
ATOM      2  C   UNL     1      -1.579   1.167   3.955  0.00  0.00    +0.302 C 
ATOM      3  O   UNL     1      -0.685   1.349   4.758  0.00  0.00    -0.253 OA
ATOM      4  N   UNL     1      -2.813   1.651   4.199  0.00  0.00    -0.285 N 
ATOM      5  C   UNL     1      -3.932   1.338   3.300  0.00  0.00    +0.109 C 
ATOM      6  C   UNL     1      -5.081   0.753   4.127  0.00  0.00    +0.019 C 
ATOM      7  C   UNL     1      -5.435   1.722   5.257  0.00  0.00    +0.008 C 
ATOM      8  C   UNL     1      -4.224   1.904   6.174  0.00  0.00    +0.028 C 
ATOM      9  C   UNL     1      -3.066   2.497   5.373  0.00  0.00    +0.114 C 
ATOM     10  H   UNL     1      -2.065   0.273   2.214  0.00  0.00    +0.151 HD
ENDROOT
BRANCH   1  11
ATOM     11  C   UNL     1       0.026   0.049   2.503  0.00  0.00    +0.141 C 
BRANCH  11  18
ATOM     12  C   UNL     1      -0.011   1.516   0.014  0.00  0.00    +0.044 C 
ATOM     13  C   UNL     1       0.007   0.009   0.000  0.00  0.00    -0.046 A 
ATOM     14  C   UNL     1       0.012  -0.671  -1.204  0.00  0.00    +0.003 A 
ATOM     15  C   UNL     1       0.030  -2.053  -1.216  0.00  0.00    +0.000 A 
ATOM     16  C   UNL     1       0.043  -2.755  -0.025  0.00  0.00    +0.000 A 
ATOM     17  C   UNL     1       0.038  -2.075   1.178  0.00  0.00    +0.005 A 
ATOM     18  C   UNL     1       0.025  -0.693   1.191  0.00  0.00    -0.027 A 
ENDBRANCH  11  18
ENDBRANCH   1  11
BRANCH   8  19
ATOM     19  C   UNL     1      -4.590   2.847   7.322  0.00  0.00    +0.150 C 
BRANCH  19  20
ATOM     20  N   UNL     1      -3.470   2.927   8.264  0.00  0.00    -0.251 N 
ATOM     21  C   UNL     1      -2.852   4.049   8.681  0.00  0.00    +0.145 A 
ATOM     22  C   UNL     1      -1.864   3.654   9.556  0.00  0.00    +0.193 A 
ATOM     23  N   UNL     1      -1.900   2.312   9.653  0.00  0.00    -0.123 NA
ATOM     24  N   UNL     1      -2.842   1.852   8.906  0.00  0.00    -0.065 NA
BRANCH  22  25
ATOM     25  C   UNL     1      -0.930   4.545  10.263  0.00  0.00    +0.408 C 
ATOM     26  O   UNL     1      -0.993   5.755  10.094  0.00  0.00    -0.239 OA
ATOM     27  O   UNL     1      -0.091   4.076  11.019  0.00  0.00    -0.239 OA
ENDBRANCH  22  25
ENDBRANCH  19  20
ENDBRANCH   8  19
TORSDOF 5
