REMARK  Name = ZINC12556219
REMARK  9 active torsions:
REMARK  status: ('A' for Active; 'I' for Inactive)
REMARK    1  A    between atoms: C_1  and  N_2
REMARK    2  A    between atoms: N_2  and  C_3
REMARK    3  A    between atoms: N_2  and  C_4
REMARK    4  A    between atoms: C_7  and  C_10
REMARK    5  A    between atoms: C_10  and  N_11
REMARK    6  A    between atoms: C_12  and  C_14
REMARK    7  A    between atoms: C_14  and  C_15
REMARK    8  A    between atoms: C_15  and  C_16
REMARK    9  A    between atoms: C_19  and  C_21
REMARK                            x       y       z     vdW  Elec       q    Type
REMARK                         _______ _______ _______ _____ _____    ______ ____
ROOT
ATOM      1  N   UNL     1      -0.727   1.554  -1.177  0.00  0.00    -0.311 N 
ATOM      2  C   UNL     1      -0.275   1.238  -2.406  0.00  0.00    +0.214 C 
ATOM      3  O   UNL     1       0.726   0.564  -2.530  0.00  0.00    -0.276 OA
ATOM      4  H   UNL     1      -1.527   2.093  -1.078  0.00  0.00    +0.149 HD
ENDROOT
BRANCH   1   5
ATOM      5  C   UNL     1      -0.010   1.083   0.011  0.00  0.00    +0.139 C 
BRANCH   5   9
ATOM      6  C   UNL     1      -2.013   2.463   3.525  0.00  0.00    +0.029 A 
ATOM      7  C   UNL     1      -2.357   1.241   2.962  0.00  0.00    +0.023 A 
ATOM      8  C   UNL     1      -1.708   0.798   1.827  0.00  0.00    +0.007 A 
ATOM      9  C   UNL     1      -0.716   1.570   1.250  0.00  0.00    -0.030 A 
ATOM     10  C   UNL     1      -0.366   2.785   1.811  0.00  0.00    +0.007 A 
ATOM     11  C   UNL     1      -1.016   3.236   2.943  0.00  0.00    +0.023 A 
BRANCH   6  13
ATOM     12  C   UNL     1      -3.802   2.162   5.213  0.00  0.00    +0.129 C 
ATOM     13  N   UNL     1      -2.667   2.915   4.673  0.00  0.00    -0.336 N 
ATOM     14  C   UNL     1      -2.220   4.141   5.338  0.00  0.00    +0.129 C 
ENDBRANCH   6  13
ENDBRANCH   5   9
ENDBRANCH   1   5
BRANCH   2  15
ATOM     15  C   UNL     1      -1.012   1.723  -3.628  0.00  0.00    +0.103 C 
BRANCH  15  16
ATOM     16  C   UNL     1      -0.295   1.229  -4.886  0.00  0.00    +0.083 C 
BRANCH  16  17
ATOM     17  C   UNL     1      -1.033   1.713  -6.108  0.00  0.00    +0.106 A 
ATOM     18  C   UNL     1      -0.810   2.877  -6.750  0.00  0.00    +0.045 A 
ATOM     19  C   UNL     1      -1.712   2.930  -7.832  0.00  0.00    +0.050 A 
ATOM     20  C   UNL     1      -2.448   1.788  -7.785  0.00  0.00    +0.138 A 
ATOM     21  O   UNL     1      -2.026   1.060  -6.734  0.00  0.00    -0.460 OA
BRANCH  20  22
ATOM     22  C   UNL     1      -3.525   1.411  -8.724  0.00  0.00    +0.052 A 
ATOM     23  C   UNL     1      -3.526   0.149  -9.320  0.00  0.00    +0.014 A 
ATOM     24  C   UNL     1      -4.535  -0.197 -10.195  0.00  0.00    +0.001 A 
ATOM     25  C   UNL     1      -5.545   0.704 -10.484  0.00  0.00    +0.003 A 
ATOM     26  C   UNL     1      -5.552   1.957  -9.898  0.00  0.00    +0.039 A 
ATOM     27  C   UNL     1      -4.551   2.315  -9.015  0.00  0.00    +0.134 A 
ATOM     28  F   UNL     1      -4.561   3.537  -8.439  0.00  0.00    -0.205 F 
ENDBRANCH  20  22
ENDBRANCH  16  17
ENDBRANCH  15  16
ENDBRANCH   2  15
TORSDOF 7
