REMARK  Name = ZINC24108367
REMARK  13 active torsions:
REMARK  status: ('A' for Active; 'I' for Inactive)
REMARK    1  A    between atoms: C_1  and  C_2
REMARK    2  A    between atoms: C_5  and  C_32
REMARK    3  A    between atoms: C_6  and  O_8
REMARK    4  A    between atoms: O_8  and  C_9
REMARK    5  A    between atoms: C_9  and  C_10
REMARK    6  A    between atoms: C_13  and  S_16
REMARK    7  A    between atoms: N_14  and  N_15
REMARK    8  A    between atoms: S_16  and  C_17
REMARK    9  A    between atoms: C_17  and  C_18
REMARK   10  A    between atoms: N_20  and  C_21
REMARK   11  A    between atoms: N_20  and  C_29
REMARK   12  A    between atoms: C_32  and  C_33
REMARK   13  A    between atoms: C_32  and  C_34
REMARK                            x       y       z     vdW  Elec       q    Type
REMARK                         _______ _______ _______ _____ _____    ______ ____
ROOT
ATOM      1  C   UNL     1      -0.683  -1.891   5.827  0.00  0.00    +0.189 A 
ATOM      2  N   UNL     1      -1.638  -2.547   6.423  0.00  0.00    -0.128 NA
ATOM      3  N   UNL     1      -1.140  -3.442   7.199  0.00  0.00    -0.121 NA
ATOM      4  C   UNL     1       0.171  -3.405   7.139  0.00  0.00    +0.209 A 
ATOM      5  N   UNL     1       0.503  -2.417   6.258  0.00  0.00    -0.225 N 
ENDROOT
BRANCH   5   6
ATOM      6  N   UNL     1       1.760  -2.032   5.886  0.00  0.00    -0.295 N 
ATOM      7  H   UNL     1       2.111  -1.308   6.495  0.00  0.00    +0.163 HD
ATOM      8  H   UNL     1       2.388  -2.821   5.862  0.00  0.00    +0.163 HD
ENDBRANCH   5   6
BRANCH   1   9
ATOM      9  C   UNL     1      -0.855  -0.764   4.840  0.00  0.00    +0.306 C 
BRANCH   9  10
ATOM     10  O   UNL     1      -0.936  -1.298   3.517  0.00  0.00    -0.484 OA
BRANCH  10  16
ATOM     11  C   UNL     1      -1.407   3.328   2.033  0.00  0.00    +0.044 C 
ATOM     12  C   UNL     1      -1.327   1.852   1.739  0.00  0.00    -0.047 A 
ATOM     13  C   UNL     1      -1.413   1.402   0.435  0.00  0.00    +0.004 A 
ATOM     14  C   UNL     1      -1.339   0.049   0.162  0.00  0.00    +0.008 A 
ATOM     15  C   UNL     1      -1.180  -0.858   1.192  0.00  0.00    -0.003 A 
ATOM     16  C   UNL     1      -1.093  -0.409   2.502  0.00  0.00    +0.125 A 
ATOM     17  C   UNL     1      -1.161   0.951   2.773  0.00  0.00    +0.049 A 
BRANCH  15  18
ATOM     18  C   UNL     1      -1.101  -2.333   0.894  0.00  0.00    +0.016 C 
ATOM     19  C   UNL     1      -2.389  -2.783   0.202  0.00  0.00    +0.012 C 
ATOM     20  C   UNL     1       0.093  -2.604  -0.024  0.00  0.00    +0.012 C 
ENDBRANCH  15  18
ENDBRANCH  10  16
ENDBRANCH   9  10
ENDBRANCH   1   9
BRANCH   4  21
ATOM     21  S   UNL     1       1.289  -4.440   8.024  0.00  0.00    -0.075 S 
BRANCH  21  22
ATOM     22  C   UNL     1       0.208  -5.524   8.997  0.00  0.00    +0.173 C 
BRANCH  22  23
ATOM     23  C   UNL     1       1.050  -6.472   9.812  0.00  0.00    +0.226 C 
ATOM     24  O   UNL     1       2.260  -6.421   9.743  0.00  0.00    -0.275 OA
ATOM     25  N   UNL     1       0.458  -7.375  10.618  0.00  0.00    -0.293 N 
BRANCH  25  26
ATOM     26  C   UNL     1       1.274  -8.223  11.491  0.00  0.00    +0.099 C 
ATOM     27  C   UNL     1       2.103  -7.344  12.442  0.00  0.00    +0.046 C 
ATOM     28  C   UNL     1       3.191  -8.199  13.136  0.00  0.00    +0.168 C 
ATOM     29  S   UNL     1       3.507  -9.528  11.906  0.00  0.00    -0.029 S 
ATOM     30  O   UNL     1       4.808  -9.353  11.360  0.00  0.00    -0.174 OA
ATOM     31  O   UNL     1       3.151 -10.780  12.475  0.00  0.00    -0.174 OA
ATOM     32  C   UNL     1       2.257  -9.069  10.633  0.00  0.00    +0.188 C 
ENDBRANCH  25  26
BRANCH  25  33
ATOM     33  C   UNL     1      -1.001  -7.510  10.621  0.00  0.00    +0.077 C 
ATOM     34  C   UNL     1      -1.636  -8.291  11.773  0.00  0.00    +0.024 C 
ATOM     35  C   UNL     1      -1.583  -8.903  10.371  0.00  0.00    +0.024 C 
ENDBRANCH  25  33
ENDBRANCH  22  23
ENDBRANCH  21  22
ENDBRANCH   4  21
TORSDOF 10
