REMARK  Name = ZINC67038830
REMARK  5 active torsions:
REMARK  status: ('A' for Active; 'I' for Inactive)
REMARK    1  A    between atoms: C_1  and  C_2
REMARK    2  A    between atoms: C_4  and  C_26
REMARK    3  A    between atoms: N_5  and  C_7
REMARK    4  A    between atoms: C_12  and  N_13
REMARK    5  A    between atoms: C_14  and  C_16
REMARK                            x       y       z     vdW  Elec       q    Type
REMARK                         _______ _______ _______ _____ _____    ______ ____
ROOT
ATOM      1  N   UNL     1      -0.160  -1.835   3.395  0.00  0.00    -0.280 N 
ATOM      2  C   UNL     1       0.411  -1.573   4.587  0.00  0.00    +0.252 C 
ATOM      3  O   UNL     1       0.955  -2.465   5.210  0.00  0.00    -0.270 OA
ATOM      4  H   UNL     1      -0.648  -1.139   2.928  0.00  0.00    +0.155 HD
ENDROOT
BRANCH   2   5
ATOM      5  C   UNL     1       0.375  -0.205   5.138  0.00  0.00    +0.082 A 
ATOM      6  C   UNL     1      -0.255   0.821   4.428  0.00  0.00    +0.017 A 
ATOM      7  C   UNL     1      -0.285   2.097   4.946  0.00  0.00    +0.005 A 
ATOM      8  C   UNL     1       0.306   2.370   6.167  0.00  0.00    +0.049 A 
ATOM      9  C   UNL     1       0.935   1.364   6.883  0.00  0.00    +0.163 A 
ATOM     10  C   UNL     1       0.967   0.070   6.378  0.00  0.00    +0.174 A 
ATOM     11  O   UNL     1       1.567  -0.934   7.069  0.00  0.00    -0.484 OA
ATOM     12  C   UNL     1       2.465  -0.549   8.115  0.00  0.00    +0.270 C 
ATOM     13  C   UNL     1       1.789   0.548   8.948  0.00  0.00    +0.270 C 
ATOM     14  O   UNL     1       1.514   1.657   8.080  0.00  0.00    -0.485 OA
ENDBRANCH   2   5
BRANCH   1  20
ATOM     15  C   UNL     1       0.046  -3.257   1.447  0.00  0.00    +0.087 A 
ATOM     16  C   UNL     1       0.162  -4.524   0.894  0.00  0.00    +0.029 A 
ATOM     17  C   UNL     1       0.180  -5.636   1.714  0.00  0.00    +0.002 A 
ATOM     18  C   UNL     1       0.080  -5.491   3.086  0.00  0.00    +0.002 A 
ATOM     19  C   UNL     1      -0.036  -4.234   3.645  0.00  0.00    +0.025 A 
ATOM     20  C   UNL     1      -0.048  -3.110   2.830  0.00  0.00    +0.059 A 
BRANCH  15  25
ATOM     21  C   UNL     1       1.127   1.217  -0.405  0.00  0.00    +0.067 C 
ATOM     22  C   UNL     1       0.516  -0.144  -0.193  0.00  0.00    +0.061 A 
ATOM     23  C   UNL     1      -0.467  -0.735  -0.994  0.00  0.00    +0.047 A 
ATOM     24  C   UNL     1      -0.750  -1.953  -0.475  0.00  0.00    +0.042 A 
ATOM     25  N   UNL     1       0.028  -2.126   0.617  0.00  0.00    -0.235 N 
ATOM     26  N   UNL     1       0.817  -0.979   0.770  0.00  0.00    -0.171 NA
ATOM     27  C   UNL     1      -1.752  -2.939  -1.018  0.00  0.00    +0.066 C 
ENDBRANCH  15  25
ENDBRANCH   1  20
TORSDOF 3
