REMARK  Name = ZINC17133811
REMARK  12 active torsions:
REMARK  status: ('A' for Active; 'I' for Inactive)
REMARK    1  A    between atoms: C_1  and  C_2
REMARK    2  A    between atoms: C_10  and  C_12
REMARK    3  A    between atoms: C_12  and  O_13
REMARK    4  A    between atoms: O_13  and  C_14
REMARK    5  A    between atoms: C_14  and  C_16
REMARK    6  A    between atoms: C_17  and  C_29
REMARK    7  A    between atoms: C_18  and  C_28
REMARK    8  A    between atoms: C_20  and  N_21
REMARK    9  A    between atoms: C_22  and  C_24
REMARK   10  A    between atoms: C_24  and  C_25
REMARK   11  A    between atoms: C_24  and  C_26
REMARK   12  A    between atoms: C_24  and  C_27
REMARK                            x       y       z     vdW  Elec       q    Type
REMARK                         _______ _______ _______ _____ _____    ______ ____
ROOT
ATOM      1  C   UNL     1       0.112  -3.148   6.967  0.00  0.00    +0.342 C 
ATOM      2  O   UNL     1       0.129  -4.364   6.970  0.00  0.00    -0.245 OA
ENDROOT
BRANCH   1   3
ATOM      3  C   UNL     1       0.114  -2.413   8.234  0.00  0.00    +0.091 A 
ATOM      4  C   UNL     1      -1.114  -2.054   8.906  0.00  0.00    -0.025 A 
ATOM      5  C   UNL     1      -0.974  -1.380  10.062  0.00  0.00    -0.008 A 
ATOM      6  S   UNL     1       0.790  -1.233  10.241  0.00  0.00    -0.078 S 
ATOM      7  C   UNL     1       1.296  -2.031   8.854  0.00  0.00    +0.086 A 
ATOM      8  C   UNL     1      -2.053  -0.872  10.984  0.00  0.00    +0.052 C 
ATOM      9  C   UNL     1      -2.467  -2.412   8.347  0.00  0.00    +0.045 C 
BRANCH   7  10
ATOM     10  N   UNL     1       2.595  -2.256   8.426  0.00  0.00    -0.279 N 
ATOM     11  C   UNL     1       3.633  -1.810   9.161  0.00  0.00    +0.223 C 
ATOM     12  O   UNL     1       3.431  -1.212  10.196  0.00  0.00    -0.275 OA
ATOM     13  H   UNL     1       2.756  -2.733   7.598  0.00  0.00    +0.155 HD
BRANCH  11  14
ATOM     14  C   UNL     1       5.045  -2.054   8.695  0.00  0.00    +0.039 C 
ATOM     15  C   UNL     1       6.026  -1.450   9.702  0.00  0.00    +0.020 C 
ATOM     16  C   UNL     1       5.292  -3.559   8.582  0.00  0.00    +0.020 C 
ATOM     17  C   UNL     1       5.252  -1.399   7.327  0.00  0.00    +0.020 C 
ENDBRANCH  11  14
ENDBRANCH   7  10
ENDBRANCH   1   3
BRANCH   1  18
ATOM     18  O   UNL     1       0.091  -2.476   5.798  0.00  0.00    -0.455 OA
BRANCH  18  19
ATOM     19  C   UNL     1       0.091  -3.257   4.601  0.00  0.00    +0.285 C 
BRANCH  19  29
ATOM     20  C   UNL     1      -0.018   1.503   0.010  0.00  0.00    +0.064 C 
ATOM     21  C   UNL     1       0.002  -0.004   0.002  0.00  0.00    +0.033 A 
ATOM     22  C   UNL     1       0.005  -0.653  -1.162  0.00  0.00    +0.070 A 
ATOM     23  S   UNL     1       0.032  -2.358  -0.630  0.00  0.00    -0.059 S 
ATOM     24  C   UNL     1       0.036  -2.054   1.123  0.00  0.00    +0.158 A 
ATOM     25  N   UNL     1       0.023  -0.686   1.195  0.00  0.00    -0.261 N 
ATOM     26  C   UNL     1       0.027  -0.142   2.448  0.00  0.00    +0.259 A 
ATOM     27  O   UNL     1       0.011   1.071   2.587  0.00  0.00    -0.267 OA
ATOM     28  C   UNL     1       0.049  -0.973   3.568  0.00  0.00    +0.095 A 
ATOM     29  C   UNL     1       0.066  -2.342   3.404  0.00  0.00    +0.061 A 
ATOM     30  N   UNL     1       0.052  -2.840   2.171  0.00  0.00    -0.336 N 
ATOM     31  H   UNL     1       0.065  -3.802   2.045  0.00  0.00    +0.168 HD
ENDBRANCH  19  29
ENDBRANCH  18  19
ENDBRANCH   1  18
TORSDOF 6
