REMARK  Name = ZINC04650791
REMARK  5 active torsions:
REMARK  status: ('A' for Active; 'I' for Inactive)
REMARK    1  A    between atoms: C_6  and  C_7
REMARK    2  A    between atoms: C_7  and  N_8
REMARK    3  A    between atoms: C_9  and  C_11
REMARK    4  A    between atoms: C_12  and  N_26
REMARK    5  A    between atoms: N_14  and  C_16
REMARK                            x       y       z     vdW  Elec       q    Type
REMARK                         _______ _______ _______ _____ _____    ______ ____
ROOT
ATOM      1  C   UNL     1       1.144   5.883   3.042  0.00  0.00    +0.177 A 
ATOM      2  C   UNL     1       1.134   7.234   3.463  0.00  0.00    +0.176 A 
ATOM      3  C   UNL     1       1.142   7.190   4.816  0.00  0.00    +0.142 A 
ATOM      4  N   UNL     1       1.164   5.888   5.175  0.00  0.00    -0.262 N 
ATOM      5  N   UNL     1       1.165   5.140   4.130  0.00  0.00    -0.164 NA
ENDROOT
BRANCH   4   6
ATOM      6  C   UNL     1       1.185   5.400   6.556  0.00  0.00    +0.064 C 
ATOM      7  C   UNL     1       0.162   6.176   7.387  0.00  0.00    +0.033 C 
ATOM      8  C   UNL     1       0.184   5.666   8.829  0.00  0.00    -0.008 C 
ATOM      9  C   UNL     1      -0.168   4.177   8.849  0.00  0.00    +0.007 C 
ATOM     10  C   UNL     1       0.855   3.401   8.017  0.00  0.00    -0.008 C 
ATOM     11  C   UNL     1       0.834   3.911   6.575  0.00  0.00    +0.033 C 
ATOM     12  C   UNL     1       2.252   3.603   8.609  0.00  0.00    +0.007 C 
ATOM     13  C   UNL     1       2.603   5.091   8.589  0.00  0.00    -0.008 C 
ATOM     14  C   UNL     1       1.580   5.868   9.421  0.00  0.00    +0.007 C 
ATOM     15  C   UNL     1       2.582   5.602   7.147  0.00  0.00    +0.033 C 
ENDBRANCH   4   6
BRANCH   1  17
ATOM     16  N   UNL     1       1.155   4.074   1.393  0.00  0.00    -0.306 N 
ATOM     17  C   UNL     1       1.138   5.398   1.647  0.00  0.00    +0.267 C 
ATOM     18  O   UNL     1       1.118   6.192   0.727  0.00  0.00    -0.268 OA
ATOM     19  H   UNL     1       1.171   3.440   2.127  0.00  0.00    +0.149 HD
BRANCH  16  20
ATOM     20  C   UNL     1       1.149   3.593   0.010  0.00  0.00    +0.140 C 
BRANCH  20  26
ATOM     21  C   UNL     1      -0.017   1.378   0.010  0.00  0.00    +0.008 A 
ATOM     22  C   UNL     1       0.002  -0.004   0.002  0.00  0.00    +0.038 A 
ATOM     23  C   UNL     1       1.211  -0.679  -0.013  0.00  0.00    +0.123 A 
ATOM     24  C   UNL     1       2.399   0.031  -0.021  0.00  0.00    +0.038 A 
ATOM     25  C   UNL     1       2.378   1.413  -0.013  0.00  0.00    +0.008 A 
ATOM     26  C   UNL     1       1.171   2.086   0.002  0.00  0.00    -0.030 A 
ATOM     27  F   UNL     1       1.230  -2.030  -0.020  0.00  0.00    -0.205 F 
ENDBRANCH  20  26
ENDBRANCH  16  20
ENDBRANCH   1  17
BRANCH   2  28
ATOM     28  N   UNL     1       1.116   8.440   2.606  0.00  0.00    +0.060 N 
ATOM     29  O   UNL     1       1.109   9.547   3.113  0.00  0.00    -0.126 OA
ATOM     30  O   UNL     1       1.107   8.325   1.393  0.00  0.00    -0.126 OA
ENDBRANCH   2  28
TORSDOF 5
