REMARK  Name = ZINC09067583
REMARK  9 active torsions:
REMARK  status: ('A' for Active; 'I' for Inactive)
REMARK    1  A    between atoms: C_1  and  C_2
REMARK    2  A    between atoms: C_2  and  C_3
REMARK    3  A    between atoms: C_3  and  C_4
REMARK    4  A    between atoms: C_4  and  C_5
REMARK    5  A    between atoms: C_5  and  C_26
REMARK    6  A    between atoms: N_8  and  C_12
REMARK    7  A    between atoms: C_12  and  C_13
REMARK    8  A    between atoms: C_22  and  C_25
REMARK    9  A    between atoms: C_23  and  C_24
REMARK                            x       y       z     vdW  Elec       q    Type
REMARK                         _______ _______ _______ _____ _____    ______ ____
ROOT
ATOM      1  C   UNL     1       0.688  -2.602  -2.713  0.00  0.00    +0.138 C 
ATOM      2  C   UNL     1       0.245  -1.892  -3.976  0.00  0.00    +0.251 C 
ATOM      3  O   UNL     1      -0.857  -1.916  -4.482  0.00  0.00    -0.272 OA
ATOM      4  N   UNL     1       1.330  -1.227  -4.420  0.00  0.00    -0.220 N 
ATOM      5  C   UNL     1       2.386  -1.417  -3.621  0.00  0.00    +0.310 C 
ATOM      6  O   UNL     1       3.478  -0.920  -3.816  0.00  0.00    -0.252 OA
ATOM      7  N   UNL     1       2.105  -2.223  -2.577  0.00  0.00    -0.281 N 
ATOM      8  H   UNL     1       2.714  -2.498  -1.874  0.00  0.00    +0.152 HD
ENDROOT
BRANCH   1   9
ATOM      9  C   UNL     1       0.551  -4.095  -2.868  0.00  0.00    -0.015 A 
ATOM     10  C   UNL     1      -0.606  -4.729  -2.454  0.00  0.00    +0.009 A 
ATOM     11  C   UNL     1      -0.734  -6.097  -2.600  0.00  0.00    +0.039 A 
ATOM     12  C   UNL     1       0.300  -6.834  -3.151  0.00  0.00    +0.123 A 
ATOM     13  C   UNL     1       1.460  -6.199  -3.560  0.00  0.00    +0.039 A 
ATOM     14  C   UNL     1       1.585  -4.830  -3.418  0.00  0.00    +0.009 A 
ATOM     15  F   UNL     1       0.178  -8.172  -3.290  0.00  0.00    -0.205 F 
ENDBRANCH   1   9
BRANCH   1  16
ATOM     16  C   UNL     1      -0.118  -2.111  -1.508  0.00  0.00    +0.040 C 
BRANCH  16  17
ATOM     17  C   UNL     1       0.140  -0.619  -1.296  0.00  0.00    +0.003 C 
BRANCH  17  19
ATOM     18  C   UNL     1      -0.339   1.346   0.172  0.00  0.00    +0.004 C 
ATOM     19  C   UNL     1      -0.597  -0.147  -0.041  0.00  0.00    -0.003 C 
ENDBRANCH  17  19
ENDBRANCH  16  17
ENDBRANCH   1  16
BRANCH   4  20
ATOM     20  C   UNL     1       1.350  -0.399  -5.629  0.00  0.00    +0.154 C 
BRANCH  20  21
ATOM     21  C   UNL     1       1.091   1.038  -5.256  0.00  0.00    -0.012 A 
ATOM     22  C   UNL     1       1.004   1.417  -3.956  0.00  0.00    +0.098 A 
ATOM     23  C   UNL     1       0.760   2.770  -3.635  0.00  0.00    +0.338 A 
ATOM     24  O   UNL     1       0.685   3.097  -2.464  0.00  0.00    -0.245 OA
ATOM     25  O   UNL     1       0.610   3.705  -4.585  0.00  0.00    -0.422 OA
ATOM     26  C   UNL     1       0.685   3.394  -5.897  0.00  0.00    +0.142 A 
ATOM     27  C   UNL     1       0.931   2.067  -6.289  0.00  0.00    +0.023 A 
ATOM     28  C   UNL     1       1.016   1.744  -7.647  0.00  0.00    +0.012 A 
ATOM     29  C   UNL     1       0.862   2.733  -8.592  0.00  0.00    +0.004 A 
ATOM     30  C   UNL     1       0.625   4.043  -8.204  0.00  0.00    -0.044 A 
ATOM     31  C   UNL     1       0.528   4.375  -6.868  0.00  0.00    -0.005 A 
ATOM     32  C   UNL     1       0.270   5.803  -6.463  0.00  0.00    +0.048 C 
ATOM     33  C   UNL     1       0.459   5.113  -9.252  0.00  0.00    +0.044 C 
ENDBRANCH  20  21
ENDBRANCH   4  20
TORSDOF 6
