REMARK  Name = ZINC40947304
REMARK  9 active torsions:
REMARK  status: ('A' for Active; 'I' for Inactive)
REMARK    1  A    between atoms: C_1  and  C_2
REMARK    2  A    between atoms: C_7  and  C_8
REMARK    3  A    between atoms: C_8  and  O_9
REMARK    4  A    between atoms: O_9  and  C_10
REMARK    5  A    between atoms: C_15  and  C_16
REMARK    6  A    between atoms: N_17  and  N_18
REMARK    7  A    between atoms: C_19  and  C_21
REMARK    8  A    between atoms: C_21  and  S_22
REMARK    9  A    between atoms: S_22  and  C_23
REMARK                            x       y       z     vdW  Elec       q    Type
REMARK                         _______ _______ _______ _____ _____    ______ ____
ROOT
ATOM      1  C   UNL     1      -0.491  -0.402   4.845  0.00  0.00    +0.130 A 
ATOM      2  C   UNL     1      -0.714   0.952   5.034  0.00  0.00    +0.047 A 
ATOM      3  C   UNL     1      -0.707   1.485   6.308  0.00  0.00    +0.019 A 
ATOM      4  C   UNL     1      -0.476   0.672   7.406  0.00  0.00    +0.019 A 
ATOM      5  C   UNL     1      -0.252  -0.678   7.236  0.00  0.00    +0.028 A 
ATOM      6  C   UNL     1      -0.263  -1.230   5.953  0.00  0.00    +0.037 A 
ATOM      7 BR   UNL     1      -0.468   1.417   9.144  0.00  0.00    -0.050 Br
ENDROOT
BRANCH   6   8
ATOM      8  C   UNL     1      -0.032  -2.673   5.765  0.00  0.00    +0.142 C 
ATOM      9  N   UNL     1      -0.071  -3.186   4.573  0.00  0.00    -0.188 NA
BRANCH   9  10
ATOM     10  N   UNL     1      -0.014  -4.576   4.407  0.00  0.00    -0.206 N 
ATOM     11  C   UNL     1       0.096  -5.104   3.172  0.00  0.00    +0.242 C 
ATOM     12  O   UNL     1       0.268  -4.377   2.215  0.00  0.00    -0.273 OA
ATOM     13  H   UNL     1      -0.054  -5.159   5.181  0.00  0.00    +0.177 HD
BRANCH  11  14
ATOM     14  C   UNL     1       0.005  -6.595   2.978  0.00  0.00    +0.173 C 
BRANCH  14  15
ATOM     15  S   UNL     1       0.190  -6.989   1.217  0.00  0.00    -0.088 S 
BRANCH  15  16
ATOM     16  C   UNL     1       0.063  -8.745   1.157  0.00  0.00    +0.160 A 
ATOM     17  N   UNL     1      -0.128  -9.604   2.141  0.00  0.00    -0.133 NA
ATOM     18  N   UNL     1      -0.197 -10.951   1.870  0.00  0.00    -0.125 NA
ATOM     19  C   UNL     1      -0.072 -11.378   0.628  0.00  0.00    +0.180 A 
ATOM     20  S   UNL     1       0.151  -9.839  -0.252  0.00  0.00    -0.025 S 
ATOM     21  N   UNL     1      -0.109 -12.677   0.136  0.00  0.00    -0.336 N 
ATOM     22  H   UNL     1      -0.243 -13.422   0.743  0.00  0.00    +0.144 HD
ATOM     23  H   UNL     1       0.000 -12.839  -0.814  0.00  0.00    +0.144 HD
ENDBRANCH  15  16
ENDBRANCH  14  15
ENDBRANCH  11  14
ENDBRANCH   9  10
ENDBRANCH   6   8
BRANCH   1  24
ATOM     24  O   UNL     1      -0.499  -0.927   3.592  0.00  0.00    -0.487 OA
BRANCH  24  25
ATOM     25  C   UNL     1      -0.602  -0.006   2.504  0.00  0.00    +0.264 C 
BRANCH  25  32
ATOM     26  C   UNL     1      -0.875   1.421   0.007  0.00  0.00    +0.044 C 
ATOM     27  C   UNL     1      -0.921  -0.085   0.023  0.00  0.00    -0.044 A 
ATOM     28  C   UNL     1      -1.088  -0.784  -1.158  0.00  0.00    +0.004 A 
ATOM     29  C   UNL     1      -1.130  -2.166  -1.143  0.00  0.00    +0.000 A 
ATOM     30  C   UNL     1      -1.005  -2.849   0.053  0.00  0.00    +0.000 A 
ATOM     31  C   UNL     1      -0.837  -2.150   1.233  0.00  0.00    +0.007 A 
ATOM     32  C   UNL     1      -0.790  -0.768   1.218  0.00  0.00    -0.007 A 
ENDBRANCH  25  32
ENDBRANCH  24  25
ENDBRANCH   1  24
TORSDOF 8
