REMARK  Name = ZINC09427659
REMARK  6 active torsions:
REMARK  status: ('A' for Active; 'I' for Inactive)
REMARK    1  A    between atoms: C_4  and  C_7
REMARK    2  A    between atoms: C_7  and  N_60
REMARK    3  A    between atoms: C_14  and  C_23
REMARK    4  A    between atoms: C_23  and  C_25
REMARK    5  A    between atoms: C_23  and  S_27
REMARK    6  A    between atoms: S_27  and  C_30
REMARK                            x       y       z     vdW  Elec       q    Type
REMARK                         _______ _______ _______ _____ _____    ______ ____
ROOT
ATOM      1  C   UNL     1       3.557   2.364  -3.059  0.00  0.00    -0.059 C 
ATOM      2  C   UNL     1       2.048   2.224  -3.270  0.00  0.00    +0.088 C 
ATOM      3  N   UNL     1       1.340   2.787  -2.111  0.00  0.00    -0.317 N 
ATOM      4  C   UNL     1       1.677   4.206  -1.929  0.00  0.00    +0.088 C 
ATOM      5  C   UNL     1       3.187   4.345  -1.719  0.00  0.00    -0.059 C 
ATOM      6  C   UNL     1      -0.030   2.614  -2.234  0.00  0.00    +0.146 A 
ATOM      7  C   UNL     1      -0.723   1.835  -1.289  0.00  0.00    +0.120 A 
ATOM      8  N   UNL     1      -2.019   1.665  -1.386  0.00  0.00    -0.244 NA
ATOM      9  C   UNL     1      -2.693   2.232  -2.395  0.00  0.00    +0.090 A 
ATOM     10  C   UNL     1      -4.082   2.065  -2.521  0.00  0.00    +0.030 A 
ATOM     11  C   UNL     1      -4.742   2.653  -3.557  0.00  0.00    +0.002 A 
ATOM     12  C   UNL     1      -4.059   3.421  -4.498  0.00  0.00    +0.002 A 
ATOM     13  C   UNL     1      -2.713   3.604  -4.408  0.00  0.00    +0.030 A 
ATOM     14  C   UNL     1      -1.998   3.012  -3.352  0.00  0.00    +0.091 A 
ATOM     15  N   UNL     1      -0.674   3.176  -3.239  0.00  0.00    -0.229 NA
ATOM     16  N   UNL     1       3.885   3.797  -2.900  0.00  0.00    +0.384 N 
ATOM     17  H   UNL     1       3.576   4.305  -3.737  0.00  0.00    -0.081 HD
ENDROOT
BRANCH  16  18
ATOM     18  C   UNL     1       5.346   3.966  -2.748  0.00  0.00    -0.043 C 
BRANCH  18  22
ATOM     19  C   UNL     1       6.277   8.132  -2.924  0.00  0.00    +0.000 A 
ATOM     20  C   UNL     1       6.010   7.534  -1.707  0.00  0.00    +0.000 A 
ATOM     21  C   UNL     1       5.709   6.186  -1.649  0.00  0.00    +0.002 A 
ATOM     22  C   UNL     1       5.675   5.436  -2.810  0.00  0.00    -0.064 A 
ATOM     23  C   UNL     1       5.947   6.032  -4.027  0.00  0.00    +0.002 A 
ATOM     24  C   UNL     1       6.243   7.381  -4.085  0.00  0.00    +0.000 A 
ENDBRANCH  18  22
ENDBRANCH  16  18
BRANCH   7  25
ATOM     25  C   UNL     1       0.031   1.196  -0.152  0.00  0.00    +0.289 C 
BRANCH  25  26
ATOM     26  S   UNL     1      -0.856   1.492   1.403  0.00  0.00    +0.018 S 
ATOM     27  O   UNL     1      -0.813   2.873   1.736  0.00  0.00    -0.168 OA
ATOM     28  O   UNL     1      -2.087   0.783   1.407  0.00  0.00    -0.168 OA
BRANCH  26  29
ATOM     29  C   UNL     1       0.121   0.701   2.639  0.00  0.00    +0.090 A 
ATOM     30  C   UNL     1      -0.118  -0.620   2.967  0.00  0.00    +0.028 A 
ATOM     31  C   UNL     1       0.652  -1.242   3.932  0.00  0.00    +0.022 A 
ATOM     32  C   UNL     1       1.654  -0.539   4.577  0.00  0.00    +0.041 A 
ATOM     33  C   UNL     1       1.888   0.785   4.252  0.00  0.00    +0.022 A 
ATOM     34  C   UNL     1       1.122   1.405   3.283  0.00  0.00    +0.028 A 
ATOM     35 CL   UNL     1       2.616  -1.318   5.794  0.00  0.00    -0.084 Cl
ENDBRANCH  26  29
ENDBRANCH  25  26
BRANCH  25  36
ATOM     36  C   UNL     1       0.139  -0.253  -0.387  0.00  0.00    +0.096 C 
ATOM     37  N   UNL     1       0.222  -1.371  -0.569  0.00  0.00    -0.194 NA
ENDBRANCH  25  36
ENDBRANCH   7  25
TORSDOF 6
