REMARK  Name = ZINC12191112
REMARK  13 active torsions:
REMARK  status: ('A' for Active; 'I' for Inactive)
REMARK    1  A    between atoms: C_1  and  C_2
REMARK    2  A    between atoms: C_6  and  C_8
REMARK    3  A    between atoms: C_10  and  C_15
REMARK    4  A    between atoms: C_15  and  C_17
REMARK    5  A    between atoms: C_19  and  C_22
REMARK    6  A    between atoms: C_22  and  N_23
REMARK    7  A    between atoms: C_24  and  C_26
REMARK    8  A    between atoms: C_28  and  O_36
REMARK    9  A    between atoms: C_29  and  O_34
REMARK   10  A    between atoms: C_30  and  O_32
REMARK   11  A    between atoms: O_32  and  C_33
REMARK   12  A    between atoms: O_34  and  C_35
REMARK   13  A    between atoms: O_36  and  C_37
REMARK                            x       y       z     vdW  Elec       q    Type
REMARK                         _______ _______ _______ _____ _____    ______ ____
ROOT
ATOM      1  C   UNL     1       7.874  -8.909   2.040  0.00  0.00    +0.044 C 
ATOM      2  C   UNL     1       7.028  -7.677   1.846  0.00  0.00    -0.049 A 
ATOM      3  C   UNL     1       5.945  -7.708   0.984  0.00  0.00    +0.010 A 
ATOM      4  C   UNL     1       5.170  -6.583   0.803  0.00  0.00    -0.001 A 
ATOM      5  C   UNL     1       5.452  -5.407   1.482  0.00  0.00    +0.132 A 
ATOM      6  C   UNL     1       6.552  -5.378   2.354  0.00  0.00    +0.027 A 
ATOM      7  C   UNL     1       7.332  -6.516   2.528  0.00  0.00    +0.015 A 
ATOM      8  O   UNL     1       4.561  -4.428   1.168  0.00  0.00    -0.486 OA
ATOM      9  C   UNL     1       3.895  -4.769  -0.060  0.00  0.00    +0.195 C 
ATOM     10  C   UNL     1       3.954  -6.315  -0.063  0.00  0.00    +0.085 C 
ENDROOT
BRANCH   6  11
ATOM     11  C   UNL     1       6.883  -4.132   3.088  0.00  0.00    +0.021 A 
ATOM     12  C   UNL     1       8.078  -3.471   2.834  0.00  0.00    +0.022 A 
ATOM     13  C   UNL     1       8.380  -2.295   3.526  0.00  0.00    +0.018 A 
ATOM     14  C   UNL     1       7.482  -1.797   4.478  0.00  0.00    +0.014 A 
ATOM     15  C   UNL     1       6.301  -2.462   4.729  0.00  0.00    +0.039 A 
ATOM     16  C   UNL     1       5.995  -3.625   4.042  0.00  0.00    +0.131 A 
ATOM     17  F   UNL     1       4.835  -4.270   4.293  0.00  0.00    -0.205 F 
BRANCH  13  18
ATOM     18  C   UNL     1       9.640  -1.585   3.259  0.00  0.00    +0.160 C 
ATOM     19  O   UNL     1      10.416  -2.018   2.433  0.00  0.00    -0.292 OA
ATOM     20  C   UNL     1       9.966  -0.321   4.010  0.00  0.00    +0.091 C 
ENDBRANCH  13  18
ENDBRANCH   6  11
BRANCH   9  21
ATOM     21  C   UNL     1       2.445  -4.281  -0.043  0.00  0.00    +0.149 C 
BRANCH  21  22
ATOM     22  N   UNL     1       2.422  -2.816  -0.036  0.00  0.00    -0.308 N 
ATOM     23  C   UNL     1       1.245  -2.161  -0.021  0.00  0.00    +0.244 C 
ATOM     24  O   UNL     1       0.202  -2.785  -0.014  0.00  0.00    -0.270 OA
ATOM     25  H   UNL     1       3.255  -2.318  -0.041  0.00  0.00    +0.149 HD
BRANCH  23  26
ATOM     26  C   UNL     1       1.222  -0.685  -0.013  0.00  0.00    +0.044 A 
ATOM     27  C   UNL     1       0.002  -0.004   0.002  0.00  0.00    +0.062 A 
ATOM     28  C   UNL     1      -0.017   1.378   0.010  0.00  0.00    +0.166 A 
ATOM     29  C   UNL     1       1.179   2.092   0.002  0.00  0.00    +0.204 A 
ATOM     30  C   UNL     1       2.396   1.416  -0.013  0.00  0.00    +0.166 A 
ATOM     31  C   UNL     1       2.420   0.034  -0.021  0.00  0.00    +0.062 A 
BRANCH  30  32
ATOM     32  O   UNL     1       3.562   2.116  -0.021  0.00  0.00    -0.491 OA
ATOM     33  C   UNL     1       4.773   1.358  -0.036  0.00  0.00    +0.277 C 
ENDBRANCH  30  32
BRANCH  29  34
ATOM     34  O   UNL     1       1.158   3.450   0.009  0.00  0.00    -0.488 OA
ATOM     35  C   UNL     1       1.160   4.092   1.286  0.00  0.00    +0.277 C 
ENDBRANCH  29  34
BRANCH  28  36
ATOM     36  O   UNL     1      -1.204   2.041   0.019  0.00  0.00    -0.491 OA
ATOM     37  C   UNL     1      -2.391   1.246   0.020  0.00  0.00    +0.277 C 
ENDBRANCH  28  36
ENDBRANCH  23  26
ENDBRANCH  21  22
ENDBRANCH   9  21
TORSDOF 8
