REMARK  Name = ZINC00165527
REMARK  6 active torsions:
REMARK  status: ('A' for Active; 'I' for Inactive)
REMARK    1  A    between atoms: C_1  and  C_2
REMARK    2  A    between atoms: C_5  and  C_8
REMARK    3  A    between atoms: C_10  and  C_21
REMARK    4  A    between atoms: C_11  and  C_18
REMARK    5  A    between atoms: C_13  and  N_17
REMARK    6  A    between atoms: C_14  and  C_15
REMARK                            x       y       z     vdW  Elec       q    Type
REMARK                         _______ _______ _______ _____ _____    ______ ____
ROOT
ATOM      1  C   UNL     1       0.059  -4.275  -0.021  0.00  0.00    +0.108 C 
ATOM      2  C   UNL     1       1.301  -4.763   0.674  0.00  0.00    +0.080 C 
ATOM      3  C   UNL     1       1.250  -5.260   1.914  0.00  0.00    +0.125 C 
ATOM      4  O   UNL     1       0.096  -5.349   2.598  0.00  0.00    -0.444 OA
ATOM      5  C   UNL     1      -1.077  -5.297   1.942  0.00  0.00    +0.198 C 
ATOM      6  C   UNL     1      -1.162  -4.795   0.688  0.00  0.00    +0.099 C 
ENDROOT
BRANCH   1  11
ATOM      7  C   UNL     1      -0.018   1.503   0.010  0.00  0.00    +0.044 C 
ATOM      8  C   UNL     1       0.002  -0.004   0.002  0.00  0.00    -0.050 A 
ATOM      9  C   UNL     1       0.006  -0.689  -1.199  0.00  0.00    +0.003 A 
ATOM     10  C   UNL     1       0.025  -2.071  -1.206  0.00  0.00    +0.005 A 
ATOM     11  C   UNL     1       0.040  -2.768  -0.013  0.00  0.00    -0.034 A 
ATOM     12  C   UNL     1       0.037  -2.084   1.188  0.00  0.00    +0.005 A 
ATOM     13  C   UNL     1       0.023  -0.702   1.195  0.00  0.00    +0.003 A 
ENDBRANCH   1  11
BRANCH   5  14
ATOM     14  N   UNL     1      -2.212  -5.762   2.557  0.00  0.00    -0.328 N 
ATOM     15  H   UNL     1      -2.163  -6.124   3.456  0.00  0.00    +0.145 HD
ATOM     16  H   UNL     1      -3.064  -5.729   2.094  0.00  0.00    +0.145 HD
ENDBRANCH   5  14
BRANCH   3  17
ATOM     17  C   UNL     1       2.524  -5.733   2.565  0.00  0.00    +0.056 C 
ATOM     18  C   UNL     1       2.403  -6.478   3.896  0.00  0.00    +0.012 C 
ATOM     19  C   UNL     1       2.950  -5.049   3.865  0.00  0.00    +0.012 C 
ENDBRANCH   3  17
BRANCH   6  20
ATOM     20  C   UNL     1      -2.432  -4.758   0.028  0.00  0.00    +0.101 C 
ATOM     21  N   UNL     1      -3.440  -4.729  -0.495  0.00  0.00    -0.191 NA
ENDBRANCH   6  20
BRANCH   2  22
ATOM     22  C   UNL     1       2.560  -4.693  -0.005  0.00  0.00    +0.099 C 
ATOM     23  N   UNL     1       3.559  -4.638  -0.543  0.00  0.00    -0.191 NA
ENDBRANCH   2  22
TORSDOF 5
