REMARK  Name = ZINC39388274
REMARK  9 active torsions:
REMARK  status: ('A' for Active; 'I' for Inactive)
REMARK    1  A    between atoms: C_1  and  C_2
REMARK    2  A    between atoms: C_5  and  C_7
REMARK    3  A    between atoms: C_9  and  C_13
REMARK    4  A    between atoms: C_19  and  C_21
REMARK    5  A    between atoms: C_19  and  C_30
REMARK    6  A    between atoms: C_21  and  C_22
REMARK    7  A    between atoms: C_22  and  O_23
REMARK    8  A    between atoms: O_23  and  C_24
REMARK    9  A    between atoms: C_30  and  O_31
REMARK                            x       y       z     vdW  Elec       q    Type
REMARK                         _______ _______ _______ _____ _____    ______ ____
ROOT
ATOM      1  C   UNL     1       4.505  -5.140  -1.353  0.00  0.00    +0.246 C 
ATOM      2  O   UNL     1       3.874  -5.587  -2.288  0.00  0.00    -0.273 OA
ATOM      3  N   UNL     1       5.787  -4.761  -1.526  0.00  0.00    -0.299 N 
ATOM      4  C   UNL     1       6.567  -4.224  -0.403  0.00  0.00    +0.108 C 
ATOM      5  C   UNL     1       7.154  -2.869  -0.813  0.00  0.00    +0.020 C 
ATOM      6  C   UNL     1       7.951  -3.035  -2.109  0.00  0.00    +0.012 C 
ATOM      7  C   UNL     1       7.020  -3.515  -3.225  0.00  0.00    +0.013 C 
ATOM      8  C   UNL     1       6.433  -4.882  -2.841  0.00  0.00    +0.117 C 
ENDROOT
BRANCH   1  11
ATOM      9  C   UNL     1       2.072  -3.681   0.395  0.00  0.00    +0.126 C 
ATOM     10  C   UNL     1       3.410  -3.579   0.245  0.00  0.00    +0.044 C 
ATOM     11  C   UNL     1       3.857  -5.010   0.001  0.00  0.00    +0.239 C 
ATOM     12  N   UNL     1       2.598  -5.770   0.053  0.00  0.00    -0.170 NA
ATOM     13  N   UNL     1       1.680  -4.978   0.276  0.00  0.00    -0.150 NA
BRANCH   9  18
ATOM     14  C   UNL     1       0.425   0.990   1.207  0.00  0.00    +0.086 C 
ATOM     15  C   UNL     1       0.437  -0.504   1.012  0.00  0.00    +0.103 A 
ATOM     16  C   UNL     1      -0.642  -1.309   1.043  0.00  0.00    +0.045 A 
ATOM     17  C   UNL     1      -0.185  -2.622   0.815  0.00  0.00    +0.052 A 
ATOM     18  C   UNL     1       1.163  -2.545   0.656  0.00  0.00    +0.155 A 
ATOM     19  O   UNL     1       1.526  -1.253   0.772  0.00  0.00    -0.458 OA
ENDBRANCH   9  18
ENDBRANCH   1  11
BRANCH   7  20
ATOM     20  C   UNL     1       5.887  -2.505  -3.415  0.00  0.00    +0.051 C 
BRANCH  20  21
ATOM     21  C   UNL     1       6.478  -1.130  -3.733  0.00  0.00    +0.230 C 
BRANCH  21  22
ATOM     22  O   UNL     1       5.420  -0.203  -3.984  0.00  0.00    -0.492 OA
BRANCH  22  23
ATOM     23  C   UNL     1       5.776   1.074  -4.284  0.00  0.00    +0.120 A 
ATOM     24  C   UNL     1       7.117   1.426  -4.342  0.00  0.00    +0.045 A 
ATOM     25  C   UNL     1       7.477   2.724  -4.647  0.00  0.00    +0.004 A 
ATOM     26  C   UNL     1       6.502   3.673  -4.895  0.00  0.00    +0.000 A 
ATOM     27  C   UNL     1       5.165   3.325  -4.838  0.00  0.00    +0.004 A 
ATOM     28  C   UNL     1       4.800   2.026  -4.538  0.00  0.00    +0.045 A 
ENDBRANCH  22  23
ENDBRANCH  21  22
ENDBRANCH  20  21
ENDBRANCH   7  20
BRANCH   7  29
ATOM     29  C   UNL     1       7.810  -3.649  -4.528  0.00  0.00    +0.164 C 
BRANCH  29  30
ATOM     30  O   UNL     1       6.918  -3.977  -5.595  0.00  0.00    -0.394 OA
ATOM     31  H   UNL     1       7.352  -4.078  -6.453  0.00  0.00    +0.209 HD
ENDBRANCH  29  30
ENDBRANCH   7  29
TORSDOF 8
