REMARK  Name = ZINC08313252
REMARK  10 active torsions:
REMARK  status: ('A' for Active; 'I' for Inactive)
REMARK    1  A    between atoms: C_1  and  C_2
REMARK    2  A    between atoms: N_11  and  C_15
REMARK    3  A    between atoms: C_15  and  C_16
REMARK    4  A    between atoms: C_16  and  C_18
REMARK    5  A    between atoms: C_21  and  C_23
REMARK    6  A    between atoms: C_23  and  N_24
REMARK    7  A    between atoms: C_25  and  C_27
REMARK    8  A    between atoms: C_27  and  C_28
REMARK    9  A    between atoms: C_27  and  C_29
REMARK   10  A    between atoms: C_27  and  C_30
REMARK                            x       y       z     vdW  Elec       q    Type
REMARK                         _______ _______ _______ _____ _____    ______ ____
ROOT
ATOM      1  C   UNL     1       0.064   2.323  -5.530  0.00  0.00    +0.187 C 
ATOM      2  O   UNL     1      -1.128   2.314  -5.299  0.00  0.00    -0.290 OA
ENDROOT
BRANCH   1   3
ATOM      3  C   UNL     1       0.525   2.355  -6.864  0.00  0.00    +0.056 A 
ATOM      4  C   UNL     1      -0.210   2.374  -8.046  0.00  0.00    +0.019 A 
ATOM      5  C   UNL     1       0.498   2.409  -9.218  0.00  0.00    +0.013 A 
ATOM      6  C   UNL     1       1.858   2.412  -9.175  0.00  0.00    +0.008 A 
ATOM      7  S   UNL     1       2.201   2.373  -7.476  0.00  0.00    -0.089 S 
BRANCH   6   8
ATOM      8  C   UNL     1       2.831   2.441 -10.325  0.00  0.00    +0.146 C 
BRANCH   8   9
ATOM      9  N   UNL     1       3.143   3.831 -10.665  0.00  0.00    -0.310 N 
ATOM     10  C   UNL     1       3.998   4.103 -11.671  0.00  0.00    +0.219 C 
ATOM     11  O   UNL     1       4.509   3.197 -12.294  0.00  0.00    -0.275 OA
ATOM     12  H   UNL     1       2.734   4.556 -10.167  0.00  0.00    +0.149 HD
BRANCH  10  13
ATOM     13  C   UNL     1       4.319   5.534 -12.021  0.00  0.00    +0.039 C 
ATOM     14  C   UNL     1       5.306   5.563 -13.189  0.00  0.00    +0.020 C 
ATOM     15  C   UNL     1       3.034   6.261 -12.421  0.00  0.00    +0.020 C 
ATOM     16  C   UNL     1       4.942   6.228 -10.809  0.00  0.00    +0.020 C 
ENDBRANCH  10  13
ENDBRANCH   8   9
ENDBRANCH   6   8
ENDBRANCH   1   3
BRANCH   1  17
ATOM     17  C   UNL     1       1.052   2.300  -4.392  0.00  0.00    +0.198 C 
BRANCH  17  27
ATOM     18  C   UNL     1      -2.915   1.659  -2.462  0.00  0.00    +0.010 C 
ATOM     19  C   UNL     1      -2.196   1.108  -1.229  0.00  0.00    +0.018 C 
ATOM     20  C   UNL     1      -2.902   1.601   0.036  0.00  0.00    +0.006 C 
ATOM     21  C   UNL     1      -2.170   1.067   1.269  0.00  0.00    +0.000 C 
ATOM     22  C   UNL     1      -0.728   1.579   1.268  0.00  0.00    +0.003 C 
ATOM     23  C   UNL     1      -0.013   1.086   0.008  0.00  0.00    +0.035 C 
ATOM     24  C   UNL     1      -0.749   1.590  -1.228  0.00  0.00    +0.115 C 
ATOM     25  C   UNL     1      -0.042   1.136  -2.484  0.00  0.00    +0.247 C 
ATOM     26  O   UNL     1       0.152  -0.004  -2.846  0.00  0.00    -0.273 OA
ATOM     27  N   UNL     1       0.329   2.268  -3.118  0.00  0.00    -0.217 N 
ATOM     28  C   UNL     1      -0.045   3.359  -2.438  0.00  0.00    +0.310 C 
ATOM     29  O   UNL     1       0.176   4.495  -2.809  0.00  0.00    -0.252 OA
ATOM     30  N   UNL     1      -0.694   3.056  -1.298  0.00  0.00    -0.285 N 
ATOM     31  H   UNL     1      -1.055   3.682  -0.651  0.00  0.00    +0.151 HD
ENDBRANCH  17  27
ENDBRANCH   1  17
TORSDOF 6
