REMARK  Name = ZINC21864165
REMARK  10 active torsions:
REMARK  status: ('A' for Active; 'I' for Inactive)
REMARK    1  A    between atoms: C_1  and  C_2
REMARK    2  A    between atoms: C_5  and  C_37
REMARK    3  A    between atoms: N_8  and  C_10
REMARK    4  A    between atoms: C_10  and  C_11
REMARK    5  A    between atoms: C_11  and  C_12
REMARK    6  A    between atoms: C_12  and  N_13
REMARK    7  A    between atoms: C_19  and  C_32
REMARK    8  A    between atoms: C_22  and  C_23
REMARK    9  A    between atoms: C_22  and  C_24
REMARK   10  A    between atoms: N_26  and  C_27
REMARK                            x       y       z     vdW  Elec       q    Type
REMARK                         _______ _______ _______ _____ _____    ______ ____
ROOT
ATOM      1  N   UNL     1      -5.731   4.719   0.591  0.00  0.00    -0.281 N 
ATOM      2  C   UNL     1      -4.958   5.782   0.267  0.00  0.00    +0.264 C 
ATOM      3  O   UNL     1      -5.432   6.890   0.091  0.00  0.00    -0.268 OA
ATOM      4  C   UNL     1      -3.520   5.528   0.140  0.00  0.00    +0.105 A 
ATOM      5  C   UNL     1      -2.468   6.392   0.009  0.00  0.00    +0.033 A 
ATOM      6  C   UNL     1      -1.304   5.625  -0.047  0.00  0.00    +0.032 A 
ATOM      7  C   UNL     1      -1.671   4.291   0.041  0.00  0.00    +0.085 A 
ATOM      8  N   UNL     1      -3.021   4.230   0.149  0.00  0.00    -0.331 N 
ATOM      9  C   UNL     1      -3.907   3.066   0.250  0.00  0.00    +0.157 C 
ATOM     10  C   UNL     1      -5.158   3.455   1.038  0.00  0.00    +0.128 C 
ATOM     11  C   UNL     1      -6.206   2.352   0.879  0.00  0.00    +0.043 C 
ENDROOT
BRANCH   7  12
ATOM     12  C   UNL     1      -0.755   3.142   0.026  0.00  0.00    +0.151 A 
ATOM     13  C   UNL     1       0.608   3.204   0.013  0.00  0.00    +0.051 A 
ATOM     14  C   UNL     1       1.073   1.877   0.002  0.00  0.00    +0.042 A 
ATOM     15  C   UNL     1      -0.013   1.076   0.008  0.00  0.00    +0.196 A 
ATOM     16  O   UNL     1      -1.114   1.843   0.017  0.00  0.00    -0.461 OA
ENDBRANCH   7  12
BRANCH  10  17
ATOM     17  C   UNL     1      -4.795   3.574   2.496  0.00  0.00    +0.238 C 
ATOM     18  O   UNL     1      -4.911   2.616   3.230  0.00  0.00    -0.273 OA
ATOM     19  N   UNL     1      -4.342   4.746   2.985  0.00  0.00    -0.311 N 
ATOM     20  H   UNL     1      -4.236   5.615   2.319  0.00  0.00    +0.149 HD
BRANCH  19  21
ATOM     21  C   UNL     1      -3.989   4.861   4.402  0.00  0.00    +0.073 C 
ATOM     22  C   UNL     1      -5.238   5.231   5.229  0.00  0.00    +0.022 C 
ATOM     23  C   UNL     1      -4.702   6.198   6.314  0.00  0.00    +0.002 C 
ATOM     24  C   UNL     1      -3.643   7.025   5.543  0.00  0.00    +0.002 C 
ATOM     25  C   UNL     1      -2.975   6.001   4.602  0.00  0.00    +0.022 C 
ENDBRANCH  19  21
ENDBRANCH  10  17
BRANCH   1  26
ATOM     26  C   UNL     1      -7.188   4.842   0.489  0.00  0.00    +0.107 C 
BRANCH  26  27
ATOM     27  C   UNL     1      -7.638   4.428  -0.913  0.00  0.00    +0.000 C 
BRANCH  27  28
ATOM     28  C   UNL     1      -9.159   4.556  -1.019  0.00  0.00    -0.077 C 
BRANCH  28  34
ATOM     29  C   UNL     1      -8.920   5.554  -5.830  0.00  0.00    +0.005 C 
ATOM     30  C   UNL     1      -9.429   4.569  -4.775  0.00  0.00    -0.031 C 
ATOM     31  C   UNL     1     -10.948   4.426  -4.900  0.00  0.00    +0.003 C 
ATOM     32  C   UNL     1     -11.456   3.486  -3.804  0.00  0.00    -0.031 C 
ATOM     33  C   UNL     1     -11.053   4.040  -2.436  0.00  0.00    -0.076 C 
ATOM     34  N   UNL     1      -9.591   4.158  -2.366  0.00  0.00    +0.380 N 
ATOM     35  C   UNL     1      -9.084   5.093  -3.379  0.00  0.00    -0.076 C 
ATOM     36  C   UNL     1     -10.840   2.098  -3.994  0.00  0.00    +0.005 C 
ATOM     37  H   UNL     1      -9.164   3.167  -2.580  0.00  0.00    -0.082 HD
ENDBRANCH  28  34
ENDBRANCH  27  28
ENDBRANCH  26  27
ENDBRANCH   1  26
TORSDOF 7
