REMARK  Name = ZINC62038663
REMARK  7 active torsions:
REMARK  status: ('A' for Active; 'I' for Inactive)
REMARK    1  A    between atoms: C_1  and  C_2
REMARK    2  A    between atoms: C_2  and  C_4
REMARK    3  A    between atoms: C_2  and  S_15
REMARK    4  A    between atoms: N_6  and  C_7
REMARK    5  A    between atoms: C_12  and  O_13
REMARK    6  A    between atoms: S_15  and  C_16
REMARK    7  A    between atoms: C_18  and  C_25
REMARK                            x       y       z     vdW  Elec       q    Type
REMARK                         _______ _______ _______ _____ _____    ______ ____
ROOT
ATOM      1  C   UNL     1      -0.028  -0.192   3.099  0.00  0.00    +0.110 A 
ATOM      2  C   UNL     1       0.312  -0.604   4.417  0.00  0.00    +0.047 A 
ATOM      3  C   UNL     1       1.405  -1.458   4.872  0.00  0.00    +0.001 A 
ATOM      4  C   UNL     1       1.525  -1.710   6.197  0.00  0.00    +0.056 A 
ATOM      5  S   UNL     1       0.166  -0.809   6.917  0.00  0.00    -0.076 S 
ATOM      6  C   UNL     1      -0.528  -0.119   5.439  0.00  0.00    +0.113 A 
ATOM      7  N   UNL     1      -1.556   0.664   5.170  0.00  0.00    -0.228 NA
ATOM      8  C   UNL     1      -1.822   1.013   3.927  0.00  0.00    +0.223 A 
ATOM      9  N   UNL     1      -1.074   0.600   2.920  0.00  0.00    -0.228 NA
ENDROOT
BRANCH   3  10
ATOM     10  C   UNL     1       2.364  -2.037   3.902  0.00  0.00    -0.016 A 
ATOM     11  C   UNL     1       3.114  -1.204   3.073  0.00  0.00    +0.009 A 
ATOM     12  C   UNL     1       4.000  -1.757   2.175  0.00  0.00    +0.004 A 
ATOM     13  C   UNL     1       4.156  -3.136   2.088  0.00  0.00    -0.044 A 
ATOM     14  C   UNL     1       3.421  -3.963   2.909  0.00  0.00    -0.044 A 
ATOM     15  C   UNL     1       2.528  -3.416   3.817  0.00  0.00    +0.012 A 
ATOM     16  C   UNL     1       3.554  -5.464   2.876  0.00  0.00    +0.035 C 
ATOM     17  C   UNL     1       4.225  -5.916   1.581  0.00  0.00    +0.005 C 
ATOM     18  C   UNL     1       5.516  -5.109   1.397  0.00  0.00    +0.005 C 
ATOM     19  C   UNL     1       5.139  -3.665   1.076  0.00  0.00    +0.035 C 
ENDBRANCH   3  10
BRANCH   1  20
ATOM     20  S   UNL     1       0.935  -0.723   1.723  0.00  0.00    -0.093 S 
BRANCH  20  22
ATOM     21  C   UNL     1       0.260   1.575   0.402  0.00  0.00    +0.029 C 
ATOM     22  C   UNL     1       0.127   0.054   0.296  0.00  0.00    +0.136 C 
BRANCH  22  23
ATOM     23  C   UNL     1       0.785  -0.420  -0.974  0.00  0.00    +0.230 C 
ATOM     24  O   UNL     1       1.900  -0.896  -0.938  0.00  0.00    -0.274 OA
ATOM     25  N   UNL     1       0.134  -0.316  -2.149  0.00  0.00    -0.282 N 
ATOM     26  H   UNL     1      -0.785  -0.007  -2.169  0.00  0.00    +0.155 HD
BRANCH  25  27
ATOM     27  C   UNL     1       0.785  -0.654  -3.343  0.00  0.00    +0.077 A 
ATOM     28  C   UNL     1       1.766  -1.635  -3.346  0.00  0.00    +0.047 A 
ATOM     29  C   UNL     1       2.407  -1.968  -4.526  0.00  0.00    +0.043 A 
ATOM     30  C   UNL     1       2.072  -1.324  -5.704  0.00  0.00    +0.023 A 
ATOM     31  C   UNL     1       1.095  -0.346  -5.707  0.00  0.00    +0.049 A 
ATOM     32  C   UNL     1       0.444  -0.011  -4.531  0.00  0.00    +0.138 A 
ATOM     33 CL   UNL     1       3.635  -3.195  -4.528  0.00  0.00    -0.083 Cl
BRANCH  32  34
ATOM     34  O   UNL     1      -0.521   0.946  -4.534  0.00  0.00    -0.505 OA
ATOM     35  H   UNL     1      -0.188   1.841  -4.377  0.00  0.00    +0.292 HD
ENDBRANCH  32  34
ENDBRANCH  25  27
ENDBRANCH  22  23
ENDBRANCH  20  22
ENDBRANCH   1  20
TORSDOF 6
