REMARK  Name = ZINC02274227
REMARK  3 active torsions:
REMARK  status: ('A' for Active; 'I' for Inactive)
REMARK    1  A    between atoms: C_4  and  C_7
REMARK    2  A    between atoms: C_7  and  N_45
REMARK    3  A    between atoms: C_18  and  C_20
REMARK                            x       y       z     vdW  Elec       q    Type
REMARK                         _______ _______ _______ _____ _____    ______ ____
ROOT
ATOM      1  C   UNL     1       1.496   1.926   0.549  0.00  0.00    +0.021 C 
ATOM      2  C   UNL     1       1.607   3.098  -0.361  0.00  0.00    +0.201 C 
ATOM      3  O   UNL     1       2.698   3.306  -0.848  0.00  0.00    -0.278 OA
ATOM      4  N   UNL     1       0.651   3.924  -0.689  0.00  0.00    -0.287 N 
ATOM      5  C   UNL     1      -0.713   3.964  -0.501  0.00  0.00    +0.035 A 
ATOM      6  C   UNL     1      -1.378   4.997  -1.185  0.00  0.00    +0.024 A 
ATOM      7  C   UNL     1      -2.738   5.162  -1.084  0.00  0.00    +0.017 A 
ATOM      8  C   UNL     1      -3.475   4.298  -0.293  0.00  0.00    +0.018 A 
ATOM      9  C   UNL     1      -2.833   3.281   0.379  0.00  0.00    +0.019 A 
ATOM     10  C   UNL     1      -1.453   3.103   0.281  0.00  0.00    -0.034 A 
ATOM     11  C   UNL     1      -0.889   1.954   1.053  0.00  0.00    -0.004 C 
ATOM     12 BR   UNL     1      -5.347   4.511  -0.136  0.00  0.00    -0.050 Br
ATOM     13  H   UNL     1       0.979   4.692  -1.183  0.00  0.00    +0.155 HD
ATOM     14  N   UNL     1       0.193   1.243   0.377  0.00  0.00    +0.395 N 
ATOM     15  H   UNL     1      -0.024   1.208  -0.626  0.00  0.00    -0.079 HD
ENDROOT
BRANCH  11  16
ATOM     16  C   UNL     1      -1.993   0.955   1.288  0.00  0.00    -0.057 A 
ATOM     17  C   UNL     1      -2.529   0.254   0.224  0.00  0.00    +0.002 A 
ATOM     18  C   UNL     1      -3.539  -0.665   0.440  0.00  0.00    +0.000 A 
ATOM     19  C   UNL     1      -4.019  -0.876   1.719  0.00  0.00    +0.000 A 
ATOM     20  C   UNL     1      -3.486  -0.172   2.783  0.00  0.00    +0.000 A 
ATOM     21  C   UNL     1      -2.474   0.744   2.567  0.00  0.00    +0.002 A 
ENDBRANCH  11  16
BRANCH  14  22
ATOM     22  C   UNL     1       0.287  -0.124   0.884  0.00  0.00    -0.041 C 
BRANCH  22  26
ATOM     23  C   UNL     1       2.913  -2.310  -1.679  0.00  0.00    +0.000 A 
ATOM     24  C   UNL     1       3.385  -1.789  -0.489  0.00  0.00    +0.000 A 
ATOM     25  C   UNL     1       2.535  -1.081   0.340  0.00  0.00    +0.002 A 
ATOM     26  C   UNL     1       1.214  -0.895  -0.020  0.00  0.00    -0.064 A 
ATOM     27  C   UNL     1       0.741  -1.422  -1.208  0.00  0.00    +0.002 A 
ATOM     28  C   UNL     1       1.592  -2.124  -2.040  0.00  0.00    +0.000 A 
ENDBRANCH  22  26
ENDBRANCH  14  22
TORSDOF 3
