REMARK  Name = ZINC39344618
REMARK  16 active torsions:
REMARK  status: ('A' for Active; 'I' for Inactive)
REMARK    1  A    between atoms: C_1  and  C_2
REMARK    2  A    between atoms: C_2  and  C_3
REMARK    3  A    between atoms: C_3  and  C_5
REMARK    4  A    between atoms: C_3  and  C_6
REMARK    5  A    between atoms: C_6  and  N_7
REMARK    6  A    between atoms: N_7  and  C_8
REMARK    7  A    between atoms: N_14  and  C_29
REMARK    8  A    between atoms: C_15  and  C_25
REMARK    9  A    between atoms: C_17  and  N_19
REMARK   10  A    between atoms: C_20  and  C_22
REMARK   11  A    between atoms: C_22  and  O_23
REMARK   12  A    between atoms: O_23  and  C_24
REMARK   13  A    between atoms: C_25  and  O_27
REMARK   14  A    between atoms: O_27  and  C_28
REMARK   15  A    between atoms: C_29  and  C_30
REMARK   16  A    between atoms: C_30  and  C_31
REMARK                            x       y       z     vdW  Elec       q    Type
REMARK                         _______ _______ _______ _____ _____    ______ ____
ROOT
ATOM      1  C   UNL     1       1.299  -3.886   2.824  0.00  0.00    +0.044 A 
ATOM      2  C   UNL     1       1.865  -4.354   4.009  0.00  0.00    +0.033 A 
ATOM      3  C   UNL     1       1.880  -5.717   4.238  0.00  0.00    +0.015 A 
ATOM      4  C   UNL     1       1.339  -6.586   3.301  0.00  0.00    +0.105 A 
ATOM      5  N   UNL     1       0.807  -6.096   2.182  0.00  0.00    -0.348 N 
ATOM      6  C   UNL     1       0.769  -4.804   1.930  0.00  0.00    +0.107 A 
ATOM      7  N   UNL     1       1.449  -7.912   3.712  0.00  0.00    -0.301 N 
ATOM      8  C   UNL     1       2.107  -7.985   5.019  0.00  0.00    +0.208 C 
ATOM      9  C   UNL     1       2.409  -6.526   5.399  0.00  0.00    +0.138 C 
ATOM     10  H   UNL     1       0.432  -6.712   1.533  0.00  0.00    +0.167 HD
ENDROOT
BRANCH   9  11
ATOM     11  N   UNL     1       1.711  -6.164   6.636  0.00  0.00    -0.304 N 
ATOM     12  C   UNL     1       2.147  -5.128   7.378  0.00  0.00    +0.239 C 
ATOM     13  O   UNL     1       3.119  -4.494   7.022  0.00  0.00    -0.273 OA
ATOM     14  H   UNL     1       0.934  -6.671   6.920  0.00  0.00    +0.149 HD
BRANCH  12  15
ATOM     15  C   UNL     1       1.429  -4.755   8.649  0.00  0.00    +0.255 C 
BRANCH  15  16
ATOM     16  O   UNL     1       2.077  -3.633   9.251  0.00  0.00    -0.374 OA
ATOM     17  C   UNL     1       1.471  -3.197  10.470  0.00  0.00    +0.194 C 
ENDBRANCH  15  16
ENDBRANCH  12  15
ENDBRANCH   9  11
BRANCH   1  18
ATOM     18  N   UNL     1       1.260  -2.514   2.545  0.00  0.00    -0.342 N 
ATOM     19  H   UNL     1       1.633  -1.880   3.177  0.00  0.00    +0.146 HD
BRANCH  18  20
ATOM     20  C   UNL     1       0.655  -2.037   1.299  0.00  0.00    +0.104 C 
BRANCH  20  21
ATOM     21  C   UNL     1       0.742  -0.511   1.242  0.00  0.00    +0.003 C 
ATOM     22  C   UNL     1       2.210  -0.086   1.169  0.00  0.00    +0.009 C 
BRANCH  21  24
ATOM     23  C   UNL     1      -0.019   1.526   0.010  0.00  0.00    +0.004 C 
ATOM     24  C   UNL     1       0.002  -0.004   0.002  0.00  0.00    +0.001 C 
ENDBRANCH  21  24
ENDBRANCH  20  21
ENDBRANCH  18  20
ENDBRANCH   1  18
BRANCH   8  25
ATOM     25  C   UNL     1       1.186  -8.612   6.034  0.00  0.00    +0.330 C 
ATOM     26  O   UNL     1      -0.002  -8.663   5.821  0.00  0.00    -0.249 OA
BRANCH  25  27
ATOM     27  O   UNL     1       1.686  -9.114   7.174  0.00  0.00    -0.467 OA
ATOM     28  C   UNL     1       0.756  -9.694   8.091  0.00  0.00    +0.280 C 
ENDBRANCH  25  27
ENDBRANCH   8  25
BRANCH   7  29
ATOM     29  C   UNL     1       0.973  -9.068   2.948  0.00  0.00    +0.112 C 
BRANCH  29  30
ATOM     30  C   UNL     1       2.091  -9.567   2.030  0.00  0.00    +0.056 C 
BRANCH  30  31
ATOM     31  C   UNL     1       1.602 -10.757   1.244  0.00  0.00    -0.021 A 
ATOM     32  C   UNL     1       0.851 -10.721  -0.013  0.00  0.00    +0.003 A 
ATOM     33  C   UNL     1       0.378  -9.694  -0.832  0.00  0.00    +0.010 A 
ATOM     34  C   UNL     1      -0.309  -9.998  -1.974  0.00  0.00    +0.001 A 
ATOM     35  C   UNL     1      -0.541 -11.321  -2.325  0.00  0.00    +0.002 A 
ATOM     36  C   UNL     1      -0.083 -12.350  -1.532  0.00  0.00    +0.026 A 
ATOM     37  C   UNL     1       0.619 -12.063  -0.366  0.00  0.00    +0.047 A 
ATOM     38  N   UNL     1       1.192 -12.845   0.612  0.00  0.00    -0.360 N 
ATOM     39  C   UNL     1       1.778 -12.049   1.559  0.00  0.00    +0.087 A 
ATOM     40  H   UNL     1       1.185 -13.815   0.626  0.00  0.00    +0.165 HD
ENDBRANCH  30  31
ENDBRANCH  29  30
ENDBRANCH   7  29
TORSDOF 12
