REMARK  Name = ZINC13495158
REMARK  11 active torsions:
REMARK  status: ('A' for Active; 'I' for Inactive)
REMARK    1  A    between atoms: C_1  and  C_2
REMARK    2  A    between atoms: C_2  and  C_4
REMARK    3  A    between atoms: C_2  and  N_17
REMARK    4  A    between atoms: C_6  and  C_9
REMARK    5  A    between atoms: C_14  and  O_15
REMARK    6  A    between atoms: O_15  and  C_16
REMARK    7  A    between atoms: C_18  and  C_20
REMARK    8  A    between atoms: C_23  and  C_26
REMARK    9  A    between atoms: C_26  and  C_27
REMARK   10  A    between atoms: C_26  and  C_28
REMARK   11  A    between atoms: C_26  and  C_29
REMARK                            x       y       z     vdW  Elec       q    Type
REMARK                         _______ _______ _______ _____ _____    ______ ____
ROOT
ATOM      1  C   UNL     1       6.503   4.755  -1.427  0.00  0.00    +0.038 C 
ATOM      2  C   UNL     1       5.995   4.391  -0.030  0.00  0.00    +0.159 C 
ENDROOT
BRANCH   2   3
ATOM      3  C   UNL     1       4.489   4.440  -0.016  0.00  0.00    +0.248 A 
ATOM      4  N   UNL     1       3.677   3.412  -0.008  0.00  0.00    -0.190 NA
ATOM      5  C   UNL     1       2.429   3.934   0.001  0.00  0.00    +0.206 A 
ATOM      6  N   UNL     1       2.556   5.236   0.007  0.00  0.00    -0.056 NA
ATOM      7  O   UNL     1       3.730   5.540  -0.003  0.00  0.00    -0.336 OA
BRANCH   5   8
ATOM      8  C   UNL     1       1.157   3.172   0.008  0.00  0.00    +0.064 A 
ATOM      9  C   UNL     1       1.174   1.779   0.000  0.00  0.00    +0.015 A 
ATOM     10  C   UNL     1      -0.013   1.076   0.008  0.00  0.00    +0.001 A 
ATOM     11  C   UNL     1      -1.222   1.749   0.017  0.00  0.00    +0.004 A 
ATOM     12  C   UNL     1      -1.251   3.130   0.031  0.00  0.00    +0.046 A 
ATOM     13  C   UNL     1      -0.066   3.850   0.023  0.00  0.00    +0.131 A 
BRANCH  13  14
ATOM     14  O   UNL     1      -0.094   5.207   0.031  0.00  0.00    -0.494 OA
ATOM     15  C   UNL     1      -1.380   5.830   0.047  0.00  0.00    +0.277 C 
ENDBRANCH  13  14
ENDBRANCH   5   8
ENDBRANCH   2   3
BRANCH   2  16
ATOM     16  N   UNL     1       6.524   5.346   0.946  0.00  0.00    -0.300 N 
ATOM     17  C   UNL     1       7.745   5.155   1.483  0.00  0.00    +0.245 C 
ATOM     18  O   UNL     1       8.408   4.190   1.156  0.00  0.00    -0.270 OA
ATOM     19  H   UNL     1       5.995   6.116   1.207  0.00  0.00    +0.150 HD
BRANCH  17  20
ATOM     20  C   UNL     1       8.279   6.119   2.469  0.00  0.00    +0.037 A 
ATOM     21  C   UNL     1       7.522   7.231   2.842  0.00  0.00    +0.013 A 
ATOM     22  C   UNL     1       8.024   8.124   3.765  0.00  0.00    +0.005 A 
ATOM     23  C   UNL     1       9.279   7.925   4.314  0.00  0.00    -0.042 A 
ATOM     24  C   UNL     1      10.036   6.827   3.945  0.00  0.00    +0.005 A 
ATOM     25  C   UNL     1       9.544   5.924   3.026  0.00  0.00    +0.013 A 
BRANCH  23  26
ATOM     26  C   UNL     1       9.823   8.908   5.318  0.00  0.00    -0.013 C 
ATOM     27  C   UNL     1      11.123   9.515   4.786  0.00  0.00    +0.015 C 
ATOM     28  C   UNL     1       8.799  10.020   5.550  0.00  0.00    +0.015 C 
ATOM     29  C   UNL     1      10.101   8.187   6.639  0.00  0.00    +0.015 C 
ENDBRANCH  23  26
ENDBRANCH  17  20
ENDBRANCH   2  16
TORSDOF 6
