REMARK  Name = ZINC57844791
REMARK  6 active torsions:
REMARK  status: ('A' for Active; 'I' for Inactive)
REMARK    1  A    between atoms: C_1  and  C_2
REMARK    2  A    between atoms: C_2  and  C_4
REMARK    3  A    between atoms: C_2  and  C_21
REMARK    4  A    between atoms: C_4  and  N_5
REMARK    5  A    between atoms: C_8  and  C_12
REMARK    6  A    between atoms: C_8  and  C_13
REMARK                            x       y       z     vdW  Elec       q    Type
REMARK                         _______ _______ _______ _____ _____    ______ ____
ROOT
ATOM      1  N   UNL     1      -0.008  -0.140   2.444  0.00  0.00    -0.223 N 
ATOM      2  C   UNL     1       0.164   1.014   3.118  0.00  0.00    +0.251 C 
ATOM      3  O   UNL     1       0.940   1.907   2.854  0.00  0.00    -0.272 OA
ATOM      4  C   UNL     1      -0.814   0.963   4.275  0.00  0.00    +0.135 C 
ATOM      5  N   UNL     1      -1.488  -0.335   4.101  0.00  0.00    -0.281 N 
ATOM      6  C   UNL     1      -0.954  -0.903   3.005  0.00  0.00    +0.310 C 
ATOM      7  O   UNL     1      -1.290  -1.988   2.574  0.00  0.00    -0.252 OA
ATOM      8  C   UNL     1      -1.823   2.110   4.177  0.00  0.00    +0.047 C 
ATOM      9  H   UNL     1      -2.183  -0.708   4.666  0.00  0.00    +0.152 HD
ENDROOT
BRANCH   4  10
ATOM     10  C   UNL     1      -0.082   1.010   5.591  0.00  0.00    -0.014 A 
ATOM     11  C   UNL     1       1.122   1.683   5.689  0.00  0.00    +0.008 A 
ATOM     12  C   UNL     1       1.794   1.726   6.895  0.00  0.00    +0.022 A 
ATOM     13  C   UNL     1       1.263   1.095   8.006  0.00  0.00    +0.059 A 
ATOM     14  C   UNL     1       0.057   0.422   7.909  0.00  0.00    +0.060 A 
ATOM     15  C   UNL     1      -0.617   0.384   6.701  0.00  0.00    +0.027 A 
ATOM     16 CL   UNL     1      -0.611  -0.370   9.302  0.00  0.00    -0.082 Cl
ATOM     17 CL   UNL     1       2.108   1.148   9.522  0.00  0.00    -0.082 Cl
ENDBRANCH   4  10
BRANCH   1  18
ATOM     18  C   UNL     1       0.742  -0.511   1.242  0.00  0.00    +0.136 C 
BRANCH  18  20
ATOM     19  C   UNL     1      -0.019   1.526   0.010  0.00  0.00    +0.025 C 
ATOM     20  C   UNL     1       0.002  -0.004   0.002  0.00  0.00    +0.106 C 
BRANCH  20  21
ATOM     21  C   UNL     1       0.691  -0.479  -1.209  0.00  0.00    +0.067 C 
ATOM     22  N   UNL     1       1.223  -0.845  -2.144  0.00  0.00    -0.196 NA
ENDBRANCH  20  21
ENDBRANCH  18  20
ENDBRANCH   1  18
TORSDOF 4
