REMARK  Name = ZINC03097886
REMARK  9 active torsions:
REMARK  status: ('A' for Active; 'I' for Inactive)
REMARK    1  A    between atoms: C_1  and  C_2
REMARK    2  A    between atoms: C_2  and  C_3
REMARK    3  A    between atoms: C_2  and  C_4
REMARK    4  A    between atoms: C_2  and  C_5
REMARK    5  A    between atoms: C_5  and  C_7
REMARK    6  A    between atoms: C_5  and  N_17
REMARK    7  A    between atoms: C_8  and  C_9
REMARK    8  A    between atoms: C_18  and  C_22
REMARK    9  A    between atoms: C_22  and  N_54
REMARK                            x       y       z     vdW  Elec       q    Type
REMARK                         _______ _______ _______ _____ _____    ______ ____
ROOT
ATOM      1  C   UNL     1      -2.736   5.472   2.206  0.00  0.00    +0.139 C 
ENDROOT
BRANCH   1   2
ATOM      2  N   UNL     1      -2.052   5.914   0.989  0.00  0.00    -0.223 N 
ATOM      3  C   UNL     1      -1.510   5.123   0.044  0.00  0.00    +0.141 A 
ATOM      4  N   UNL     1      -0.999   5.917  -0.864  0.00  0.00    -0.115 NA
ATOM      5  N   UNL     1      -1.222   7.133  -0.501  0.00  0.00    -0.023 NA
ATOM      6  N   UNL     1      -1.855   7.135   0.620  0.00  0.00    -0.043 NA
BRANCH   3   7
ATOM      7  C   UNL     1      -1.490   3.616   0.036  0.00  0.00    -0.008 C 
ATOM      8  C   UNL     1      -0.773   3.123  -1.223  0.00  0.00    -0.005 C 
ATOM      9  C   UNL     1      -0.753   1.593  -1.232  0.00  0.00    -0.001 C 
ATOM     10  C   UNL     1      -0.013   1.086   0.008  0.00  0.00    -0.000 C 
ATOM     11  C   UNL     1      -0.729   1.579   1.267  0.00  0.00    -0.001 C 
ATOM     12  C   UNL     1      -0.750   3.109   1.275  0.00  0.00    -0.005 C 
BRANCH   7  15
ATOM     13  H   UNL     1      -3.362   3.420   0.868  0.00  0.00    -0.089 HD
ATOM     14  H   UNL     1      -3.358   3.375  -0.794  0.00  0.00    -0.089 HD
ATOM     15  N   UNL     1      -2.863   3.083   0.047  0.00  0.00    +0.387 N 
ATOM     16  H   UNL     1      -2.827   2.057   0.075  0.00  0.00    -0.089 HD
ENDBRANCH   7  15
ENDBRANCH   3   7
ENDBRANCH   1   2
BRANCH   1  18
ATOM     17  C   UNL     1      -1.985   7.545   3.381  0.00  0.00    +0.013 C 
ATOM     18  C   UNL     1      -1.999   6.016   3.432  0.00  0.00    -0.012 C 
ATOM     19  C   UNL     1      -2.714   5.555   4.703  0.00  0.00    +0.013 C 
ATOM     20  C   UNL     1      -0.561   5.493   3.436  0.00  0.00    +0.013 C 
ENDBRANCH   1  18
BRANCH   1  21
ATOM     21  C   UNL     1      -4.152   5.987   2.202  0.00  0.00    +0.001 C 
ATOM     22  C   UNL     1      -5.168   5.136   2.239  0.00  0.00    +0.007 C 
BRANCH  22  23
ATOM     23  C   UNL     1      -6.557   5.642   2.235  0.00  0.00    -0.007 A 
ATOM     24  C   UNL     1      -6.802   7.015   2.197  0.00  0.00    +0.011 A 
ATOM     25  C   UNL     1      -8.100   7.481   2.187  0.00  0.00    +0.020 A 
ATOM     26  C   UNL     1      -9.160   6.590   2.226  0.00  0.00    +0.042 A 
ATOM     27  C   UNL     1      -8.924   5.226   2.269  0.00  0.00    +0.040 A 
ATOM     28  C   UNL     1      -7.628   4.747   2.274  0.00  0.00    +0.049 A 
ATOM     29 CL   UNL     1      -7.333   3.038   2.328  0.00  0.00    -0.083 Cl
ATOM     30 CL   UNL     1     -10.790   7.185   2.220  0.00  0.00    -0.083 Cl
ENDBRANCH  22  23
ENDBRANCH   1  21
TORSDOF 6
