REMARK  Name = ZINC36306973
REMARK  14 active torsions:
REMARK  status: ('A' for Active; 'I' for Inactive)
REMARK    1  A    between atoms: C_1  and  N_2
REMARK    2  A    between atoms: C_3  and  O_33
REMARK    3  A    between atoms: C_4  and  C_13
REMARK    4  A    between atoms: C_5  and  C_7
REMARK    5  A    between atoms: C_13  and  N_14
REMARK    6  A    between atoms: N_14  and  C_15
REMARK    7  A    between atoms: N_14  and  C_21
REMARK    8  A    between atoms: C_15  and  C_16
REMARK    9  A    between atoms: C_21  and  C_22
REMARK   10  A    between atoms: C_22  and  C_24
REMARK   11  A    between atoms: C_22  and  O_32
REMARK   12  A    between atoms: C_24  and  O_25
REMARK   13  A    between atoms: O_25  and  C_26
REMARK   14  A    between atoms: O_33  and  C_34
REMARK                            x       y       z     vdW  Elec       q    Type
REMARK                         _______ _______ _______ _____ _____    ______ ____
ROOT
ATOM      1  C   UNL     1       0.582  -3.755  -1.293  0.00  0.00    -0.035 C 
ENDROOT
BRANCH   1   5
ATOM      2  C   UNL     1       1.498   1.139  -0.629  0.00  0.00    +0.176 C 
ATOM      3  N   UNL     1       1.073  -0.244  -0.394  0.00  0.00    -0.235 N 
ATOM      4  C   UNL     1       1.174  -1.270  -1.278  0.00  0.00    +0.221 A 
ATOM      5  C   UNL     1       0.671  -2.381  -0.681  0.00  0.00    +0.025 A 
ATOM      6  C   UNL     1       0.248  -2.020   0.613  0.00  0.00    +0.098 A 
ATOM      7  N   UNL     1       0.497  -0.739   0.782  0.00  0.00    -0.168 NA
BRANCH   6   8
ATOM      8  C   UNL     1      -0.365  -2.928   1.614  0.00  0.00    +0.002 A 
ATOM      9  C   UNL     1       0.029  -2.865   2.949  0.00  0.00    +0.010 A 
ATOM     10  C   UNL     1      -0.545  -3.712   3.875  0.00  0.00    +0.001 A 
ATOM     11  C   UNL     1      -1.509  -4.622   3.481  0.00  0.00    +0.000 A 
ATOM     12  C   UNL     1      -1.904  -4.689   2.156  0.00  0.00    +0.001 A 
ATOM     13  C   UNL     1      -1.341  -3.843   1.223  0.00  0.00    +0.010 A 
ENDBRANCH   6   8
BRANCH   4  14
ATOM     14  O   UNL     1       1.686  -1.198  -2.533  0.00  0.00    -0.438 OA
BRANCH  14  15
ATOM     15  C   UNL     1       0.847  -0.853  -3.545  0.00  0.00    +0.133 A 
ATOM     16  C   UNL     1      -0.459  -0.473  -3.266  0.00  0.00    +0.046 A 
ATOM     17  C   UNL     1      -1.310  -0.122  -4.296  0.00  0.00    +0.006 A 
ATOM     18  C   UNL     1      -0.863  -0.148  -5.604  0.00  0.00    +0.038 A 
ATOM     19  C   UNL     1       0.439  -0.527  -5.886  0.00  0.00    +0.127 A 
ATOM     20  C   UNL     1       1.297  -0.873  -4.857  0.00  0.00    +0.084 A 
ATOM     21  F   UNL     1       0.873  -0.552  -7.165  0.00  0.00    -0.205 F 
ENDBRANCH  14  15
ENDBRANCH   4  14
ENDBRANCH   1   5
BRANCH   1  22
ATOM     22  N   UNL     1       1.870  -4.443  -1.142  0.00  0.00    +0.389 N 
ATOM     23  H   UNL     1       2.604  -3.874  -1.537  0.00  0.00    -0.081 HD
BRANCH  22  24
ATOM     24  C   UNL     1       2.140  -4.671   0.284  0.00  0.00    -0.003 C 
BRANCH  24  25
ATOM     25  C   UNL     1       3.524  -5.243   0.448  0.00  0.00    +0.089 A 
ATOM     26  C   UNL     1       4.646  -4.536   0.673  0.00  0.00    +0.042 A 
ATOM     27  C   UNL     1       5.707  -5.467   0.760  0.00  0.00    +0.041 A 
ATOM     28  C   UNL     1       5.169  -6.687   0.584  0.00  0.00    +0.195 A 
ATOM     29  O   UNL     1       3.846  -6.546   0.401  0.00  0.00    -0.470 OA
ENDBRANCH  24  25
ENDBRANCH  22  24
BRANCH  22  30
ATOM     30  C   UNL     1       1.821  -5.734  -1.843  0.00  0.00    -0.043 C 
BRANCH  30  31
ATOM     31  C   UNL     1       1.690  -5.492  -3.348  0.00  0.00    +0.135 C 
BRANCH  31  32
ATOM     32  O   UNL     1       2.836  -4.779  -3.818  0.00  0.00    -0.390 OA
ATOM     33  H   UNL     1       3.664  -5.274  -3.744  0.00  0.00    +0.210 HD
ENDBRANCH  31  32
BRANCH  31  34
ATOM     34  C   UNL     1       1.591  -6.835  -4.074  0.00  0.00    +0.258 C 
BRANCH  34  35
ATOM     35  O   UNL     1       1.352  -6.609  -5.464  0.00  0.00    -0.489 OA
BRANCH  35  36
ATOM     36  C   UNL     1       1.237  -7.707  -6.257  0.00  0.00    +0.121 A 
ATOM     37  C   UNL     1       1.347  -8.976  -5.707  0.00  0.00    +0.045 A 
ATOM     38  C   UNL     1       1.230 -10.090  -6.515  0.00  0.00    +0.004 A 
ATOM     39  C   UNL     1       1.004  -9.941  -7.871  0.00  0.00    +0.000 A 
ATOM     40  C   UNL     1       0.894  -8.678  -8.422  0.00  0.00    +0.004 A 
ATOM     41  C   UNL     1       1.004  -7.561  -7.617  0.00  0.00    +0.045 A 
ENDBRANCH  35  36
ENDBRANCH  34  35
ENDBRANCH  31  34
ENDBRANCH  30  31
ENDBRANCH  22  30
ENDBRANCH   1  22
TORSDOF 13
