REMARK  Name = ZINC64965841
REMARK  5 active torsions:
REMARK  status: ('A' for Active; 'I' for Inactive)
REMARK    1  A    between atoms: C_4  and  C_7
REMARK    2  A    between atoms: C_7  and  N_8
REMARK    3  A    between atoms: C_10  and  C_30
REMARK    4  A    between atoms: C_12  and  C_25
REMARK    5  A    between atoms: N_15  and  C_18
REMARK                            x       y       z     vdW  Elec       q    Type
REMARK                         _______ _______ _______ _____ _____    ______ ____
ROOT
ATOM      1  N   UNL     1       5.473  -1.312   1.043  0.00  0.00    -0.284 N 
ATOM      2  C   UNL     1       5.468  -0.379   2.065  0.00  0.00    +0.120 A 
ATOM      3  C   UNL     1       5.385   1.013   2.119  0.00  0.00    +0.155 A 
ATOM      4  N   UNL     1       5.410   1.608   3.311  0.00  0.00    -0.218 NA
ATOM      5  C   UNL     1       5.511   0.897   4.426  0.00  0.00    +0.198 A 
ATOM      6  N   UNL     1       5.592  -0.431   4.413  0.00  0.00    -0.205 NA
ATOM      7  C   UNL     1       5.574  -1.095   3.271  0.00  0.00    +0.170 A 
ATOM      8  N   UNL     1       5.639  -2.435   2.932  0.00  0.00    -0.245 N 
ATOM      9  C   UNL     1       5.571  -2.539   1.591  0.00  0.00    +0.336 A 
ATOM     10  O   UNL     1       5.597  -3.584   0.968  0.00  0.00    -0.246 OA
ENDROOT
BRANCH   8  11
ATOM     11  C   UNL     1       5.752  -3.504   3.833  0.00  0.00    +0.053 A 
ATOM     12  C   UNL     1       5.802  -3.260   5.198  0.00  0.00    +0.029 A 
ATOM     13  C   UNL     1       5.913  -4.315   6.084  0.00  0.00    +0.040 A 
ATOM     14  C   UNL     1       5.975  -5.614   5.610  0.00  0.00    +0.124 A 
ATOM     15  C   UNL     1       5.926  -5.860   4.248  0.00  0.00    +0.040 A 
ATOM     16  C   UNL     1       5.808  -4.808   3.360  0.00  0.00    +0.029 A 
ATOM     17  F   UNL     1       6.084  -6.644   6.477  0.00  0.00    -0.205 F 
ENDBRANCH   8  11
BRANCH   5  18
ATOM     18  C   UNL     1       5.535   1.602   5.722  0.00  0.00    +0.172 A 
ATOM     19  C   UNL     1       5.457   2.949   5.901  0.00  0.00    +0.053 A 
ATOM     20  C   UNL     1       5.516   3.177   7.289  0.00  0.00    +0.042 A 
ATOM     21  C   UNL     1       5.627   1.972   7.884  0.00  0.00    +0.196 A 
ATOM     22  O   UNL     1       5.633   1.023   6.935  0.00  0.00    -0.460 OA
ENDBRANCH   5  18
BRANCH   3  23
ATOM     23  C   UNL     1       5.272   1.812   0.877  0.00  0.00    +0.262 C 
ATOM     24  O   UNL     1       4.601   1.403  -0.051  0.00  0.00    -0.269 OA
ATOM     25  N   UNL     1       5.913   2.993   0.775  0.00  0.00    -0.324 N 
ATOM     26  H   UNL     1       6.448   3.320   1.515  0.00  0.00    +0.145 HD
ATOM     27  H   UNL     1       5.839   3.517  -0.038  0.00  0.00    +0.145 HD
ENDBRANCH   3  23
BRANCH   1  28
ATOM     28  C   UNL     1       5.380  -1.017  -0.389  0.00  0.00    +0.162 C 
BRANCH  28  32
ATOM     29  C   UNL     1       9.220   0.147  -1.854  0.00  0.00    +0.000 A 
ATOM     30  C   UNL     1       8.928  -1.191  -1.669  0.00  0.00    +0.000 A 
ATOM     31  C   UNL     1       7.685  -1.568  -1.195  0.00  0.00    +0.005 A 
ATOM     32  C   UNL     1       6.735  -0.607  -0.905  0.00  0.00    -0.028 A 
ATOM     33  C   UNL     1       7.028   0.732  -1.089  0.00  0.00    +0.005 A 
ATOM     34  C   UNL     1       8.270   1.109  -1.565  0.00  0.00    +0.000 A 
ENDBRANCH  28  32
ENDBRANCH   1  28
TORSDOF 5
