REMARK  Name = ZINC23129866
REMARK  7 active torsions:
REMARK  status: ('A' for Active; 'I' for Inactive)
REMARK    1  A    between atoms: C_1  and  C_2
REMARK    2  A    between atoms: C_6  and  N_8
REMARK    3  A    between atoms: C_12  and  C_13
REMARK    4  A    between atoms: C_13  and  N_14
REMARK    5  A    between atoms: C_18  and  C_21
REMARK    6  A    between atoms: C_21  and  N_22
REMARK    7  A    between atoms: C_23  and  C_25
REMARK                            x       y       z     vdW  Elec       q    Type
REMARK                         _______ _______ _______ _____ _____    ______ ____
ROOT
ATOM      1  N   UNL     1       2.936   5.541   1.414  0.00  0.00    -0.295 NA
ATOM      2  C   UNL     1       3.301   6.718   0.615  0.00  0.00    +0.085 C 
ATOM      3  C   UNL     1       4.662   6.486  -0.045  0.00  0.00    +0.016 C 
ATOM      4  C   UNL     1       5.714   6.237   1.040  0.00  0.00    +0.007 C 
ATOM      5  C   UNL     1       5.286   5.036   1.888  0.00  0.00    +0.020 C 
ATOM      6  C   UNL     1       3.906   5.309   2.491  0.00  0.00    +0.090 C 
ENDROOT
BRANCH   1   7
ATOM      7  C   UNL     1       1.575   5.670   1.950  0.00  0.00    +0.157 C 
BRANCH   7  12
ATOM      8  N   UNL     1      -0.048   5.351   0.007  0.00  0.00    -0.304 N 
ATOM      9  C   UNL     1      -0.766   6.178  -0.817  0.00  0.00    +0.110 A 
ATOM     10  C   UNL     1      -0.483   7.441  -0.446  0.00  0.00    +0.102 A 
ATOM     11  N   UNL     1       0.384   7.392   0.576  0.00  0.00    -0.348 N 
ATOM     12  C   UNL     1       0.649   6.146   0.860  0.00  0.00    +0.106 A 
ATOM     13  H   UNL     1       0.751   8.325   1.031  0.00  0.00    +0.166 HD
BRANCH   8  19
ATOM     14  C   UNL     1      -2.520   1.100  -0.077  0.00  0.00    +0.044 C 
ATOM     15  C   UNL     1      -1.222   1.865  -0.062  0.00  0.00    -0.048 A 
ATOM     16  C   UNL     1      -0.019   1.183  -0.076  0.00  0.00    +0.003 A 
ATOM     17  C   UNL     1       1.175   1.881  -0.068  0.00  0.00    +0.002 A 
ATOM     18  C   UNL     1       1.168   3.262  -0.041  0.00  0.00    +0.026 A 
ATOM     19  C   UNL     1      -0.038   3.949  -0.021  0.00  0.00    +0.048 A 
ATOM     20  C   UNL     1      -1.235   3.245  -0.029  0.00  0.00    +0.029 A 
ENDBRANCH   8  19
ENDBRANCH   7  12
ENDBRANCH   1   7
BRANCH   5  21
ATOM     21  C   UNL     1       6.301   4.817   3.011  0.00  0.00    +0.109 C 
BRANCH  21  22
ATOM     22  N   UNL     1       7.593   4.438   2.435  0.00  0.00    -0.311 N 
ATOM     23  C   UNL     1       8.645   4.193   3.241  0.00  0.00    +0.245 C 
ATOM     24  O   UNL     1       8.521   4.286   4.447  0.00  0.00    -0.270 OA
ATOM     25  H   UNL     1       7.705   4.353   1.344  0.00  0.00    +0.149 HD
BRANCH  23  26
ATOM     26  C   UNL     1       9.946   3.811   2.661  0.00  0.00    +0.044 A 
ATOM     27  C   UNL     1      10.066   3.582   1.298  0.00  0.00    +0.013 A 
ATOM     28  C   UNL     1      11.290   3.228   0.745  0.00  0.00    +0.001 A 
ATOM     29  C   UNL     1      12.400   3.085   1.522  0.00  0.00    +0.008 A 
ATOM     30  C   UNL     1      12.324   3.302   2.909  0.00  0.00    -0.017 A 
ATOM     31  C   UNL     1      11.086   3.669   3.490  0.00  0.00    -0.006 A 
ATOM     32  C   UNL     1      11.012   3.885   4.873  0.00  0.00    +0.009 A 
ATOM     33  C   UNL     1      12.128   3.739   5.640  0.00  0.00    +0.001 A 
ATOM     34  C   UNL     1      13.347   3.378   5.070  0.00  0.00    +0.001 A 
ATOM     35  C   UNL     1      13.456   3.161   3.730  0.00  0.00    +0.008 A 
ENDBRANCH  23  26
ENDBRANCH  21  22
ENDBRANCH   5  21
TORSDOF 6
