REMARK  Name = ZINC09984668
REMARK  12 active torsions:
REMARK  status: ('A' for Active; 'I' for Inactive)
REMARK    1  A    between atoms: C_1  and  C_2
REMARK    2  A    between atoms: C_4  and  C_18
REMARK    3  A    between atoms: C_5  and  C_17
REMARK    4  A    between atoms: N_6  and  C_7
REMARK    5  A    between atoms: C_10  and  S_13
REMARK    6  A    between atoms: S_13  and  N_16
REMARK    7  A    between atoms: C_18  and  C_20
REMARK    8  A    between atoms: C_20  and  N_63
REMARK    9  A    between atoms: C_25  and  O_32
REMARK   10  A    between atoms: C_26  and  O_30
REMARK   11  A    between atoms: O_30  and  C_31
REMARK   12  A    between atoms: O_32  and  C_33
REMARK                            x       y       z     vdW  Elec       q    Type
REMARK                         _______ _______ _______ _____ _____    ______ ____
ROOT
ATOM      1  C   UNL     1      -2.072   1.292   6.387  0.00  0.00    +0.064 C 
ATOM      2  C   UNL     1      -2.974   2.451   6.049  0.00  0.00    +0.022 A 
ATOM      3  C   UNL     1      -3.805   3.067   6.907  0.00  0.00    +0.034 A 
ATOM      4  C   UNL     1      -4.477   4.128   6.145  0.00  0.00    +0.037 A 
ATOM      5  C   UNL     1      -3.970   4.053   4.861  0.00  0.00    +0.031 A 
ATOM      6  N   UNL     1      -3.078   3.044   4.822  0.00  0.00    -0.317 N 
ATOM      7  C   UNL     1      -4.350   4.943   3.706  0.00  0.00    +0.064 C 
ENDROOT
BRANCH   6   8
ATOM      8  C   UNL     1      -2.355   2.659   3.684  0.00  0.00    +0.047 A 
ATOM      9  C   UNL     1      -2.560   1.408   3.119  0.00  0.00    +0.028 A 
ATOM     10  C   UNL     1      -1.846   1.032   1.999  0.00  0.00    +0.030 A 
ATOM     11  C   UNL     1      -0.927   1.900   1.439  0.00  0.00    +0.105 A 
ATOM     12  C   UNL     1      -0.716   3.145   2.003  0.00  0.00    +0.030 A 
ATOM     13  C   UNL     1      -1.431   3.529   3.120  0.00  0.00    +0.028 A 
BRANCH  11  14
ATOM     14  S   UNL     1      -0.017   1.417   0.010  0.00  0.00    +0.056 S 
ATOM     15  O   UNL     1       0.002  -0.004   0.002  0.00  0.00    -0.153 OA
ATOM     16  O   UNL     1       1.172   2.195   0.003  0.00  0.00    -0.153 OA
BRANCH  14  17
ATOM     17  N   UNL     1      -0.897   1.885  -1.312  0.00  0.00    -0.204 NA
ATOM     18  H   UNL     1      -1.747   2.338  -1.194  0.00  0.00    +0.144 HD
ATOM     19  H   UNL     1      -0.563   1.708  -2.205  0.00  0.00    +0.144 HD
ENDBRANCH  14  17
ENDBRANCH  11  14
ENDBRANCH   6   8
BRANCH   4  20
ATOM     20  C   UNL     1      -5.477   5.075   6.644  0.00  0.00    +0.149 C 
ATOM     21  O   UNL     1      -5.952   5.905   5.898  0.00  0.00    -0.294 OA
BRANCH  20  22
ATOM     22  C   UNL     1      -5.915   5.018   8.085  0.00  0.00    +0.003 C 
BRANCH  22  32
ATOM     23  C   UNL     1      -7.210   6.181   9.771  0.00  0.00    -0.073 C 
ATOM     24  C   UNL     1      -7.955   7.495  10.008  0.00  0.00    +0.017 C 
ATOM     25  C   UNL     1      -9.115   7.609   9.052  0.00  0.00    -0.044 A 
ATOM     26  C   UNL     1     -10.110   8.535   9.329  0.00  0.00    +0.053 A 
ATOM     27  C   UNL     1     -11.188   8.681   8.475  0.00  0.00    +0.162 A 
ATOM     28  C   UNL     1     -11.274   7.891   7.332  0.00  0.00    +0.162 A 
ATOM     29  C   UNL     1     -10.281   6.967   7.061  0.00  0.00    +0.051 A 
ATOM     30  C   UNL     1      -9.201   6.824   7.922  0.00  0.00    -0.057 A 
ATOM     31  C   UNL     1      -8.148   5.801   7.583  0.00  0.00    -0.042 C 
ATOM     32  N   UNL     1      -6.911   6.086   8.328  0.00  0.00    +0.387 N 
ATOM     33  H   UNL     1      -6.525   6.982   8.006  0.00  0.00    -0.081 HD
BRANCH  28  34
ATOM     34  O   UNL     1     -12.329   8.027   6.485  0.00  0.00    -0.491 OA
ATOM     35  C   UNL     1     -12.349   7.182   5.333  0.00  0.00    +0.277 C 
ENDBRANCH  28  34
BRANCH  27  36
ATOM     36  O   UNL     1     -12.160   9.591   8.751  0.00  0.00    -0.491 OA
ATOM     37  C   UNL     1     -12.005  10.366   9.941  0.00  0.00    +0.277 C 
ENDBRANCH  27  36
ENDBRANCH  22  32
ENDBRANCH  20  22
ENDBRANCH   4  20
TORSDOF 8
