REMARK  Name = ZINC04672139
REMARK  5 active torsions:
REMARK  status: ('A' for Active; 'I' for Inactive)
REMARK    1  A    between atoms: C_1  and  C_2
REMARK    2  A    between atoms: C_10  and  C_11
REMARK    3  A    between atoms: N_13  and  C_14
REMARK    4  A    between atoms: C_19  and  C_24
REMARK    5  A    between atoms: C_21  and  C_23
REMARK                            x       y       z     vdW  Elec       q    Type
REMARK                         _______ _______ _______ _____ _____    ______ ____
ROOT
ATOM      1  C   UNL     1       0.383   4.229  -0.725  0.00  0.00    +0.066 C 
ATOM      2  C   UNL     1       1.566   3.373  -0.353  0.00  0.00    +0.047 A 
ATOM      3  C   UNL     1       1.384   2.069   0.000  0.00  0.00    -0.005 A 
ATOM      4  C   UNL     1       2.492   1.294   0.337  0.00  0.00    +0.049 A 
ATOM      5  N   UNL     1       3.699   1.832   0.314  0.00  0.00    -0.232 NA
ATOM      6  C   UNL     1       3.884   3.105  -0.029  0.00  0.00    +0.168 A 
ATOM      7  N   UNL     1       2.822   3.895  -0.368  0.00  0.00    -0.218 N 
ATOM      8  N   UNL     1       3.310   5.169  -0.680  0.00  0.00    -0.172 NA
ATOM      9  C   UNL     1       4.610   5.184  -0.544  0.00  0.00    +0.150 A 
ATOM     10  C   UNL     1       5.036   3.908  -0.133  0.00  0.00    +0.100 A 
ATOM     11  C   UNL     1       2.372  -0.154   0.732  0.00  0.00    +0.056 C 
ATOM     12  C   UNL     1       0.932  -0.484   1.122  0.00  0.00    +0.006 C 
ATOM     13  C   UNL     1       0.002  -0.004   0.002  0.00  0.00    +0.005 C 
ATOM     14  C   UNL     1      -0.019   1.524   0.010  0.00  0.00    +0.039 C 
ENDROOT
BRANCH  10  15
ATOM     15  C   UNL     1       6.416   3.493   0.134  0.00  0.00    +0.249 C 
ATOM     16  O   UNL     1       6.651   2.351   0.485  0.00  0.00    -0.270 OA
ATOM     17  N   UNL     1       7.425   4.375  -0.008  0.00  0.00    -0.308 N 
ATOM     18  H   UNL     1       7.237   5.285  -0.288  0.00  0.00    +0.149 HD
BRANCH  17  19
ATOM     19  C   UNL     1       8.804   3.960   0.259  0.00  0.00    +0.076 C 
ATOM     20  C   UNL     1       9.392   3.308  -0.994  0.00  0.00    +0.022 C 
ATOM     21  C   UNL     1      10.833   2.875  -0.715  0.00  0.00    +0.002 C 
ATOM     22  C   UNL     1      11.669   4.098  -0.336  0.00  0.00    +0.003 C 
ATOM     23  C   UNL     1      11.081   4.750   0.917  0.00  0.00    -0.009 C 
ATOM     24  C   UNL     1       9.641   5.184   0.638  0.00  0.00    +0.009 C 
ATOM     25  C   UNL     1       9.052   5.836   1.891  0.00  0.00    +0.009 C 
ATOM     26  C   UNL     1      11.918   5.974   1.295  0.00  0.00    +0.008 C 
ENDBRANCH  17  19
ENDBRANCH  10  15
TORSDOF 2
