REMARK  Name = ZINC44657267
REMARK  7 active torsions:
REMARK  status: ('A' for Active; 'I' for Inactive)
REMARK    1  A    between atoms: C_7  and  C_10
REMARK    2  A    between atoms: C_13  and  S_23
REMARK    3  A    between atoms: N_15  and  C_16
REMARK    4  A    between atoms: C_16  and  C_17
REMARK    5  A    between atoms: S_23  and  C_24
REMARK    6  A    between atoms: C_24  and  C_25
REMARK    7  A    between atoms: N_30  and  C_31
REMARK                            x       y       z     vdW  Elec       q    Type
REMARK                         _______ _______ _______ _____ _____    ______ ____
ROOT
ATOM      1  C   UNL     1       0.800  -3.028   0.042  0.00  0.00    +0.147 C 
ATOM      2  N   UNL     1      -0.489  -2.835   0.139  0.00  0.00    -0.169 NA
ATOM      3  N   UNL     1      -1.192  -4.043   0.057  0.00  0.00    -0.237 N 
ATOM      4  C   UNL     1      -0.183  -5.102  -0.113  0.00  0.00    +0.237 C 
ATOM      5  N   UNL     1       1.101  -4.382  -0.122  0.00  0.00    -0.283 N 
ATOM      6  H   UNL     1      -2.154  -4.159   0.102  0.00  0.00    +0.171 HD
ENDROOT
BRANCH   1  13
ATOM      7  C   UNL     1       0.410   1.489   0.222  0.00  0.00    +0.001 A 
ATOM      8  C   UNL     1       1.637   2.155   0.257  0.00  0.00    +0.002 A 
ATOM      9  C   UNL     1       2.815   1.485   0.237  0.00  0.00    +0.026 A 
ATOM     10  C   UNL     1       2.820   0.067   0.179  0.00  0.00    +0.043 A 
ATOM     11  N   UNL     1       3.811  -0.802   0.150  0.00  0.00    -0.380 N 
ATOM     12  C   UNL     1       3.263  -2.160   0.092  0.00  0.00    +0.152 C 
ATOM     13  C   UNL     1       1.759  -2.004   0.089  0.00  0.00    +0.022 C 
ATOM     14  C   UNL     1       1.524  -0.630   0.143  0.00  0.00    +0.006 A 
ATOM     15  C   UNL     1       0.337   0.134   0.167  0.00  0.00    +0.010 A 
ATOM     16  H   UNL     1       4.755  -0.577   0.165  0.00  0.00    +0.160 HD
ENDBRANCH   1  13
BRANCH   5  17
ATOM     17  C   UNL     1       2.434  -4.971  -0.270  0.00  0.00    +0.140 C 
BRANCH  17  18
ATOM     18  C   UNL     1       2.843  -4.942  -1.744  0.00  0.00    +0.136 C 
ATOM     19  C   UNL     1       4.224  -5.619  -1.932  0.00  0.00    +0.035 C 
ATOM     20  C   UNL     1       4.138  -6.056  -3.420  0.00  0.00    +0.031 C 
ATOM     21  C   UNL     1       2.642  -6.402  -3.574  0.00  0.00    +0.160 C 
ATOM     22  O   UNL     1       1.930  -5.724  -2.531  0.00  0.00    -0.375 OA
ENDBRANCH  17  18
ENDBRANCH   5  17
BRANCH   4  23
ATOM     23  S   UNL     1      -0.255  -6.273   1.271  0.00  0.00    -0.109 S 
BRANCH  23  24
ATOM     24  C   UNL     1       0.041  -5.243   2.734  0.00  0.00    +0.168 C 
BRANCH  24  25
ATOM     25  C   UNL     1       0.007  -6.104   3.970  0.00  0.00    +0.230 C 
ATOM     26  O   UNL     1      -0.197  -7.295   3.874  0.00  0.00    -0.274 OA
ATOM     27  N   UNL     1       0.203  -5.550   5.183  0.00  0.00    -0.240 N 
ATOM     28  C   UNL     1       0.173  -6.320   6.289  0.00  0.00    +0.306 C 
ATOM     29  O   UNL     1      -0.032  -7.515   6.192  0.00  0.00    -0.252 OA
ATOM     30  N   UNL     1       0.369  -5.766   7.502  0.00  0.00    -0.296 N 
ATOM     31  H   UNL     1       0.366  -4.597   5.260  0.00  0.00    +0.159 HD
ATOM     32  H   UNL     1       0.532  -4.813   7.579  0.00  0.00    +0.151 HD
BRANCH  30  33
ATOM     33  C   UNL     1       0.336  -6.604   8.703  0.00  0.00    +0.075 C 
ATOM     34  C   UNL     1      -0.422  -6.066   9.918  0.00  0.00    +0.024 C 
ATOM     35  C   UNL     1       1.107  -6.110   9.929  0.00  0.00    +0.024 C 
ENDBRANCH  30  33
ENDBRANCH  24  25
ENDBRANCH  23  24
ENDBRANCH   4  23
TORSDOF 7
