REMARK  Name = ZINC19110802
REMARK  11 active torsions:
REMARK  status: ('A' for Active; 'I' for Inactive)
REMARK    1  A    between atoms: C_1  and  C_2
REMARK    2  A    between atoms: C_2  and  C_3
REMARK    3  A    between atoms: C_2  and  C_4
REMARK    4  A    between atoms: C_2  and  N_6
REMARK    5  A    between atoms: C_4  and  O_5
REMARK    6  A    between atoms: C_7  and  C_9
REMARK    7  A    between atoms: C_9  and  O_10
REMARK    8  A    between atoms: O_10  and  C_11
REMARK    9  A    between atoms: C_14  and  C_30
REMARK   10  A    between atoms: C_16  and  C_17
REMARK   11  A    between atoms: C_17  and  N_18
REMARK                            x       y       z     vdW  Elec       q    Type
REMARK                         _______ _______ _______ _____ _____    ______ ____
ROOT
ATOM      1  C   UNL     1      -1.124  -0.710  -0.397  0.00  0.00    +0.126 A 
ATOM      2  C   UNL     1      -1.108  -2.098  -0.411  0.00  0.00    +0.046 A 
ATOM      3  C   UNL     1       0.025  -2.780  -0.018  0.00  0.00    +0.012 A 
ATOM      4  C   UNL     1       1.156  -2.074   0.389  0.00  0.00    -0.016 A 
ATOM      5  C   UNL     1       1.138  -0.680   0.396  0.00  0.00    +0.017 A 
ATOM      6  C   UNL     1       0.002  -0.004   0.002  0.00  0.00    +0.009 A 
ENDROOT
BRANCH   4   7
ATOM      7  C   UNL     1       2.375  -2.804   0.812  0.00  0.00    -0.003 A 
ATOM      8  C   UNL     1       3.583  -2.486   0.292  0.00  0.00    +0.055 A 
ATOM      9  S   UNL     1       4.696  -3.617   1.103  0.00  0.00    -0.096 S 
ATOM     10  C   UNL     1       3.525  -4.492   2.107  0.00  0.00    +0.020 A 
ATOM     11  C   UNL     1       2.292  -3.883   1.795  0.00  0.00    -0.003 A 
ATOM     12  C   UNL     1       1.151  -4.385   2.460  0.00  0.00    +0.009 A 
ATOM     13  C   UNL     1       1.258  -5.405   3.354  0.00  0.00    +0.001 A 
ATOM     14  C   UNL     1       2.483  -5.988   3.644  0.00  0.00    +0.001 A 
ATOM     15  C   UNL     1       3.622  -5.525   3.015  0.00  0.00    +0.015 A 
ENDBRANCH   4   7
BRANCH   1  16
ATOM     16  O   UNL     1      -2.244  -0.041  -0.780  0.00  0.00    -0.482 OA
BRANCH  16  17
ATOM     17  C   UNL     1      -3.366  -0.830  -1.178  0.00  0.00    +0.324 C 
BRANCH  17  19
ATOM     18  N   UNL     1      -5.676  -0.450  -1.978  0.00  0.00    -0.305 N 
ATOM     19  C   UNL     1      -4.506   0.077  -1.566  0.00  0.00    +0.251 C 
ATOM     20  O   UNL     1      -4.370   1.280  -1.507  0.00  0.00    -0.272 OA
ATOM     21  H   UNL     1      -5.799  -1.541  -2.032  0.00  0.00    +0.149 HD
BRANCH  18  23
ATOM     22  C   UNL     1      -7.171   1.304  -1.159  0.00  0.00    +0.033 C 
ATOM     23  C   UNL     1      -6.783   0.432  -2.355  0.00  0.00    +0.052 C 
ATOM     24  C   UNL     1      -6.350   1.327  -3.518  0.00  0.00    +0.033 C 
BRANCH  23  25
ATOM     25  C   UNL     1      -7.986  -0.412  -2.782  0.00  0.00    +0.181 C 
BRANCH  25  26
ATOM     26  O   UNL     1      -9.066   0.448  -3.149  0.00  0.00    -0.393 OA
ATOM     27  H   UNL     1     -10.021   0.018  -3.486  0.00  0.00    +0.209 HD
ENDBRANCH  25  26
ENDBRANCH  23  25
ENDBRANCH  18  23
ENDBRANCH  17  19
ENDBRANCH  16  17
ENDBRANCH   1  16
BRANCH   6  28
ATOM     28  C   UNL     1      -0.018   1.503   0.010  0.00  0.00    +0.123 C 
BRANCH  28  29
ATOM     29  N   UNL     1      -0.706   1.976   1.219  0.00  0.00    -0.295 NA
ATOM     30  C   UNL     1      -2.129   1.611   1.193  0.00  0.00    +0.103 C 
ATOM     31  C   UNL     1      -2.790   2.051   2.501  0.00  0.00    +0.122 C 
ATOM     32  N   UNL     1      -2.625   3.502   2.666  0.00  0.00    -0.314 N 
ATOM     33  C   UNL     1      -1.202   3.868   2.692  0.00  0.00    +0.122 C 
ATOM     34  C   UNL     1      -0.541   3.427   1.384  0.00  0.00    +0.103 C 
ATOM     35  C   UNL     1      -3.276   3.950   3.810  0.00  0.00    +0.099 A 
ATOM     36  C   UNL     1      -4.635   3.701   3.972  0.00  0.00    +0.042 A 
ATOM     37  C   UNL     1      -5.270   4.153   5.115  0.00  0.00    +0.005 A 
ATOM     38  C   UNL     1      -4.521   4.841   6.061  0.00  0.00    +0.018 A 
ATOM     39  C   UNL     1      -3.176   5.053   5.835  0.00  0.00    +0.084 A 
ATOM     40  N   UNL     1      -2.595   4.606   4.737  0.00  0.00    -0.350 N 
ATOM     41  H   UNL     1      -1.519   4.790   4.603  0.00  0.00    +0.166 HD
ENDBRANCH  28  29
ENDBRANCH   6  28
TORSDOF 9
