REMARK  Name = ZINC16953040
REMARK  18 active torsions:
REMARK  status: ('A' for Active; 'I' for Inactive)
REMARK    1  A    between atoms: C_1  and  C_2
REMARK    2  A    between atoms: C_2  and  C_37
REMARK    3  A    between atoms: N_3  and  C_4
REMARK    4  A    between atoms: C_5  and  N_14
REMARK    5  A    between atoms: C_7  and  S_12
REMARK    6  A    between atoms: N_8  and  C_11
REMARK    7  A    between atoms: S_12  and  C_13
REMARK    8  A    between atoms: N_14  and  C_15
REMARK    9  A    between atoms: C_17  and  O_33
REMARK   10  A    between atoms: C_19  and  O_29
REMARK   11  A    between atoms: C_21  and  O_25
REMARK   12  A    between atoms: O_25  and  C_26
REMARK   13  A    between atoms: C_26  and  C_28
REMARK   14  A    between atoms: O_29  and  C_30
REMARK   15  A    between atoms: C_30  and  C_32
REMARK   16  A    between atoms: O_33  and  C_34
REMARK   17  A    between atoms: C_34  and  C_36
REMARK   18  A    between atoms: C_37  and  C_39
REMARK                            x       y       z     vdW  Elec       q    Type
REMARK                         _______ _______ _______ _____ _____    ______ ____
ROOT
ATOM      1  N   UNL     1       1.717   5.553   0.753  0.00  0.00    -0.299 N 
ATOM      2  H   UNL     1       1.000   6.204   0.815  0.00  0.00    +0.150 HD
ENDROOT
BRANCH   1   4
ATOM      3  C   UNL     1       3.025   6.865   2.310  0.00  0.00    +0.168 A 
ATOM      4  C   UNL     1       2.870   5.731   1.476  0.00  0.00    +0.154 A 
ATOM      5  N   UNL     1       3.857   4.842   1.395  0.00  0.00    -0.206 NA
ATOM      6  C   UNL     1       4.979   4.977   2.073  0.00  0.00    +0.173 A 
ATOM      7  N   UNL     1       5.213   6.031   2.902  0.00  0.00    -0.289 N 
ATOM      8  C   UNL     1       4.279   6.994   3.060  0.00  0.00    +0.282 A 
ATOM      9  O   UNL     1       4.474   7.943   3.799  0.00  0.00    -0.265 OA
ATOM     10  C   UNL     1       6.484   6.121   3.627  0.00  0.00    +0.154 C 
BRANCH   3  13
ATOM     11  C   UNL     1       2.992   8.853   0.426  0.00  0.00    +0.069 C 
ATOM     12  C   UNL     1       1.981   8.761   1.540  0.00  0.00    +0.081 C 
ATOM     13  N   UNL     1       2.056   7.786   2.414  0.00  0.00    -0.240 NA
BRANCH  12  14
ATOM     14  C   UNL     1       0.956   9.722   1.643  0.00  0.00    +0.174 C 
ATOM     15  O   UNL     1       0.887  10.625   0.833  0.00  0.00    -0.291 OA
ATOM     16  C   UNL     1      -0.054   9.629   2.757  0.00  0.00    +0.093 C 
ENDBRANCH  12  14
ENDBRANCH   3  13
BRANCH   6  17
ATOM     17  S   UNL     1       6.227   3.745   1.899  0.00  0.00    -0.091 S 
ATOM     18  C   UNL     1       5.409   2.634   0.726  0.00  0.00    +0.093 C 
ENDBRANCH   6  17
ENDBRANCH   1   4
BRANCH   1  19
ATOM     19  C   UNL     1       1.568   4.380  -0.112  0.00  0.00    +0.249 C 
ATOM     20  C   UNL     1       0.108   3.918  -0.099  0.00  0.00    +0.267 C 
ATOM     21  C   UNL     1      -0.051   2.729  -1.052  0.00  0.00    +0.264 C 
ATOM     22  C   UNL     1       0.415   3.141  -2.451  0.00  0.00    +0.246 C 
ATOM     23  C   UNL     1       1.862   3.636  -2.373  0.00  0.00    +0.210 C 
ATOM     24  O   UNL     1       1.946   4.721  -1.448  0.00  0.00    -0.351 OA
BRANCH  22  25
ATOM     25  O   UNL     1       0.338   2.000  -3.345  0.00  0.00    -0.455 OA
BRANCH  25  26
ATOM     26  C   UNL     1       0.099   2.255  -4.641  0.00  0.00    +0.304 C 
ATOM     27  O   UNL     1      -0.042   3.394  -5.016  0.00  0.00    -0.251 OA
ATOM     28  C   UNL     1       0.005   1.119  -5.627  0.00  0.00    +0.136 C 
ENDBRANCH  25  26
ENDBRANCH  22  25
BRANCH  21  29
ATOM     29  O   UNL     1      -1.447   2.331  -1.102  0.00  0.00    -0.454 OA
BRANCH  29  30
ATOM     30  C   UNL     1      -1.703   1.036  -1.343  0.00  0.00    +0.304 C 
ATOM     31  O   UNL     1      -0.791   0.260  -1.505  0.00  0.00    -0.251 OA
ATOM     32  C   UNL     1      -3.127   0.549  -1.410  0.00  0.00    +0.136 C 
ENDBRANCH  29  30
ENDBRANCH  21  29
BRANCH  20  33
ATOM     33  O   UNL     1      -0.261   3.515   1.246  0.00  0.00    -0.453 OA
BRANCH  33  34
ATOM     34  C   UNL     1      -0.773   4.462   2.047  0.00  0.00    +0.304 C 
ATOM     35  O   UNL     1      -0.909   5.591   1.638  0.00  0.00    -0.251 OA
ATOM     36  C   UNL     1      -1.180   4.118   3.457  0.00  0.00    +0.136 C 
ENDBRANCH  33  34
ENDBRANCH  20  33
ENDBRANCH   1  19
TORSDOF 11
