REMARK  Name = ZINC12525197
REMARK  8 active torsions:
REMARK  status: ('A' for Active; 'I' for Inactive)
REMARK    1  A    between atoms: C_1  and  C_2
REMARK    2  A    between atoms: C_2  and  C_3
REMARK    3  A    between atoms: C_2  and  C_4
REMARK    4  A    between atoms: C_2  and  N_5
REMARK    5  A    between atoms: C_9  and  C_11
REMARK    6  A    between atoms: C_11  and  S_12
REMARK    7  A    between atoms: S_12  and  C_13
REMARK    8  A    between atoms: N_21  and  C_22
REMARK                            x       y       z     vdW  Elec       q    Type
REMARK                         _______ _______ _______ _____ _____    ______ ____
ROOT
ATOM      1  C   UNL     1       1.212   1.811   0.000  0.00  0.00    +0.171 A 
ATOM      2  N   UNL     1      -0.016   1.355   0.009  0.00  0.00    -0.222 NA
ATOM      3  C   UNL     1       0.002  -0.004   0.002  0.00  0.00    +0.090 A 
ATOM      4  C   UNL     1      -1.000  -0.977   0.006  0.00  0.00    +0.030 A 
ATOM      5  C   UNL     1      -0.658  -2.311  -0.005  0.00  0.00    +0.002 A 
ATOM      6  C   UNL     1       0.674  -2.696  -0.020  0.00  0.00    +0.002 A 
ATOM      7  C   UNL     1       1.676  -1.747  -0.024  0.00  0.00    +0.028 A 
ATOM      8  C   UNL     1       1.350  -0.400  -0.013  0.00  0.00    +0.070 A 
ATOM      9  N   UNL     1       2.095   0.768  -0.014  0.00  0.00    -0.316 N 
ENDROOT
BRANCH   9  10
ATOM     10  C   UNL     1       3.556   0.867  -0.026  0.00  0.00    +0.090 C 
ATOM     11  C   UNL     1       4.028   1.615   1.222  0.00  0.00    +0.025 C 
ATOM     12  C   UNL     1       5.554   1.718   1.209  0.00  0.00    +0.002 C 
ATOM     13  C   UNL     1       6.003   2.478  -0.041  0.00  0.00    +0.000 C 
ATOM     14  C   UNL     1       5.532   1.730  -1.289  0.00  0.00    +0.002 C 
ATOM     15  C   UNL     1       4.005   1.627  -1.276  0.00  0.00    +0.025 C 
ENDBRANCH   9  10
BRANCH   1  16
ATOM     16  S   UNL     1       1.658   3.516   0.005  0.00  0.00    -0.078 S 
BRANCH  16  17
ATOM     17  C   UNL     1       0.014   4.271   0.026  0.00  0.00    +0.173 C 
BRANCH  17  22
ATOM     18  N   UNL     1      -1.929   8.668   0.069  0.00  0.00    -0.294 N 
ATOM     19  C   UNL     1      -0.828   7.891   0.054  0.00  0.00    +0.306 C 
ATOM     20  O   UNL     1       0.275   8.401   0.046  0.00  0.00    -0.252 OA
ATOM     21  N   UNL     1      -0.951   6.549   0.048  0.00  0.00    -0.239 N 
ATOM     22  C   UNL     1       0.151   5.772   0.033  0.00  0.00    +0.231 C 
ATOM     23  O   UNL     1       1.251   6.281   0.024  0.00  0.00    -0.274 OA
ATOM     24  H   UNL     1      -2.928   8.207   0.076  0.00  0.00    +0.151 HD
ATOM     25  H   UNL     1      -1.949   6.088   0.055  0.00  0.00    +0.159 HD
BRANCH  18  27
ATOM     26  C   UNL     1      -1.044  10.577  -1.179  0.00  0.00    +0.031 C 
ATOM     27  C   UNL     1      -1.796  10.127   0.076  0.00  0.00    +0.028 C 
ATOM     28  C   UNL     1      -3.187  10.766   0.093  0.00  0.00    +0.031 C 
ATOM     29  C   UNL     1      -1.020  10.563   1.320  0.00  0.00    +0.031 C 
ENDBRANCH  18  27
ENDBRANCH  17  22
ENDBRANCH  16  17
ENDBRANCH   1  16
TORSDOF 5
