REMARK  Name = ZINC34759963
REMARK  8 active torsions:
REMARK  status: ('A' for Active; 'I' for Inactive)
REMARK    1  A    between atoms: C_1  and  C_2
REMARK    2  A    between atoms: C_3  and  C_36
REMARK    3  A    between atoms: C_7  and  N_21
REMARK    4  A    between atoms: C_9  and  S_11
REMARK    5  A    between atoms: S_11  and  C_12
REMARK    6  A    between atoms: C_12  and  C_13
REMARK    7  A    between atoms: N_24  and  C_27
REMARK    8  A    between atoms: C_27  and  C_28
REMARK                            x       y       z     vdW  Elec       q    Type
REMARK                         _______ _______ _______ _____ _____    ______ ____
ROOT
ATOM      1  C   UNL     1       0.022   1.503   0.007  0.00  0.00    +0.045 C 
ATOM      2  C   UNL     1       0.039  -0.004  -0.001  0.00  0.00    -0.028 A 
ATOM      3  C   UNL     1      -0.044  -0.676  -1.158  0.00  0.00    -0.008 A 
ATOM      4  S   UNL     1       0.016  -2.385  -0.651  0.00  0.00    -0.073 S 
ATOM      5  C   UNL     1       0.150  -2.149   1.101  0.00  0.00    +0.115 A 
ATOM      6  C   UNL     1       0.151  -0.744   1.244  0.00  0.00    +0.051 A 
ATOM      7  C   UNL     1       0.255  -0.264   2.579  0.00  0.00    +0.134 A 
ATOM      8  N   UNL     1       0.347  -1.131   3.574  0.00  0.00    -0.206 NA
ATOM      9  C   UNL     1       0.346  -2.443   3.368  0.00  0.00    +0.191 A 
ATOM     10  N   UNL     1       0.241  -2.948   2.146  0.00  0.00    -0.214 NA
ATOM     11  C   UNL     1      -0.160  -0.121  -2.554  0.00  0.00    +0.052 C 
ENDROOT
BRANCH   7  12
ATOM     12  N   UNL     1       0.261   1.095   2.835  0.00  0.00    -0.318 N 
ATOM     13  C   UNL     1      -0.976   1.799   3.209  0.00  0.00    +0.088 C 
ATOM     14  C   UNL     1      -0.702   2.623   4.472  0.00  0.00    -0.059 C 
ATOM     15  N   UNL     1       0.451   3.502   4.242  0.00  0.00    +0.387 N 
ATOM     16  C   UNL     1       1.659   2.697   4.026  0.00  0.00    -0.059 C 
ATOM     17  C   UNL     1       1.504   1.876   2.747  0.00  0.00    +0.088 C 
ATOM     18  H   UNL     1       0.279   4.074   3.428  0.00  0.00    -0.081 HD
BRANCH  15  19
ATOM     19  C   UNL     1       0.644   4.369   5.412  0.00  0.00    +0.019 C 
BRANCH  19  20
ATOM     20  C   UNL     1       1.748   5.355   5.130  0.00  0.00    +0.199 C 
ATOM     21  O   UNL     1       2.317   5.338   4.059  0.00  0.00    -0.278 OA
ATOM     22  N   UNL     1       2.103   6.257   6.067  0.00  0.00    -0.303 N 
ATOM     23  C   UNL     1       1.426   6.286   7.371  0.00  0.00    +0.107 C 
ATOM     24  C   UNL     1       2.483   6.204   8.476  0.00  0.00    +0.019 C 
ATOM     25  C   UNL     1       3.513   7.318   8.277  0.00  0.00    +0.003 C 
ATOM     26  C   UNL     1       4.210   7.135   6.927  0.00  0.00    +0.019 C 
ATOM     27  C   UNL     1       3.177   7.224   5.806  0.00  0.00    +0.107 C 
ENDBRANCH  19  20
ENDBRANCH  15  19
ENDBRANCH   7  12
BRANCH   9  28
ATOM     28  S   UNL     1       0.472  -3.534   4.746  0.00  0.00    -0.077 S 
BRANCH  28  29
ATOM     29  C   UNL     1       0.430  -5.188   4.002  0.00  0.00    +0.173 C 
BRANCH  29  30
ATOM     30  C   UNL     1       0.532  -6.229   5.086  0.00  0.00    +0.226 C 
ATOM     31  O   UNL     1       0.624  -5.889   6.247  0.00  0.00    -0.275 OA
ATOM     32  N   UNL     1       0.521  -7.538   4.766  0.00  0.00    -0.301 N 
ATOM     33  C   UNL     1       0.417  -7.966   3.364  0.00  0.00    +0.108 C 
ATOM     34  C   UNL     1       1.574  -8.920   3.052  0.00  0.00    +0.019 C 
ATOM     35  C   UNL     1       1.567 -10.070   4.062  0.00  0.00    +0.003 C 
ATOM     36  C   UNL     1       1.768  -9.513   5.473  0.00  0.00    +0.019 C 
ATOM     37  C   UNL     1       0.620  -8.566   5.812  0.00  0.00    +0.108 C 
ENDBRANCH  29  30
ENDBRANCH  28  29
ENDBRANCH   9  28
TORSDOF 6
