REMARK  Name = ZINC17214750
REMARK  10 active torsions:
REMARK  status: ('A' for Active; 'I' for Inactive)
REMARK    1  A    between atoms: C_1  and  C_2
REMARK    2  A    between atoms: C_2  and  C_4
REMARK    3  A    between atoms: C_8  and  N_10
REMARK    4  A    between atoms: C_11  and  C_13
REMARK    5  A    between atoms: C_13  and  N_26
REMARK    6  A    between atoms: N_26  and  N_27
REMARK    7  A    between atoms: N_27  and  C_28
REMARK    8  A    between atoms: C_28  and  C_29
REMARK    9  A    between atoms: C_28  and  C_30
REMARK   10  A    between atoms: C_28  and  C_31
REMARK                            x       y       z     vdW  Elec       q    Type
REMARK                         _______ _______ _______ _____ _____    ______ ____
ROOT
ATOM      1  C   UNL     1      -3.470  -6.412   0.196  0.00  0.00    +0.122 C 
ATOM      2  C   UNL     1      -4.617  -7.192   0.205  0.00  0.00    +0.134 C 
ATOM      3  C   UNL     1      -5.995  -6.622   0.221  0.00  0.00    +0.206 C 
ATOM      4  O   UNL     1      -6.266  -5.544  -0.275  0.00  0.00    -0.286 OA
ATOM      5  C   UNL     1      -7.009  -7.474   0.889  0.00  0.00    +0.065 A 
ATOM      6  C   UNL     1      -8.285  -6.972   1.145  0.00  0.00    +0.015 A 
ATOM      7  C   UNL     1      -9.225  -7.774   1.756  0.00  0.00    +0.001 A 
ATOM      8  C   UNL     1      -8.903  -9.074   2.111  0.00  0.00    +0.004 A 
ATOM      9  C   UNL     1      -7.644  -9.579   1.867  0.00  0.00    +0.047 A 
ATOM     10  C   UNL     1      -6.676  -8.784   1.258  0.00  0.00    +0.143 A 
ATOM     11  O   UNL     1      -5.438  -9.294   1.060  0.00  0.00    -0.421 OA
ATOM     12  C   UNL     1      -4.594  -8.680   0.193  0.00  0.00    +0.350 C 
ATOM     13  O   UNL     1      -3.861  -9.304  -0.549  0.00  0.00    -0.244 OA
ENDROOT
BRANCH   1  15
ATOM     14  N   UNL     1      -2.655  -4.220  -0.554  0.00  0.00    -0.280 N 
ATOM     15  C   UNL     1      -3.579  -4.931   0.122  0.00  0.00    +0.264 C 
ATOM     16  O   UNL     1      -4.500  -4.362   0.672  0.00  0.00    -0.268 OA
ATOM     17  H   UNL     1      -1.970  -4.678  -1.067  0.00  0.00    +0.155 HD
BRANCH  14  22
ATOM     18  C   UNL     1      -3.273  -0.773   0.599  0.00  0.00    +0.019 A 
ATOM     19  C   UNL     1      -2.730  -0.046  -0.465  0.00  0.00    +0.011 A 
ATOM     20  C   UNL     1      -2.172  -0.707  -1.539  0.00  0.00    +0.002 A 
ATOM     21  C   UNL     1      -2.147  -2.089  -1.569  0.00  0.00    +0.023 A 
ATOM     22  C   UNL     1      -2.683  -2.824  -0.517  0.00  0.00    +0.034 A 
ATOM     23  C   UNL     1      -3.242  -2.170   0.570  0.00  0.00    +0.034 A 
BRANCH  18  25
ATOM     24  C   UNL     1      -3.900   1.436   1.774  0.00  0.00    +0.091 C 
ATOM     25  C   UNL     1      -3.868  -0.071   1.747  0.00  0.00    +0.160 C 
ATOM     26  O   UNL     1      -4.334  -0.704   2.670  0.00  0.00    -0.292 OA
ENDBRANCH  18  25
ENDBRANCH  14  22
ENDBRANCH   1  15
BRANCH   1  27
ATOM     27  N   UNL     1      -2.244  -7.003   0.254  0.00  0.00    -0.275 N 
ATOM     28  H   UNL     1      -2.170  -7.970   0.226  0.00  0.00    +0.166 HD
BRANCH  27  29
ATOM     29  N   UNL     1      -1.120  -6.234   0.352  0.00  0.00    -0.237 NA
ATOM     30  H   UNL     1      -1.131  -5.682   1.197  0.00  0.00    +0.145 HD
BRANCH  29  31
ATOM     31  C   UNL     1       0.092  -7.062   0.281  0.00  0.00    +0.028 C 
ATOM     32  C   UNL     1       0.122  -7.807  -1.055  0.00  0.00    +0.029 C 
ATOM     33  C   UNL     1       1.328  -6.167   0.394  0.00  0.00    +0.029 C 
ATOM     34  C   UNL     1       0.087  -8.073   1.429  0.00  0.00    +0.029 C 
ENDBRANCH  29  31
ENDBRANCH  27  29
ENDBRANCH   1  27
TORSDOF 6
