REMARK  Name = ZINC63470032
REMARK  7 active torsions:
REMARK  status: ('A' for Active; 'I' for Inactive)
REMARK    1  A    between atoms: C_1  and  C_2
REMARK    2  A    between atoms: C_7  and  C_8
REMARK    3  A    between atoms: C_10  and  C_13
REMARK    4  A    between atoms: C_13  and  N_14
REMARK    5  A    between atoms: N_14  and  C_15
REMARK    6  A    between atoms: C_18  and  C_21
REMARK    7  A    between atoms: N_23  and  C_24
REMARK                            x       y       z     vdW  Elec       q    Type
REMARK                         _______ _______ _______ _____ _____    ______ ____
ROOT
ATOM      1  C   UNL     1       1.694  -0.298   7.969  0.00  0.00    +0.028 A 
ATOM      2  C   UNL     1       0.700  -0.656   8.876  0.00  0.00    +0.023 A 
ATOM      3  C   UNL     1       1.022  -0.893  10.193  0.00  0.00    +0.015 A 
ATOM      4  C   UNL     1       2.347  -0.774  10.620  0.00  0.00    +0.037 A 
ATOM      5  C   UNL     1       3.343  -0.414   9.707  0.00  0.00    +0.015 A 
ATOM      6  C   UNL     1       3.016  -0.184   8.390  0.00  0.00    +0.023 A 
ENDROOT
BRANCH   4   7
ATOM      7  C   UNL     1       2.695  -1.027  12.031  0.00  0.00    +0.244 C 
ATOM      8  O   UNL     1       1.828  -1.339  12.824  0.00  0.00    -0.270 OA
ATOM      9  N   UNL     1       3.974  -0.912  12.441  0.00  0.00    -0.308 N 
ATOM     10  H   UNL     1       4.666  -0.662  11.808  0.00  0.00    +0.149 HD
BRANCH   9  11
ATOM     11  C   UNL     1       4.319  -1.163  13.842  0.00  0.00    +0.073 C 
ATOM     12  C   UNL     1       4.097   0.112  14.659  0.00  0.00    +0.022 C 
ATOM     13  C   UNL     1       4.458  -0.150  16.122  0.00  0.00    +0.002 C 
ATOM     14  C   UNL     1       5.926  -0.568  16.218  0.00  0.00    +0.000 C 
ATOM     15  C   UNL     1       6.149  -1.843  15.402  0.00  0.00    +0.002 C 
ATOM     16  C   UNL     1       5.788  -1.580  13.938  0.00  0.00    +0.022 C 
ENDBRANCH   9  11
ENDBRANCH   4   7
BRANCH   1  17
ATOM     17  N   UNL     1       1.366  -0.059   6.639  0.00  0.00    -0.335 N 
ATOM     18  H   UNL     1       2.058   0.186   6.005  0.00  0.00    +0.147 HD
BRANCH  17  19
ATOM     19  C   UNL     1      -0.025  -0.178   6.195  0.00  0.00    +0.200 C 
BRANCH  19  22
ATOM     20  C   UNL     1      -0.122  -0.120   2.567  0.00  0.00    +0.202 A 
ATOM     21  N   UNL     1       0.006  -0.736   3.756  0.00  0.00    -0.190 NA
ATOM     22  C   UNL     1      -0.110   0.129   4.722  0.00  0.00    +0.245 A 
ATOM     23  O   UNL     1      -0.317   1.339   4.186  0.00  0.00    -0.336 OA
ATOM     24  N   UNL     1      -0.316   1.159   2.777  0.00  0.00    -0.056 NA
BRANCH  20  31
ATOM     25  C   UNL     1       2.011  -1.993   2.010  0.00  0.00    +0.044 C 
ATOM     26  C   UNL     1       0.975  -1.681   0.961  0.00  0.00    -0.040 A 
ATOM     27  C   UNL     1       1.035  -2.294  -0.274  0.00  0.00    +0.004 A 
ATOM     28  C   UNL     1       0.085  -2.008  -1.238  0.00  0.00    +0.000 A 
ATOM     29  C   UNL     1      -0.930  -1.107  -0.970  0.00  0.00    +0.001 A 
ATOM     30  C   UNL     1      -1.000  -0.489   0.262  0.00  0.00    +0.012 A 
ATOM     31  C   UNL     1      -0.048  -0.777   1.238  0.00  0.00    +0.025 A 
ENDBRANCH  20  31
ENDBRANCH  19  22
ENDBRANCH  17  19
ENDBRANCH   1  17
TORSDOF 6
