REMARK  Name = ZINC09697997
REMARK  9 active torsions:
REMARK  status: ('A' for Active; 'I' for Inactive)
REMARK    1  A    between atoms: C_1  and  C_2
REMARK    2  A    between atoms: C_2  and  O_3
REMARK    3  A    between atoms: O_3  and  C_4
REMARK    4  A    between atoms: C_9  and  N_10
REMARK    5  A    between atoms: C_15  and  N_16
REMARK    6  A    between atoms: C_15  and  N_68
REMARK    7  A    between atoms: C_19  and  C_23
REMARK    8  A    between atoms: C_19  and  C_30
REMARK    9  A    between atoms: C_23  and  C_24
REMARK                            x       y       z     vdW  Elec       q    Type
REMARK                         _______ _______ _______ _____ _____    ______ ____
ROOT
ATOM      1  N   UNL     1      -0.870   1.540   0.046  0.00  0.00    -0.241 N 
ATOM      2  C   UNL     1      -0.364   2.786   0.123  0.00  0.00    +0.250 C 
ATOM      3  O   UNL     1      -0.985   3.824   0.213  0.00  0.00    -0.272 OA
ATOM      4  C   UNL     1       1.142   2.622   0.068  0.00  0.00    +0.142 C 
ATOM      5  N   UNL     1       1.327   1.164  -0.038  0.00  0.00    -0.281 N 
ATOM      6  C   UNL     1       0.097   0.619  -0.040  0.00  0.00    +0.308 C 
ATOM      7  O   UNL     1      -0.112  -0.576  -0.116  0.00  0.00    -0.252 OA
ATOM      8  H   UNL     1       2.171   0.690  -0.095  0.00  0.00    +0.152 HD
ENDROOT
BRANCH   4   9
ATOM      9  C   UNL     1       1.782   3.148   1.327  0.00  0.00    -0.015 A 
ATOM     10  C   UNL     1       2.275   4.439   1.364  0.00  0.00    +0.006 A 
ATOM     11  C   UNL     1       2.859   4.922   2.520  0.00  0.00    +0.000 A 
ATOM     12  C   UNL     1       2.958   4.112   3.635  0.00  0.00    +0.000 A 
ATOM     13  C   UNL     1       2.470   2.820   3.596  0.00  0.00    +0.000 A 
ATOM     14  C   UNL     1       1.882   2.337   2.442  0.00  0.00    +0.006 A 
ENDBRANCH   4   9
BRANCH   1  15
ATOM     15  C   UNL     1      -2.302   1.230   0.059  0.00  0.00    +0.043 C 
BRANCH  15  21
ATOM     16  N   UNL     1      -4.273  -0.188   3.516  0.00  0.00    -0.331 N 
ATOM     17  C   UNL     1      -4.593   1.167   3.048  0.00  0.00    +0.087 C 
ATOM     18  C   UNL     1      -4.185   1.307   1.579  0.00  0.00    -0.057 C 
ATOM     19  C   UNL     1      -2.428  -0.324   1.912  0.00  0.00    -0.057 C 
ATOM     20  C   UNL     1      -2.835  -0.463   3.381  0.00  0.00    +0.087 C 
ATOM     21  N   UNL     1      -2.734   1.050   1.461  0.00  0.00    +0.392 N 
ATOM     22  H   UNL     1      -2.228   1.717   2.055  0.00  0.00    -0.079 HD
BRANCH  16  28
ATOM     23  C   UNL     1      -6.057  -0.368   5.140  0.00  0.00    +0.141 A 
ATOM     24  C   UNL     1      -6.472  -0.561   6.448  0.00  0.00    +0.047 A 
ATOM     25  C   UNL     1      -5.538  -0.750   7.449  0.00  0.00    +0.004 A 
ATOM     26  C   UNL     1      -4.188  -0.753   7.149  0.00  0.00    +0.002 A 
ATOM     27  C   UNL     1      -3.766  -0.567   5.846  0.00  0.00    +0.027 A 
ATOM     28  C   UNL     1      -4.697  -0.377   4.836  0.00  0.00    +0.072 A 
BRANCH  23  29
ATOM     29  O   UNL     1      -6.975  -0.177   4.155  0.00  0.00    -0.490 OA
BRANCH  29  31
ATOM     30  C   UNL     1      -9.227   0.048   3.307  0.00  0.00    +0.048 C 
ATOM     31  C   UNL     1      -8.351  -0.180   4.540  0.00  0.00    +0.226 C 
ENDBRANCH  29  31
ENDBRANCH  23  29
ENDBRANCH  16  28
ENDBRANCH  15  21
ENDBRANCH   1  15
BRANCH   4  32
ATOM     32  C   UNL     1       1.715   3.329  -1.162  0.00  0.00    +0.075 C 
BRANCH  32  33
ATOM     33  C   UNL     1       1.022   2.823  -2.401  0.00  0.00    -0.045 A 
ATOM     34  C   UNL     1       1.532   1.734  -3.082  0.00  0.00    +0.004 A 
ATOM     35  C   UNL     1       0.893   1.267  -4.216  0.00  0.00    +0.000 A 
ATOM     36  C   UNL     1      -0.249   1.895  -4.674  0.00  0.00    +0.000 A 
ATOM     37  C   UNL     1      -0.756   2.988  -3.996  0.00  0.00    +0.000 A 
ATOM     38  C   UNL     1      -0.120   3.452  -2.859  0.00  0.00    +0.004 A 
ENDBRANCH  32  33
ENDBRANCH   4  32
TORSDOF 8
