REMARK  Name = ZINC00092728
REMARK  2 active torsions:
REMARK  status: ('A' for Active; 'I' for Inactive)
REMARK    1  A    between atoms: C_1  and  C_2
REMARK    2  A    between atoms: C_3  and  C_12
REMARK                            x       y       z     vdW  Elec       q    Type
REMARK                         _______ _______ _______ _____ _____    ______ ____
ROOT
ATOM      1  C   UNL     1       3.567   4.092  -0.280  0.00  0.00    +0.032 C 
ATOM      2  C   UNL     1       4.244   4.856  -1.220  0.00  0.00    +0.143 C 
ATOM      3  C   UNL     1       3.584   5.924  -2.013  0.00  0.00    +0.349 C 
ATOM      4  O   UNL     1       2.431   5.838  -2.389  0.00  0.00    -0.245 OA
ATOM      5  O   UNL     1       4.367   7.009  -2.284  0.00  0.00    -0.418 OA
ATOM      6  C   UNL     1       5.709   6.704  -2.756  0.00  0.00    +0.260 C 
ATOM      7  C   UNL     1       5.625   6.031  -4.127  0.00  0.00    +0.093 C 
ATOM      8  C   UNL     1       7.035   5.712  -4.626  0.00  0.00    +0.008 C 
ATOM      9  C   UNL     1       7.841   7.007  -4.741  0.00  0.00    +0.000 C 
ATOM     10  C   UNL     1       7.925   7.680  -3.370  0.00  0.00    +0.008 C 
ATOM     11  C   UNL     1       6.514   7.999  -2.871  0.00  0.00    +0.093 C 
ATOM     12  O   UNL     1       6.370   5.808  -1.818  0.00  0.00    -0.418 OA
ATOM     13  C   UNL     1       5.685   4.668  -1.521  0.00  0.00    +0.349 C 
ATOM     14  O   UNL     1       6.218   3.574  -1.502  0.00  0.00    -0.245 OA
ENDROOT
BRANCH   1  17
ATOM     15  C   UNL     1       1.168   2.138  -0.507  0.00  0.00    +0.064 C 
ATOM     16  C   UNL     1       1.136   3.567  -0.029  0.00  0.00    +0.021 A 
ATOM     17  C   UNL     1       2.233   4.405   0.055  0.00  0.00    +0.004 A 
ATOM     18  C   UNL     1       1.726   5.694   0.568  0.00  0.00    +0.007 A 
ATOM     19  C   UNL     1       2.320   6.916   0.867  0.00  0.00    +0.010 A 
ATOM     20  C   UNL     1       1.547   7.953   1.342  0.00  0.00    +0.001 A 
ATOM     21  C   UNL     1       0.183   7.780   1.528  0.00  0.00    +0.002 A 
ATOM     22  C   UNL     1      -0.418   6.576   1.231  0.00  0.00    +0.026 A 
ATOM     23  C   UNL     1       0.346   5.518   0.750  0.00  0.00    +0.047 A 
ATOM     24  N   UNL     1       0.035   4.224   0.379  0.00  0.00    -0.358 N 
ATOM     25  H   UNL     1      -0.856   3.842   0.408  0.00  0.00    +0.166 HD
ENDBRANCH   1  17
TORSDOF 1
