REMARK  Name = ZINC35329205
REMARK  13 active torsions:
REMARK  status: ('A' for Active; 'I' for Inactive)
REMARK    1  A    between atoms: C_1  and  C_2
REMARK    2  A    between atoms: C_2  and  S_3
REMARK    3  A    between atoms: S_3  and  C_4
REMARK    4  A    between atoms: C_4  and  C_5
REMARK    5  A    between atoms: C_5  and  O_6
REMARK    6  A    between atoms: O_6  and  C_7
REMARK    7  A    between atoms: C_7  and  C_9
REMARK    8  A    between atoms: C_10  and  C_36
REMARK    9  A    between atoms: C_14  and  C_16
REMARK   10  A    between atoms: C_26  and  C_32
REMARK   11  A    between atoms: C_28  and  C_31
REMARK   12  A    between atoms: C_32  and  O_34
REMARK   13  A    between atoms: O_34  and  C_35
REMARK                            x       y       z     vdW  Elec       q    Type
REMARK                         _______ _______ _______ _____ _____    ______ ____
ROOT
ATOM      1  C   UNL     1       2.127  -6.582  -3.343  0.00  0.00    +0.065 C 
ATOM      2  C   UNL     1       2.478  -7.272  -4.443  0.00  0.00    +0.016 C 
ATOM      3  N   UNL     1       2.335  -8.630  -4.483  0.00  0.00    -0.321 N 
ATOM      4  C   UNL     1       1.495  -9.271  -3.612  0.00  0.00    +0.016 C 
ATOM      5  C   UNL     1       1.097  -8.664  -2.474  0.00  0.00    +0.025 C 
ATOM      6  C   UNL     1       1.584  -7.277  -2.129  0.00  0.00    +0.094 C 
ATOM      7  C   UNL     1       0.222  -9.304  -1.579  0.00  0.00    +0.176 C 
ATOM      8  O   UNL     1      -0.112  -8.733  -0.559  0.00  0.00    -0.291 OA
ATOM      9  C   UNL     1      -0.309 -10.683  -1.860  0.00  0.00    +0.171 C 
ATOM     10  C   UNL     1      -0.367 -10.897  -3.376  0.00  0.00    +0.013 C 
ATOM     11  C   UNL     1       1.032 -10.666  -3.952  0.00  0.00    +0.055 C 
ATOM     12  C   UNL     1      -0.821 -12.326  -3.677  0.00  0.00    +0.009 C 
ATOM     13  C   UNL     1       3.031  -6.541  -5.639  0.00  0.00    +0.061 C 
ATOM     14  H   UNL     1       2.834  -9.146  -5.136  0.00  0.00    +0.152 HD
ENDROOT
BRANCH   6  15
ATOM     15  C   UNL     1       2.670  -7.374  -1.088  0.00  0.00    -0.015 A 
ATOM     16  C   UNL     1       3.843  -8.047  -1.373  0.00  0.00    +0.006 A 
ATOM     17  C   UNL     1       4.839  -8.136  -0.418  0.00  0.00    +0.002 A 
ATOM     18  C   UNL     1       4.663  -7.552   0.822  0.00  0.00    +0.021 A 
ATOM     19  C   UNL     1       3.489  -6.878   1.109  0.00  0.00    +0.060 A 
ATOM     20  C   UNL     1       2.494  -6.784   0.151  0.00  0.00    +0.063 A 
ATOM     21 CL   UNL     1       1.024  -5.932   0.507  0.00  0.00    -0.082 Cl
ATOM     22 CL   UNL     1       3.267  -6.146   2.667  0.00  0.00    -0.082 Cl
ENDBRANCH   6  15
BRANCH   1  23
ATOM     23  C   UNL     1       2.277  -5.176  -3.328  0.00  0.00    +0.338 C 
ATOM     24  O   UNL     1       1.298  -4.459  -3.422  0.00  0.00    -0.245 OA
BRANCH  23  25
ATOM     25  O   UNL     1       3.505  -4.630  -3.211  0.00  0.00    -0.460 OA
BRANCH  25  26
ATOM     26  C   UNL     1       3.583  -3.203  -3.203  0.00  0.00    +0.243 C 
BRANCH  26  27
ATOM     27  C   UNL     1       5.044  -2.772  -3.064  0.00  0.00    +0.110 C 
BRANCH  27  28
ATOM     28  S   UNL     1       5.143  -0.961  -3.054  0.00  0.00    -0.158 S 
BRANCH  28  30
ATOM     29  C   UNL     1       7.144   0.894  -2.862  0.00  0.00    +0.015 C 
ATOM     30  C   UNL     1       6.916  -0.619  -2.884  0.00  0.00    +0.066 C 
ENDBRANCH  28  30
ENDBRANCH  27  28
ENDBRANCH  26  27
ENDBRANCH  25  26
ENDBRANCH  23  25
ENDBRANCH   1  23
BRANCH   9  31
ATOM     31  C   UNL     1      -1.693 -10.819  -1.277  0.00  0.00    +0.318 C 
ATOM     32  O   UNL     1      -2.630 -11.070  -1.997  0.00  0.00    -0.250 OA
BRANCH  31  33
ATOM     33  O   UNL     1      -1.883 -10.662   0.042  0.00  0.00    -0.467 OA
ATOM     34  C   UNL     1      -3.221 -10.805   0.526  0.00  0.00    +0.280 C 
ENDBRANCH  31  33
ENDBRANCH   9  31
TORSDOF 9
