REMARK  Name = ZINC35917901
REMARK  13 active torsions:
REMARK  status: ('A' for Active; 'I' for Inactive)
REMARK    1  A    between atoms: C_1  and  C_2
REMARK    2  A    between atoms: C_5  and  C_8
REMARK    3  A    between atoms: N_11  and  C_26
REMARK    4  A    between atoms: C_13  and  C_15
REMARK    5  A    between atoms: C_15  and  N_16
REMARK    6  A    between atoms: N_16  and  C_17
REMARK    7  A    between atoms: C_17  and  C_18
REMARK    8  A    between atoms: C_18  and  C_19
REMARK    9  A    between atoms: C_18  and  C_20
REMARK   10  A    between atoms: C_21  and  C_23
REMARK   11  A    between atoms: C_23  and  O_24
REMARK   12  A    between atoms: O_24  and  C_25
REMARK   13  A    between atoms: C_26  and  C_27
REMARK                            x       y       z     vdW  Elec       q    Type
REMARK                         _______ _______ _______ _____ _____    ______ ____
ROOT
ATOM      1  C   UNL     1      -0.154  -3.880  -0.037  0.00  0.00    +0.005 C 
ATOM      2  C   UNL     1       1.100  -4.137   0.836  0.00  0.00    -0.070 C 
ATOM      3  N   UNL     1       0.887  -5.518   1.339  0.00  0.00    +0.383 N 
ATOM      4  C   UNL     1      -0.556  -5.618   1.643  0.00  0.00    -0.073 C 
ATOM      5  C   UNL     1      -1.280  -4.586   0.753  0.00  0.00    -0.005 C 
ATOM      6  H   UNL     1       1.141  -6.189   0.629  0.00  0.00    -0.081 HD
ENDROOT
BRANCH   1  11
ATOM      7  C   UNL     1      -1.214   1.784  -0.480  0.00  0.00    +0.044 C 
ATOM      8  C   UNL     1      -0.937   0.307  -0.364  0.00  0.00    -0.050 A 
ATOM      9  C   UNL     1      -0.768  -0.456  -1.505  0.00  0.00    +0.003 A 
ATOM     10  C   UNL     1      -0.514  -1.811  -1.399  0.00  0.00    +0.004 A 
ATOM     11  C   UNL     1      -0.429  -2.403  -0.152  0.00  0.00    -0.046 A 
ATOM     12  C   UNL     1      -0.598  -1.640   0.988  0.00  0.00    +0.004 A 
ATOM     13  C   UNL     1      -0.848  -0.284   0.882  0.00  0.00    +0.003 A 
ENDBRANCH   1  11
BRANCH   5  14
ATOM     14  C   UNL     1      -2.242  -5.288  -0.208  0.00  0.00    +0.110 C 
BRANCH  14  15
ATOM     15  N   UNL     1      -3.379  -5.823   0.545  0.00  0.00    -0.299 N 
ATOM     16  C   UNL     1      -3.381  -7.112   0.938  0.00  0.00    +0.241 C 
ATOM     17  O   UNL     1      -2.405  -7.806   0.745  0.00  0.00    -0.273 OA
BRANCH  15  18
ATOM     18  C   UNL     1      -4.515  -4.957   0.870  0.00  0.00    +0.110 C 
BRANCH  18  19
ATOM     19  C   UNL     1      -5.551  -5.032  -0.254  0.00  0.00    +0.000 C 
ATOM     20  C   UNL     1      -6.791  -4.226   0.141  0.00  0.00    +0.009 C 
ATOM     21  C   UNL     1      -4.955  -4.452  -1.538  0.00  0.00    +0.009 C 
ENDBRANCH  18  19
ENDBRANCH  15  18
BRANCH  16  22
ATOM     22  C   UNL     1      -4.595  -7.691   1.617  0.00  0.00    +0.255 C 
BRANCH  22  23
ATOM     23  O   UNL     1      -4.354  -9.063   1.935  0.00  0.00    -0.374 OA
ATOM     24  C   UNL     1      -5.449  -9.710   2.586  0.00  0.00    +0.194 C 
ENDBRANCH  22  23
ENDBRANCH  16  22
ENDBRANCH  14  15
ENDBRANCH   5  14
BRANCH   3  25
ATOM     25  C   UNL     1       1.678  -5.742   2.556  0.00  0.00    -0.042 C 
BRANCH  25  26
ATOM     26  C   UNL     1       3.146  -5.704   2.216  0.00  0.00    -0.057 A 
ATOM     27  C   UNL     1       3.810  -6.859   1.849  0.00  0.00    +0.009 A 
ATOM     28  C   UNL     1       5.130  -6.791   1.549  0.00  0.00    +0.045 A 
ATOM     29  S   UNL     1       5.473  -5.055   1.784  0.00  0.00    -0.105 S 
ATOM     30  C   UNL     1       3.833  -4.537   2.260  0.00  0.00    +0.047 A 
ENDBRANCH  25  26
ENDBRANCH   3  25
TORSDOF 9
