REMARK  Name = ZINC33446354
REMARK  4 active torsions:
REMARK  status: ('A' for Active; 'I' for Inactive)
REMARK    1  A    between atoms: C_4  and  S_7
REMARK    2  A    between atoms: S_7  and  N_10
REMARK    3  A    between atoms: N_12  and  S_13
REMARK    4  A    between atoms: S_13  and  C_16
REMARK                            x       y       z     vdW  Elec       q    Type
REMARK                         _______ _______ _______ _____ _____    ______ ____
ROOT
ATOM      1  N   UNL     1       4.422  -1.144   1.510  0.00  0.00    -0.224 N 
ATOM      2  C   UNL     1       3.635  -1.913   2.334  0.00  0.00    +0.245 C 
ATOM      3  N   UNL     1       2.506  -2.393   1.895  0.00  0.00    -0.091 NA
ATOM      4  N   UNL     1       4.041  -2.177   3.625  0.00  0.00    -0.278 N 
ATOM      5  C   UNL     1       5.174  -1.572   4.130  0.00  0.00    +0.304 A 
ATOM      6  N   UNL     1       5.860  -0.640   3.521  0.00  0.00    -0.193 NA
ATOM      7  C   UNL     1       6.907  -0.281   4.313  0.00  0.00    +0.111 A 
ATOM      8  C   UNL     1       7.945   0.643   4.178  0.00  0.00    +0.031 A 
ATOM      9  C   UNL     1       8.876   0.776   5.185  0.00  0.00    +0.002 A 
ATOM     10  C   UNL     1       8.787  -0.002   6.330  0.00  0.00    +0.004 A 
ATOM     11  C   UNL     1       7.766  -0.918   6.476  0.00  0.00    +0.048 A 
ATOM     12  C   UNL     1       6.821  -1.065   5.473  0.00  0.00    +0.157 A 
ATOM     13  O   UNL     1       5.729  -1.849   5.323  0.00  0.00    -0.423 OA
ATOM     14  H   UNL     1       5.232  -0.736   1.855  0.00  0.00    +0.191 HD
ATOM     15  H   UNL     1       3.530  -2.789   4.178  0.00  0.00    +0.173 HD
ENDROOT
BRANCH   1  16
ATOM     16  S   UNL     1       3.988  -0.914  -0.071  0.00  0.00    +0.080 S 
ATOM     17  O   UNL     1       3.688  -2.197  -0.601  0.00  0.00    -0.148 OA
ATOM     18  O   UNL     1       4.973  -0.065  -0.644  0.00  0.00    -0.148 OA
BRANCH  16  22
ATOM     19  C   UNL     1       0.111   1.423  -0.070  0.00  0.00    +0.000 A 
ATOM     20  C   UNL     1       1.321   2.092  -0.089  0.00  0.00    +0.002 A 
ATOM     21  C   UNL     1       2.505   1.378  -0.090  0.00  0.00    +0.029 A 
ATOM     22  C   UNL     1       2.479  -0.004  -0.070  0.00  0.00    +0.110 A 
ATOM     23  C   UNL     1       1.269  -0.672  -0.049  0.00  0.00    +0.029 A 
ATOM     24  C   UNL     1       0.085   0.042  -0.051  0.00  0.00    +0.002 A 
ENDBRANCH  16  22
ENDBRANCH   1  16
BRANCH   3  25
ATOM     25  S   UNL     1       1.558  -3.320   2.887  0.00  0.00    +0.102 S 
ATOM     26  O   UNL     1       2.284  -4.515   3.141  0.00  0.00    -0.146 OA
ATOM     27  O   UNL     1       1.107  -2.466   3.930  0.00  0.00    -0.146 OA
BRANCH  25  28
ATOM     28  C   UNL     1       0.132  -3.783   1.962  0.00  0.00    +0.113 A 
ATOM     29  C   UNL     1      -0.991  -2.977   1.974  0.00  0.00    +0.029 A 
ATOM     30  C   UNL     1      -2.110  -3.340   1.248  0.00  0.00    +0.002 A 
ATOM     31  C   UNL     1      -2.105  -4.509   0.510  0.00  0.00    +0.000 A 
ATOM     32  C   UNL     1      -0.982  -5.315   0.497  0.00  0.00    +0.002 A 
ATOM     33  C   UNL     1       0.139  -4.949   1.220  0.00  0.00    +0.029 A 
ENDBRANCH  25  28
ENDBRANCH   3  25
TORSDOF 4
