REMARK  Name = ZINC67471689
REMARK  10 active torsions:
REMARK  status: ('A' for Active; 'I' for Inactive)
REMARK    1  A    between atoms: C_1  and  C_2
REMARK    2  A    between atoms: C_4  and  C_30
REMARK    3  A    between atoms: C_6  and  O_28
REMARK    4  A    between atoms: C_7  and  C_8
REMARK    5  A    between atoms: C_8  and  N_9
REMARK    6  A    between atoms: N_12  and  C_13
REMARK    7  A    between atoms: C_13  and  C_15
REMARK    8  A    between atoms: C_13  and  C_16
REMARK    9  A    between atoms: C_20  and  C_22
REMARK   10  A    between atoms: O_28  and  C_29
REMARK                            x       y       z     vdW  Elec       q    Type
REMARK                         _______ _______ _______ _____ _____    ______ ____
ROOT
ATOM      1  N   UNL     1      -1.354   0.215   2.954  0.00  0.00    -0.295 N 
ATOM      2  C   UNL     1      -1.598   0.844   4.121  0.00  0.00    +0.300 C 
ATOM      3  O   UNL     1      -0.673   1.233   4.807  0.00  0.00    -0.253 OA
ATOM      4  N   UNL     1      -2.868   1.040   4.528  0.00  0.00    -0.290 N 
ATOM      5  H   UNL     1      -2.093  -0.096   2.407  0.00  0.00    +0.151 HD
ATOM      6  H   UNL     1      -3.606   0.730   3.981  0.00  0.00    +0.151 HD
ENDROOT
BRANCH   4   7
ATOM      7  C   UNL     1      -3.133   1.724   5.796  0.00  0.00    +0.135 C 
ATOM      8  C   UNL     1      -3.125   3.237   5.572  0.00  0.00    +0.036 C 
BRANCH   7   9
ATOM      9  C   UNL     1      -4.480   1.301   6.323  0.00  0.00    +0.105 A 
ATOM     10  N   UNL     1      -5.535   0.924   5.567  0.00  0.00    -0.348 N 
ATOM     11  H   UNL     1      -5.560   0.877   4.598  0.00  0.00    +0.167 HD
ATOM     12  C   UNL     1      -6.560   0.620   6.418  0.00  0.00    +0.110 A 
ATOM     13  C   UNL     1      -6.095   0.823   7.678  0.00  0.00    +0.064 A 
ATOM     14  N   UNL     1      -4.814   1.234   7.581  0.00  0.00    -0.342 N 
ATOM     15  H   UNL     1      -4.235   1.449   8.329  0.00  0.00    +0.167 HD
BRANCH  13  16
ATOM     16  C   UNL     1      -6.856   0.621   8.935  0.00  0.00    -0.000 A 
ATOM     17  C   UNL     1      -6.254   0.875  10.166  0.00  0.00    +0.010 A 
ATOM     18  C   UNL     1      -6.967   0.685  11.333  0.00  0.00    +0.001 A 
ATOM     19  C   UNL     1      -8.277   0.245  11.282  0.00  0.00    +0.000 A 
ATOM     20  C   UNL     1      -8.880  -0.008  10.063  0.00  0.00    +0.001 A 
ATOM     21  C   UNL     1      -8.179   0.184   8.890  0.00  0.00    +0.010 A 
ENDBRANCH  13  16
ENDBRANCH   7   9
ENDBRANCH   4   7
BRANCH   1  22
ATOM     22  C   UNL     1       0.026   0.001   2.512  0.00  0.00    +0.146 C 
BRANCH  22  29
ATOM     23  C   UNL     1      -0.018   1.503   0.010  0.00  0.00    +0.044 C 
ATOM     24  C   UNL     1       0.002  -0.004   0.002  0.00  0.00    -0.039 A 
ATOM     25  C   UNL     1       0.006  -0.708  -1.195  0.00  0.00    +0.027 A 
ATOM     26  C   UNL     1       0.025  -2.087  -1.167  0.00  0.00    +0.042 A 
ATOM     27  N   UNL     1       0.040  -2.741  -0.021  0.00  0.00    -0.218 NA
ATOM     28  C   UNL     1       0.036  -2.106   1.140  0.00  0.00    +0.220 A 
ATOM     29  C   UNL     1       0.023  -0.718   1.187  0.00  0.00    +0.034 A 
ATOM     30  C   UNL     1       0.030  -2.858  -2.462  0.00  0.00    +0.066 C 
BRANCH  28  31
ATOM     31  O   UNL     1       0.051  -2.818   2.295  0.00  0.00    -0.479 OA
ATOM     32  C   UNL     1       0.070  -4.242   2.179  0.00  0.00    +0.279 C 
ENDBRANCH  28  31
ENDBRANCH  22  29
ENDBRANCH   1  22
TORSDOF 6
