REMARK  Name = ZINC10245265
REMARK  11 active torsions:
REMARK  status: ('A' for Active; 'I' for Inactive)
REMARK    1  A    between atoms: C_1  and  C_2
REMARK    2  A    between atoms: C_2  and  O_3
REMARK    3  A    between atoms: O_3  and  C_4
REMARK    4  A    between atoms: C_4  and  C_6
REMARK    5  A    between atoms: C_6  and  C_8
REMARK    6  A    between atoms: C_6  and  S_9
REMARK    7  A    between atoms: S_9  and  C_10
REMARK    8  A    between atoms: N_24  and  C_25
REMARK    9  A    between atoms: C_27  and  C_33
REMARK   10  A    between atoms: C_30  and  O_31
REMARK   11  A    between atoms: O_31  and  C_32
REMARK                            x       y       z     vdW  Elec       q    Type
REMARK                         _______ _______ _______ _____ _____    ______ ____
ROOT
ATOM      1  C   UNL     1       1.335   5.813   0.021  0.00  0.00    +0.178 A 
ATOM      2  N   UNL     1       0.770   4.627   0.020  0.00  0.00    -0.221 NA
ATOM      3  C   UNL     1       1.511   3.507   0.006  0.00  0.00    +0.104 A 
ATOM      4  C   UNL     1       1.184   2.074   0.002  0.00  0.00    +0.026 A 
ATOM      5  C   UNL     1      -0.017   1.362   0.009  0.00  0.00    +0.012 A 
ATOM      6  C   UNL     1       0.002  -0.004   0.002  0.00  0.00    +0.001 A 
ATOM      7  C   UNL     1       1.208  -0.691  -0.013  0.00  0.00    +0.002 A 
ATOM      8  C   UNL     1       2.404  -0.009  -0.021  0.00  0.00    +0.026 A 
ATOM      9  C   UNL     1       2.408   1.384  -0.014  0.00  0.00    +0.049 A 
ATOM     10  N   UNL     1       3.427   2.312  -0.019  0.00  0.00    -0.349 N 
ATOM     11  H   UNL     1       4.374   2.099  -0.030  0.00  0.00    +0.166 HD
ATOM     12  C   UNL     1       2.902   3.595  -0.007  0.00  0.00    +0.132 A 
ATOM     13  C   UNL     1       3.496   4.874  -0.006  0.00  0.00    +0.283 A 
ATOM     14  O   UNL     1       4.709   4.998  -0.018  0.00  0.00    -0.265 OA
ATOM     15  N   UNL     1       2.693   5.960   0.008  0.00  0.00    -0.251 N 
ENDROOT
BRANCH  15  16
ATOM     16  C   UNL     1       3.256   7.244   0.010  0.00  0.00    +0.094 A 
ATOM     17  C   UNL     1       3.529   7.885  -1.190  0.00  0.00    +0.033 A 
ATOM     18  C   UNL     1       4.080   9.152  -1.186  0.00  0.00    -0.048 A 
ATOM     19  C   UNL     1       4.370   9.780   0.012  0.00  0.00    +0.007 A 
ATOM     20  C   UNL     1       4.105   9.146   1.211  0.00  0.00    +0.048 A 
ATOM     21  C   UNL     1       3.548   7.877   1.216  0.00  0.00    +0.144 A 
ATOM     22  C   UNL     1       4.371   9.850  -2.489  0.00  0.00    +0.044 C 
BRANCH  21  23
ATOM     23  O   UNL     1       3.288   7.251   2.394  0.00  0.00    -0.493 OA
ATOM     24  C   UNL     1       3.613   7.960   3.591  0.00  0.00    +0.277 C 
ENDBRANCH  21  23
ENDBRANCH  15  16
BRANCH   1  25
ATOM     25  S   UNL     1       0.315   7.250   0.039  0.00  0.00    -0.073 S 
BRANCH  25  26
ATOM     26  C   UNL     1      -1.320   6.475   0.051  0.00  0.00    +0.160 C 
ATOM     27  C   UNL     1      -1.507   5.699   1.356  0.00  0.00    +0.031 C 
BRANCH  26  28
ATOM     28  C   UNL     1      -2.381   7.540  -0.056  0.00  0.00    +0.320 C 
ATOM     29  O   UNL     1      -2.119   8.685   0.226  0.00  0.00    -0.250 OA
BRANCH  28  30
ATOM     30  O   UNL     1      -3.618   7.216  -0.465  0.00  0.00    -0.464 OA
BRANCH  30  32
ATOM     31  C   UNL     1      -5.930   7.735  -1.026  0.00  0.00    +0.048 C 
ATOM     32  C   UNL     1      -4.589   8.293  -0.545  0.00  0.00    +0.229 C 
ENDBRANCH  30  32
ENDBRANCH  28  30
ENDBRANCH  26  28
ENDBRANCH  25  26
ENDBRANCH   1  25
TORSDOF 7
