REMARK  Name = ZINC20388027
REMARK  10 active torsions:
REMARK  status: ('A' for Active; 'I' for Inactive)
REMARK    1  A    between atoms: C_1  and  C_2
REMARK    2  A    between atoms: C_2  and  C_3
REMARK    3  A    between atoms: C_3  and  C_4
REMARK    4  A    between atoms: C_4  and  C_5
REMARK    5  A    between atoms: C_5  and  C_6
REMARK    6  A    between atoms: N_11  and  C_14
REMARK    7  A    between atoms: C_14  and  C_15
REMARK    8  A    between atoms: C_15  and  N_16
REMARK    9  A    between atoms: C_22  and  C_23
REMARK   10  A    between atoms: C_23  and  C_24
REMARK                            x       y       z     vdW  Elec       q    Type
REMARK                         _______ _______ _______ _____ _____    ______ ____
ROOT
ATOM      1  N   UNL     1       1.861  -8.464  -8.773  0.00  0.00    -0.310 N 
ATOM      2  C   UNL     1       2.675  -8.506  -9.840  0.00  0.00    +0.254 A 
ATOM      3  O   UNL     1       3.751  -7.931  -9.793  0.00  0.00    -0.268 OA
ATOM      4  C   UNL     1       2.317  -9.196 -11.006  0.00  0.00    +0.098 A 
ATOM      5  C   UNL     1       1.101  -9.842 -11.049  0.00  0.00    +0.075 A 
ATOM      6  C   UNL     1       0.234  -9.776  -9.864  0.00  0.00    +0.085 A 
ATOM      7  C   UNL     1       0.662  -9.083  -8.760  0.00  0.00    +0.036 A 
ATOM      8  C   UNL     1      -0.968 -10.546 -10.211  0.00  0.00    +0.283 A 
ATOM      9  O   UNL     1      -1.934 -10.735  -9.498  0.00  0.00    -0.265 OA
ATOM     10  N   UNL     1      -0.801 -11.004 -11.468  0.00  0.00    -0.194 N 
ATOM     11  N   UNL     1       0.431 -10.592 -11.984  0.00  0.00    -0.288 N 
ATOM     12  H   UNL     1       0.764 -10.805 -12.870  0.00  0.00    +0.188 HD
ATOM     13  C   UNL     1      -1.723 -11.776 -12.153  0.00  0.00    +0.196 A 
ATOM     14  N   UNL     1      -2.898 -12.203 -11.755  0.00  0.00    -0.221 NA
ATOM     15  C   UNL     1      -3.701 -12.956 -12.537  0.00  0.00    +0.081 A 
ATOM     16  C   UNL     1      -4.980 -13.476 -12.231  0.00  0.00    +0.029 A 
ATOM     17  C   UNL     1      -5.667 -14.230 -13.146  0.00  0.00    +0.002 A 
ATOM     18  C   UNL     1      -5.138 -14.509 -14.399  0.00  0.00    +0.001 A 
ATOM     19  C   UNL     1      -3.890 -14.016 -14.732  0.00  0.00    +0.017 A 
ATOM     20  C   UNL     1      -3.195 -13.260 -13.821  0.00  0.00    +0.041 A 
ATOM     21  S   UNL     1      -1.619 -12.440 -13.810  0.00  0.00    -0.048 S 
ENDROOT
BRANCH   7  22
ATOM     22  C   UNL     1      -0.209  -9.009  -7.533  0.00  0.00    +0.051 C 
ATOM     23  C   UNL     1       0.149 -10.154  -6.583  0.00  0.00    +0.010 C 
ENDBRANCH   7  22
BRANCH   1  24
ATOM     24  C   UNL     1       2.291  -7.727  -7.582  0.00  0.00    +0.140 C 
BRANCH  24  25
ATOM     25  C   UNL     1       1.898  -6.255  -7.724  0.00  0.00    +0.106 C 
BRANCH  25  31
ATOM     26  C   UNL     1       2.112  -2.914  -3.454  0.00  0.00    +0.216 C 
ATOM     27  O   UNL     1       1.720  -3.332  -2.386  0.00  0.00    -0.276 OA
ATOM     28  N   UNL     1       2.538  -3.775  -4.400  0.00  0.00    -0.299 N 
ATOM     29  C   UNL     1       3.024  -3.288  -5.700  0.00  0.00    +0.123 C 
ATOM     30  C   UNL     1       2.289  -4.048  -6.809  0.00  0.00    +0.103 C 
ATOM     31  N   UNL     1       2.440  -5.493  -6.591  0.00  0.00    -0.298 NA
ATOM     32  C   UNL     1       1.815  -5.909  -5.329  0.00  0.00    +0.103 C 
ATOM     33  C   UNL     1       2.535  -5.225  -4.156  0.00  0.00    +0.123 C 
BRANCH  26  34
ATOM     34  C   UNL     1       2.124  -1.431  -3.725  0.00  0.00    +0.096 C 
BRANCH  34  35
ATOM     35  C   UNL     1       1.595  -0.685  -2.498  0.00  0.00    +0.009 C 
BRANCH  35  36
ATOM     36  C   UNL     1       1.607   0.820  -2.773  0.00  0.00    +0.000 C 
BRANCH  36  38
ATOM     37  C   UNL     1       1.089   3.072  -1.821  0.00  0.00    +0.004 C 
ATOM     38  C   UNL     1       1.078   1.567  -1.547  0.00  0.00    -0.003 C 
ENDBRANCH  36  38
ENDBRANCH  35  36
ENDBRANCH  34  35
ENDBRANCH  26  34
ENDBRANCH  25  31
ENDBRANCH  24  25
ENDBRANCH   1  24
TORSDOF 8
