REMARK  Name = ZINC06748120
REMARK  9 active torsions:
REMARK  status: ('A' for Active; 'I' for Inactive)
REMARK    1  A    between atoms: C_1  and  C_2
REMARK    2  A    between atoms: C_9  and  C_11
REMARK    3  A    between atoms: C_14  and  C_30
REMARK    4  A    between atoms: C_15  and  N_17
REMARK    5  A    between atoms: N_17  and  S_18
REMARK    6  A    between atoms: S_18  and  C_21
REMARK    7  A    between atoms: C_24  and  O_28
REMARK    8  A    between atoms: C_25  and  C_27
REMARK    9  A    between atoms: O_28  and  C_29
REMARK                            x       y       z     vdW  Elec       q    Type
REMARK                         _______ _______ _______ _____ _____    ______ ____
ROOT
ATOM      1  C   UNL     1       0.477  -1.202   4.958  0.00  0.00    +0.002 A 
ATOM      2  C   UNL     1       0.557  -0.050   5.739  0.00  0.00    +0.010 A 
ATOM      3  C   UNL     1       0.497  -0.143   7.115  0.00  0.00    +0.006 A 
ATOM      4  C   UNL     1       0.358  -1.376   7.723  0.00  0.00    -0.028 A 
ATOM      5  C   UNL     1       0.277  -2.530   6.953  0.00  0.00    +0.052 A 
ATOM      6  C   UNL     1       0.330  -2.444   5.569  0.00  0.00    +0.034 A 
ATOM      7  C   UNL     1       0.294  -1.470   9.226  0.00  0.00    +0.046 C 
ENDROOT
BRANCH   1  16
ATOM      8  C   UNL     1       0.966   2.033   0.456  0.00  0.00    +0.047 C 
ATOM      9  C   UNL     1       0.821   0.538   0.328  0.00  0.00    -0.009 A 
ATOM     10  C   UNL     1       0.814  -0.049  -0.899  0.00  0.00    +0.008 A 
ATOM     11  C   UNL     1       0.679  -1.444  -1.002  0.00  0.00    +0.018 A 
ATOM     12  C   UNL     1       0.557  -2.200   0.109  0.00  0.00    +0.092 A 
ATOM     13  N   UNL     1       0.563  -1.625   1.347  0.00  0.00    -0.307 N 
ATOM     14  C   UNL     1       0.699  -0.266   1.480  0.00  0.00    +0.119 A 
ATOM     15  N   UNL     1       0.680   0.029   2.771  0.00  0.00    -0.339 N 
ATOM     16  C   UNL     1       0.541  -1.104   3.479  0.00  0.00    +0.065 A 
ATOM     17  C   UNL     1       0.458  -2.146   2.606  0.00  0.00    +0.118 A 
ATOM     18  H   UNL     1       0.755   0.920   3.146  0.00  0.00    +0.167 HD
ENDBRANCH   1  16
BRANCH   5  19
ATOM     19  N   UNL     1       0.137  -3.775   7.571  0.00  0.00    -0.216 N 
ATOM     20  H   UNL     1      -0.388  -3.857   8.382  0.00  0.00    +0.174 HD
BRANCH  19  21
ATOM     21  S   UNL     1       0.867  -5.110   6.918  0.00  0.00    +0.072 S 
ATOM     22  O   UNL     1       0.654  -6.177   7.832  0.00  0.00    -0.150 OA
ATOM     23  O   UNL     1       0.453  -5.177   5.561  0.00  0.00    -0.150 OA
BRANCH  21  24
ATOM     24  C   UNL     1       2.601  -4.800   6.902  0.00  0.00    +0.109 A 
ATOM     25  C   UNL     1       3.183  -4.192   5.804  0.00  0.00    +0.032 A 
ATOM     26  C   UNL     1       4.543  -3.948   5.788  0.00  0.00    +0.048 A 
ATOM     27  C   UNL     1       5.324  -4.313   6.875  0.00  0.00    +0.123 A 
ATOM     28  C   UNL     1       4.738  -4.923   7.975  0.00  0.00    -0.007 A 
ATOM     29  C   UNL     1       3.377  -5.160   7.988  0.00  0.00    +0.035 A 
ATOM     30  C   UNL     1       5.584  -5.321   9.157  0.00  0.00    +0.047 C 
BRANCH  27  31
ATOM     31  O   UNL     1       6.662  -4.075   6.862  0.00  0.00    -0.495 OA
ATOM     32  C   UNL     1       7.197  -3.444   5.696  0.00  0.00    +0.277 C 
ENDBRANCH  27  31
ENDBRANCH  21  24
ENDBRANCH  19  21
ENDBRANCH   5  19
TORSDOF 5
