REMARK  Name = ZINC40313696
REMARK  16 active torsions:
REMARK  status: ('A' for Active; 'I' for Inactive)
REMARK    1  A    between atoms: C_1  and  C_2
REMARK    2  A    between atoms: C_7  and  O_8
REMARK    3  A    between atoms: O_8  and  C_9
REMARK    4  A    between atoms: C_9  and  C_10
REMARK    5  A    between atoms: C_10  and  C_12
REMARK    6  A    between atoms: C_10  and  O_35
REMARK    7  A    between atoms: C_12  and  N_13
REMARK    8  A    between atoms: N_13  and  C_14
REMARK    9  A    between atoms: N_13  and  C_27
REMARK   10  A    between atoms: C_14  and  C_15
REMARK   11  A    between atoms: C_17  and  O_25
REMARK   12  A    between atoms: C_18  and  O_23
REMARK   13  A    between atoms: C_19  and  O_21
REMARK   14  A    between atoms: O_21  and  C_22
REMARK   15  A    between atoms: O_23  and  C_24
REMARK   16  A    between atoms: O_25  and  C_26
REMARK                            x       y       z     vdW  Elec       q    Type
REMARK                         _______ _______ _______ _____ _____    ______ ____
ROOT
ATOM      1  N   UNL     1       0.711   0.135   7.184  0.00  0.00    +0.387 N 
ATOM      2  H   UNL     1       1.501   0.763   7.191  0.00  0.00    -0.081 HD
ENDROOT
BRANCH   1   3
ATOM      3  C   UNL     1      -0.530   0.911   7.062  0.00  0.00    -0.045 C 
ATOM      4  C   UNL     1      -0.482   2.121   8.009  0.00  0.00    +0.009 C 
ATOM      5  C   UNL     1      -1.889   2.755   8.128  0.00  0.00    +0.164 C 
ATOM      6  S   UNL     1      -3.004   1.324   7.820  0.00  0.00    -0.033 S 
ATOM      7  O   UNL     1      -3.757   1.571   6.640  0.00  0.00    -0.174 OA
ATOM      8  O   UNL     1      -3.680   0.997   9.026  0.00  0.00    -0.174 OA
ATOM      9  C   UNL     1      -1.744   0.027   7.467  0.00  0.00    +0.151 C 
ENDBRANCH   1   3
BRANCH   1  10
ATOM     10  C   UNL     1       0.827  -0.786   6.045  0.00  0.00    -0.043 C 
BRANCH  10  11
ATOM     11  C   UNL     1       1.125   0.011   4.774  0.00  0.00    +0.135 C 
BRANCH  11  12
ATOM     12  O   UNL     1      -0.017   0.795   4.424  0.00  0.00    -0.390 OA
ATOM     13  H   UNL     1      -0.830   0.282   4.324  0.00  0.00    +0.210 HD
ENDBRANCH  11  12
BRANCH  11  14
ATOM     14  C   UNL     1       1.450  -0.954   3.631  0.00  0.00    +0.258 C 
BRANCH  14  15
ATOM     15  O   UNL     1       1.842  -0.210   2.476  0.00  0.00    -0.489 OA
BRANCH  15  22
ATOM     16  C   UNL     1       2.618   1.242   0.181  0.00  0.00    +0.047 C 
ATOM     17  C   UNL     1       2.555  -0.263   0.207  0.00  0.00    -0.009 A 
ATOM     18  C   UNL     1       2.890  -0.989  -0.920  0.00  0.00    +0.007 A 
ATOM     19  C   UNL     1       2.832  -2.370  -0.896  0.00  0.00    +0.000 A 
ATOM     20  C   UNL     1       2.439  -3.028   0.255  0.00  0.00    +0.004 A 
ATOM     21  C   UNL     1       2.104  -2.307   1.384  0.00  0.00    +0.046 A 
ATOM     22  C   UNL     1       2.166  -0.921   1.365  0.00  0.00    +0.124 A 
ENDBRANCH  15  22
ENDBRANCH  14  15
ENDBRANCH  11  14
ENDBRANCH  10  11
ENDBRANCH   1  10
BRANCH   1  23
ATOM     23  C   UNL     1       0.686  -0.634   8.435  0.00  0.00    -0.042 C 
BRANCH  23  24
ATOM     24  C   UNL     1       0.763   0.310   9.607  0.00  0.00    -0.057 A 
ATOM     25  C   UNL     1       1.925   1.020   9.845  0.00  0.00    +0.051 A 
ATOM     26  C   UNL     1       1.999   1.890  10.923  0.00  0.00    +0.165 A 
ATOM     27  C   UNL     1       0.904   2.047  11.764  0.00  0.00    +0.204 A 
ATOM     28  C   UNL     1      -0.262   1.331  11.521  0.00  0.00    +0.165 A 
ATOM     29  C   UNL     1      -0.330   0.467  10.438  0.00  0.00    +0.051 A 
BRANCH  28  30
ATOM     30  O   UNL     1      -1.337   1.480  12.341  0.00  0.00    -0.491 OA
ATOM     31  C   UNL     1      -2.458   0.627  12.104  0.00  0.00    +0.277 C 
ENDBRANCH  28  30
BRANCH  27  32
ATOM     32  O   UNL     1       0.973   2.899  12.823  0.00  0.00    -0.488 OA
ATOM     33  C   UNL     1       0.578   4.253  12.593  0.00  0.00    +0.277 C 
ENDBRANCH  27  32
BRANCH  26  34
ATOM     34  O   UNL     1       3.143   2.588  11.156  0.00  0.00    -0.491 OA
ATOM     35  C   UNL     1       4.228   2.377  10.251  0.00  0.00    +0.277 C 
ENDBRANCH  26  34
ENDBRANCH  23  24
ENDBRANCH   1  23
TORSDOF 12
