REMARK  Name = ZINC44762977
REMARK  3 active torsions:
REMARK  status: ('A' for Active; 'I' for Inactive)
REMARK    1  A    between atoms: C_5  and  C_8
REMARK    2  A    between atoms: C_5  and  C_10
REMARK    3  A    between atoms: C_8  and  N_9
REMARK                            x       y       z     vdW  Elec       q    Type
REMARK                         _______ _______ _______ _____ _____    ______ ____
ROOT
ATOM      1  C   UNL     1      -0.032   1.499   0.006  0.00  0.00    +0.000 C 
ATOM      2  C   UNL     1       1.391   2.094  -0.015  0.00  0.00    +0.000 C 
ATOM      3  C   UNL     1       1.944   2.059   1.384  0.00  0.00    +0.001 C 
ATOM      4  C   UNL     1       2.785   0.797   1.654  0.00  0.00    +0.014 C 
ATOM      5  C   UNL     1       2.154  -0.478   1.064  0.00  0.00    +0.032 C 
ATOM      6  C   UNL     1       0.664  -0.532   1.270  0.00  0.00    +0.014 C 
ATOM      7  C   UNL     1      -0.024   0.044   0.015  0.00  0.00    +0.001 C 
ENDROOT
BRANCH   5   8
ATOM      8  C   UNL     1       2.445  -0.527  -0.414  0.00  0.00    +0.220 C 
ATOM      9  O   UNL     1       3.155   0.315  -0.920  0.00  0.00    -0.275 OA
ATOM     10  N   UNL     1       1.915  -1.507  -1.173  0.00  0.00    -0.301 N 
ATOM     11  C   UNL     1       1.171  -2.614  -0.555  0.00  0.00    +0.108 C 
ATOM     12  C   UNL     1      -0.205  -2.712  -1.221  0.00  0.00    +0.023 C 
ATOM     13  C   UNL     1      -0.028  -2.845  -2.736  0.00  0.00    -0.005 C 
ATOM     14  C   UNL     1      -1.404  -2.974  -3.394  0.00  0.00    +0.004 C 
ATOM     15  C   UNL     1      -1.237  -3.102  -4.909  0.00  0.00    +0.000 C 
ATOM     16  C   UNL     1      -0.531  -1.856  -5.449  0.00  0.00    +0.000 C 
ATOM     17  C   UNL     1       0.846  -1.729  -4.795  0.00  0.00    +0.005 C 
ATOM     18  C   UNL     1       0.685  -1.604  -3.278  0.00  0.00    +0.010 C 
ATOM     19  C   UNL     1       2.064  -1.487  -2.634  0.00  0.00    +0.111 C 
ENDBRANCH   5   8
BRANCH   5  20
ATOM     20  C   UNL     1       2.790  -1.699   1.732  0.00  0.00    -0.070 C 
BRANCH  20  21
ATOM     21  N   UNL     1       4.216  -1.762   1.381  0.00  0.00    +0.379 N 
ATOM     22  H   UNL     1       4.617  -2.610   1.754  0.00  0.00    -0.090 HD
ATOM     23  H   UNL     1       4.316  -1.755   0.378  0.00  0.00    -0.090 HD
ATOM     24  H   UNL     1       4.693  -0.964   1.773  0.00  0.00    -0.090 HD
ENDBRANCH  20  21
ENDBRANCH   5  20
TORSDOF 3
