REMARK  Name = ZINC15546783
REMARK  7 active torsions:
REMARK  status: ('A' for Active; 'I' for Inactive)
REMARK    1  A    between atoms: C_1  and  C_2
REMARK    2  A    between atoms: C_5  and  C_8
REMARK    3  A    between atoms: C_9  and  C_35
REMARK    4  A    between atoms: C_17  and  C_19
REMARK    5  A    between atoms: C_19  and  N_20
REMARK    6  A    between atoms: C_22  and  C_31
REMARK    7  A    between atoms: N_33  and  C_34
REMARK                            x       y       z     vdW  Elec       q    Type
REMARK                         _______ _______ _______ _____ _____    ______ ____
ROOT
ATOM      1  C   UNL     1      -3.621   1.985  -6.752  0.00  0.00    +0.007 A 
ATOM      2  C   UNL     1      -4.803   2.518  -6.357  0.00  0.00    -0.003 A 
ATOM      3  S   UNL     1      -4.601   2.712  -4.597  0.00  0.00    -0.073 S 
ATOM      4  C   UNL     1      -2.951   2.080  -4.434  0.00  0.00    +0.116 A 
ATOM      5  C   UNL     1      -2.595   1.734  -5.747  0.00  0.00    +0.080 A 
ATOM      6  C   UNL     1      -1.283   1.186  -5.910  0.00  0.00    +0.260 A 
ATOM      7  O   UNL     1      -0.883   0.854  -7.013  0.00  0.00    -0.267 OA
ATOM      8  N   UNL     1      -0.497   1.042  -4.827  0.00  0.00    -0.309 N 
ATOM      9  H   UNL     1       0.394   0.672  -4.932  0.00  0.00    +0.170 HD
ATOM     10  C   UNL     1      -0.925   1.406  -3.592  0.00  0.00    +0.128 A 
ATOM     11  N   UNL     1      -2.119   1.904  -3.410  0.00  0.00    -0.225 NA
ATOM     12  C   UNL     1      -6.002   2.862  -7.203  0.00  0.00    +0.052 C 
ENDROOT
BRANCH   1  17
ATOM     13  C   UNL     1      -2.670   0.744 -12.294  0.00  0.00    +0.044 C 
ATOM     14  C   UNL     1      -2.919   1.068 -10.843  0.00  0.00    -0.050 A 
ATOM     15  C   UNL     1      -3.895   0.384 -10.141  0.00  0.00    +0.004 A 
ATOM     16  C   UNL     1      -4.127   0.677  -8.813  0.00  0.00    +0.009 A 
ATOM     17  C   UNL     1      -3.376   1.665  -8.179  0.00  0.00    -0.016 A 
ATOM     18  C   UNL     1      -2.398   2.356  -8.893  0.00  0.00    +0.009 A 
ATOM     19  C   UNL     1      -2.171   2.051 -10.219  0.00  0.00    +0.004 A 
ENDBRANCH   1  17
BRANCH  10  20
ATOM     20  C   UNL     1      -0.010   1.227  -2.408  0.00  0.00    +0.179 C 
BRANCH  20  21
ATOM     21  N   UNL     1      -0.735   1.557  -1.174  0.00  0.00    -0.316 N 
ATOM     22  C   UNL     1      -1.783   0.568  -0.899  0.00  0.00    +0.160 C 
ATOM     23  C   UNL     1      -2.421   0.889   0.459  0.00  0.00    +0.276 C 
ATOM     24  O   UNL     1      -1.409   0.755   1.463  0.00  0.00    -0.476 OA
ATOM     25  C   UNL     1      -0.197   1.311   1.191  0.00  0.00    +0.143 A 
ATOM     26  C   UNL     1       0.147   1.703  -0.098  0.00  0.00    +0.072 A 
ATOM     27  C   UNL     1       1.400   2.257  -0.335  0.00  0.00    +0.027 A 
ATOM     28  C   UNL     1       2.296   2.420   0.704  0.00  0.00    +0.002 A 
ATOM     29  C   UNL     1       1.951   2.033   1.985  0.00  0.00    +0.004 A 
ATOM     30  C   UNL     1       0.708   1.480   2.229  0.00  0.00    +0.047 A 
BRANCH  23  31
ATOM     31  C   UNL     1      -3.548  -0.073   0.734  0.00  0.00    +0.255 C 
ATOM     32  O   UNL     1      -3.467  -0.853   1.659  0.00  0.00    -0.272 OA
ATOM     33  N   UNL     1      -4.644  -0.068  -0.050  0.00  0.00    -0.315 N 
ATOM     34  C   UNL     1      -5.740  -1.003   0.217  0.00  0.00    +0.128 C 
ATOM     35  H   UNL     1      -4.709   0.556  -0.790  0.00  0.00    +0.148 HD
ENDBRANCH  23  31
ENDBRANCH  20  21
ENDBRANCH  10  20
TORSDOF 4
