REMARK  Name = ZINC05444938
REMARK  5 active torsions:
REMARK  status: ('A' for Active; 'I' for Inactive)
REMARK    1  A    between atoms: C_1  and  C_2
REMARK    2  A    between atoms: C_2  and  C_3
REMARK    3  A    between atoms: C_6  and  C_9
REMARK    4  A    between atoms: C_11  and  C_15
REMARK    5  A    between atoms: N_17  and  N_18
REMARK                            x       y       z     vdW  Elec       q    Type
REMARK                         _______ _______ _______ _____ _____    ______ ____
ROOT
ATOM      1  C   UNL     1       5.524  -2.823  -6.848  0.00  0.00    +0.281 C 
ATOM      2  O   UNL     1       6.579  -2.565  -6.301  0.00  0.00    -0.267 OA
ATOM      3  N   UNL     1       5.521  -3.406  -8.063  0.00  0.00    -0.201 N 
ATOM      4  H   UNL     1       4.680  -3.612  -8.500  0.00  0.00    +0.178 HD
ENDROOT
BRANCH   3   5
ATOM      5  N   UNL     1       6.733  -3.716  -8.695  0.00  0.00    -0.174 NA
ATOM      6  C   UNL     1       6.733  -4.184  -9.920  0.00  0.00    +0.153 C 
ATOM      7  C   UNL     1       5.583  -4.277 -10.850  0.00  0.00    +0.028 A 
ATOM      8  C   UNL     1       4.241  -3.931 -10.743  0.00  0.00    +0.012 A 
ATOM      9  C   UNL     1       3.391  -4.145 -11.809  0.00  0.00    +0.001 A 
ATOM     10  C   UNL     1       3.875  -4.702 -12.981  0.00  0.00    +0.002 A 
ATOM     11  C   UNL     1       5.206  -5.050 -13.097  0.00  0.00    +0.024 A 
ATOM     12  C   UNL     1       6.077  -4.841 -12.033  0.00  0.00    +0.043 A 
ATOM     13  N   UNL     1       7.436  -5.096 -11.889  0.00  0.00    -0.280 N 
ATOM     14  C   UNL     1       7.879  -4.726 -10.676  0.00  0.00    +0.269 C 
ATOM     15  O   UNL     1       9.023  -4.823 -10.270  0.00  0.00    -0.268 OA
ATOM     16  H   UNL     1       7.995  -5.487 -12.579  0.00  0.00    +0.155 HD
ENDBRANCH   3   5
BRANCH   1  19
ATOM     17  C   UNL     1       2.702  -1.806  -4.760  0.00  0.00    +0.093 A 
ATOM     18  C   UNL     1       4.092  -1.903  -4.948  0.00  0.00    +0.062 A 
ATOM     19  C   UNL     1       4.253  -2.498  -6.185  0.00  0.00    +0.122 A 
ATOM     20  N   UNL     1       2.995  -2.725  -6.671  0.00  0.00    -0.272 N 
ATOM     21  H   UNL     1       2.793  -3.136  -7.526  0.00  0.00    +0.189 HD
ATOM     22  N   UNL     1       2.120  -2.320  -5.823  0.00  0.00    -0.173 NA
BRANCH  17  26
ATOM     23  C   UNL     1       0.734  -0.166  -1.365  0.00  0.00    -0.048 A 
ATOM     24  C   UNL     1      -0.010  -0.673  -2.414  0.00  0.00    +0.004 A 
ATOM     25  C   UNL     1       0.623  -1.206  -3.518  0.00  0.00    +0.010 A 
ATOM     26  C   UNL     1       2.015  -1.233  -3.575  0.00  0.00    +0.002 A 
ATOM     27  C   UNL     1       2.760  -0.721  -2.515  0.00  0.00    +0.010 A 
ATOM     28  C   UNL     1       2.116  -0.185  -1.417  0.00  0.00    +0.004 A 
BRANCH  23  30
ATOM     29  C   UNL     1      -0.205   1.909  -0.384  0.00  0.00    +0.009 C 
ATOM     30  C   UNL     1       0.037   0.415  -0.161  0.00  0.00    +0.032 C 
ENDBRANCH  23  30
ENDBRANCH  17  26
ENDBRANCH   1  19
TORSDOF 4
