REMARK  Name = ZINC49428507
REMARK  3 active torsions:
REMARK  status: ('A' for Active; 'I' for Inactive)
REMARK    1  A    between atoms: C_3  and  N_6
REMARK    2  A    between atoms: C_13  and  C_16
REMARK    3  A    between atoms: N_21  and  C_24
REMARK                            x       y       z     vdW  Elec       q    Type
REMARK                         _______ _______ _______ _____ _____    ______ ____
ROOT
ATOM      1  N   UNL     1       4.137   2.545  -0.598  0.00  0.00    -0.264 N 
ATOM      2  C   UNL     1       5.150   1.661  -0.690  0.00  0.00    +0.307 C 
ATOM      3  O   UNL     1       4.950   0.554  -1.152  0.00  0.00    -0.252 OA
ATOM      4  N   UNL     1       6.384   2.003  -0.271  0.00  0.00    -0.285 N 
ATOM      5  C   UNL     1       6.615   3.288   0.403  0.00  0.00    +0.109 C 
ATOM      6  C   UNL     1       7.317   3.025   1.739  0.00  0.00    +0.020 C 
ATOM      7  C   UNL     1       8.587   2.208   1.491  0.00  0.00    +0.016 C 
ATOM      8  C   UNL     1       8.215   0.861   0.868  0.00  0.00    +0.093 C 
ATOM      9  C   UNL     1       7.522   1.097  -0.473  0.00  0.00    +0.122 C 
ATOM     10  H   UNL     1       4.278   3.400  -0.163  0.00  0.00    +0.157 HD
ENDROOT
BRANCH   8  11
ATOM     11  C   UNL     1       9.463   0.043   0.655  0.00  0.00    +0.220 C 
ATOM     12  O   UNL     1      10.536   0.595   0.533  0.00  0.00    -0.275 OA
ATOM     13  N   UNL     1       9.386  -1.301   0.599  0.00  0.00    -0.298 N 
ATOM     14  C   UNL     1       8.110  -1.989   0.842  0.00  0.00    +0.126 C 
ATOM     15  C   UNL     1       7.800  -2.886  -0.363  0.00  0.00    +0.124 C 
ATOM     16  N   UNL     1       8.992  -3.691  -0.667  0.00  0.00    -0.327 N 
ATOM     17  C   UNL     1      10.268  -3.004  -0.909  0.00  0.00    +0.124 C 
ATOM     18  C   UNL     1      10.576  -2.106   0.290  0.00  0.00    +0.126 C 
BRANCH  16  19
ATOM     19  C   UNL     1       8.912  -5.086  -0.725  0.00  0.00    +0.030 A 
ATOM     20  C   UNL     1      10.066  -5.842  -0.890  0.00  0.00    +0.026 A 
ATOM     21  C   UNL     1       9.985  -7.220  -0.946  0.00  0.00    +0.040 A 
ATOM     22  C   UNL     1       8.755  -7.847  -0.837  0.00  0.00    +0.124 A 
ATOM     23  C   UNL     1       7.604  -7.096  -0.672  0.00  0.00    +0.040 A 
ATOM     24  C   UNL     1       7.681  -5.718  -0.610  0.00  0.00    +0.026 A 
ATOM     25  F   UNL     1       8.679  -9.195  -0.893  0.00  0.00    -0.205 F 
ENDBRANCH  16  19
ENDBRANCH   8  11
BRANCH   1  28
ATOM     26  C   UNL     1       0.608   2.449  -1.730  0.00  0.00    +0.009 A 
ATOM     27  C   UNL     1       1.743   2.974  -1.139  0.00  0.00    +0.031 A 
ATOM     28  C   UNL     1       2.883   2.229  -1.129  0.00  0.00    +0.073 A 
ATOM     29  S   UNL     1       2.359   0.744  -1.970  0.00  0.00    -0.082 S 
ATOM     30  C   UNL     1       0.664   1.212  -2.278  0.00  0.00    +0.047 A 
ENDBRANCH   1  28
TORSDOF 3
