REMARK  Name = ZINC39974740
REMARK  13 active torsions:
REMARK  status: ('A' for Active; 'I' for Inactive)
REMARK    1  A    between atoms: C_1  and  C_2
REMARK    2  A    between atoms: C_2  and  C_3
REMARK    3  A    between atoms: C_2  and  C_4
REMARK    4  A    between atoms: C_2  and  C_5
REMARK    5  A    between atoms: C_8  and  O_26
REMARK    6  A    between atoms: C_9  and  N_11
REMARK    7  A    between atoms: N_11  and  C_12
REMARK    8  A    between atoms: C_12  and  N_14
REMARK    9  A    between atoms: N_14  and  C_15
REMARK   10  A    between atoms: C_18  and  O_24
REMARK   11  A    between atoms: C_20  and  N_21
REMARK   12  A    between atoms: O_24  and  C_25
REMARK   13  A    between atoms: O_26  and  C_27
REMARK                            x       y       z     vdW  Elec       q    Type
REMARK                         _______ _______ _______ _____ _____    ______ ____
ROOT
ATOM      1  C   UNL     1       4.576   0.857  -2.280  0.00  0.00    +0.139 C 
ATOM      2  S   UNL     1       3.672   1.761  -1.142  0.00  0.00    -0.018 S 
ENDROOT
BRANCH   1   3
ATOM      3  N   UNL     1       4.143  -0.357  -2.674  0.00  0.00    -0.294 N 
ATOM      4  H   UNL     1       4.688  -0.898  -3.265  0.00  0.00    +0.154 HD
BRANCH   3   9
ATOM      5  C   UNL     1       1.343  -1.223  -0.449  0.00  0.00    -0.040 A 
ATOM      6  C   UNL     1       0.456  -1.787  -1.347  0.00  0.00    +0.008 A 
ATOM      7  C   UNL     1       0.786  -1.878  -2.687  0.00  0.00    +0.048 A 
ATOM      8  C   UNL     1       2.010  -1.405  -3.132  0.00  0.00    +0.141 A 
ATOM      9  C   UNL     1       2.904  -0.837  -2.228  0.00  0.00    +0.075 A 
ATOM     10  C   UNL     1       2.563  -0.743  -0.887  0.00  0.00    +0.031 A 
BRANCH   5  12
ATOM     11  C   UNL     1       0.973   0.343   1.438  0.00  0.00    +0.015 C 
ATOM     12  C   UNL     1       0.977  -1.126   1.009  0.00  0.00    -0.013 C 
ATOM     13  C   UNL     1       2.001  -1.897   1.845  0.00  0.00    +0.015 C 
ATOM     14  C   UNL     1      -0.414  -1.724   1.227  0.00  0.00    +0.015 C 
ENDBRANCH   5  12
BRANCH   8  15
ATOM     15  O   UNL     1       2.336  -1.495  -4.449  0.00  0.00    -0.493 OA
ATOM     16  C   UNL     1       1.370  -2.090  -5.318  0.00  0.00    +0.277 C 
ENDBRANCH   8  15
ENDBRANCH   3   9
ENDBRANCH   1   3
BRANCH   1  17
ATOM     17  N   UNL     1       5.722   1.359  -2.781  0.00  0.00    -0.295 N 
ATOM     18  H   UNL     1       6.199   0.879  -3.476  0.00  0.00    +0.154 HD
BRANCH  17  19
ATOM     19  C   UNL     1       6.225   2.574  -2.299  0.00  0.00    +0.063 A 
ATOM     20  C   UNL     1       5.384   3.672  -2.171  0.00  0.00    +0.029 A 
ATOM     21  C   UNL     1       5.880   4.870  -1.696  0.00  0.00    +0.047 A 
ATOM     22  C   UNL     1       7.218   4.976  -1.345  0.00  0.00    +0.122 A 
ATOM     23  C   UNL     1       8.059   3.880  -1.472  0.00  0.00    +0.080 A 
ATOM     24  C   UNL     1       7.562   2.680  -1.943  0.00  0.00    +0.151 A 
BRANCH  24  25
ATOM     25  N   UNL     1       8.458   1.509  -2.073  0.00  0.00    +0.058 N 
ATOM     26  O   UNL     1       9.601   1.575  -1.684  0.00  0.00    -0.126 OA
ATOM     27  O   UNL     1       8.047   0.486  -2.569  0.00  0.00    -0.126 OA
ENDBRANCH  24  25
BRANCH  22  28
ATOM     28  O   UNL     1       7.706   6.156  -0.876  0.00  0.00    -0.495 OA
ATOM     29  C   UNL     1       6.785   7.243  -0.771  0.00  0.00    +0.277 C 
ENDBRANCH  22  28
ENDBRANCH  17  19
ENDBRANCH   1  17
TORSDOF 8
