REMARK  Name = ZINC62562708
REMARK  4 active torsions:
REMARK  status: ('A' for Active; 'I' for Inactive)
REMARK    1  A    between atoms: C_1  and  C_2
REMARK    2  A    between atoms: C_2  and  C_4
REMARK    3  A    between atoms: C_8  and  N_10
REMARK    4  A    between atoms: N_21  and  C_22
REMARK                            x       y       z     vdW  Elec       q    Type
REMARK                         _______ _______ _______ _____ _____    ______ ____
ROOT
ATOM      1  C   UNL     1      -0.000  -0.732  -1.274  0.00  0.00    +0.021 A 
ATOM      2  C   UNL     1      -0.015  -0.026  -2.484  0.00  0.00    +0.038 A 
ATOM      3  C   UNL     1      -0.018  -0.715  -3.681  0.00  0.00    +0.080 A 
ATOM      4  C   UNL     1      -0.008  -2.111  -3.689  0.00  0.00    +0.163 A 
ATOM      5  C   UNL     1       0.010  -2.815  -2.486  0.00  0.00    +0.074 A 
ATOM      6  C   UNL     1       0.019  -2.131  -1.283  0.00  0.00    +0.038 A 
ATOM      7  O   UNL     1      -0.021  -2.777  -4.872  0.00  0.00    -0.488 OA
ATOM      8  C   UNL     1      -1.258  -2.824  -5.579  0.00  0.00    +0.238 C 
ATOM      9  C   UNL     1      -1.931  -1.453  -5.569  0.00  0.00    +0.137 C 
ATOM     10  C   UNL     1      -0.916  -0.377  -5.856  0.00  0.00    +0.223 C 
ATOM     11  O   UNL     1      -0.896   0.169  -6.939  0.00  0.00    -0.275 OA
ATOM     12  N   UNL     1      -0.029  -0.022  -4.900  0.00  0.00    -0.271 N 
ATOM     13  C   UNL     1       0.913   1.076  -5.135  0.00  0.00    +0.138 C 
ENDROOT
BRANCH   5  14
ATOM     14  N   UNL     1       0.024  -4.215  -2.495  0.00  0.00    -0.331 N 
ATOM     15  C   UNL     1       1.293  -4.959  -2.505  0.00  0.00    +0.086 C 
ATOM     16  C   UNL     1       1.248  -6.010  -1.391  0.00  0.00    -0.063 C 
ATOM     17  N   UNL     1       0.054  -6.848  -1.558  0.00  0.00    +0.381 N 
ATOM     18  C   UNL     1      -1.156  -6.034  -1.381  0.00  0.00    -0.063 C 
ATOM     19  C   UNL     1      -1.230  -4.984  -2.489  0.00  0.00    +0.086 C 
ATOM     20  H   UNL     1       0.054  -7.252  -2.482  0.00  0.00    -0.086 HD
ATOM     21  H   UNL     1       0.064  -7.586  -0.870  0.00  0.00    -0.086 HD
ENDBRANCH   5  14
BRANCH   1  23
ATOM     22  C   UNL     1      -0.018   1.503   0.010  0.00  0.00    +0.091 C 
ATOM     23  C   UNL     1       0.002  -0.004   0.002  0.00  0.00    +0.160 C 
ATOM     24  O   UNL     1       0.020  -0.616   1.049  0.00  0.00    -0.292 OA
ENDBRANCH   1  23
TORSDOF 2
