REMARK  Name = ZINC12805406
REMARK  8 active torsions:
REMARK  status: ('A' for Active; 'I' for Inactive)
REMARK    1  A    between atoms: C_1  and  C_2
REMARK    2  A    between atoms: C_8  and  N_10
REMARK    3  A    between atoms: C_11  and  C_31
REMARK    4  A    between atoms: C_14  and  S_15
REMARK    5  A    between atoms: S_15  and  C_16
REMARK    6  A    between atoms: C_16  and  C_17
REMARK    7  A    between atoms: N_19  and  C_20
REMARK    8  A    between atoms: C_21  and  C_28
REMARK                            x       y       z     vdW  Elec       q    Type
REMARK                         _______ _______ _______ _____ _____    ______ ____
ROOT
ATOM      1  S   UNL     1      -0.483   7.060   0.078  0.00  0.00    -0.077 S 
ENDROOT
BRANCH   1   6
ATOM      2  N   UNL     1       0.057   4.319   0.216  0.00  0.00    -0.299 N 
ATOM      3  C   UNL     1       1.172   3.521   0.104  0.00  0.00    +0.167 A 
ATOM      4  N   UNL     1       2.193   4.315  -0.118  0.00  0.00    -0.128 NA
ATOM      5  N   UNL     1       1.798   5.537  -0.161  0.00  0.00    -0.122 NA
ATOM      6  C   UNL     1       0.500   5.598   0.041  0.00  0.00    +0.193 A 
BRANCH   2  13
ATOM      7  C   UNL     1      -1.711   3.685  -1.989  0.00  0.00    +0.009 C 
ATOM      8  C   UNL     1      -2.214   4.321  -0.692  0.00  0.00    +0.009 C 
ATOM      9  C   UNL     1      -2.175   5.845  -0.823  0.00  0.00    +0.005 C 
ATOM     10  C   UNL     1      -2.678   6.482   0.475  0.00  0.00    +0.000 C 
ATOM     11  C   UNL     1      -1.783   6.046   1.637  0.00  0.00    +0.002 C 
ATOM     12  C   UNL     1      -1.823   4.522   1.768  0.00  0.00    +0.025 C 
ATOM     13  C   UNL     1      -1.319   3.886   0.470  0.00  0.00    +0.094 C 
ENDBRANCH   2  13
BRANCH   3  14
ATOM     14  C   UNL     1       1.213   2.047   0.218  0.00  0.00    +0.037 A 
ATOM     15  C   UNL     1       2.346   1.405   0.733  0.00  0.00    +0.014 A 
ATOM     16  C   UNL     1       2.334   0.024   0.819  0.00  0.00    +0.020 A 
ATOM     17  C   UNL     1       1.214  -0.671   0.397  0.00  0.00    +0.111 A 
ATOM     18  N   UNL     1       0.161  -0.039  -0.084  0.00  0.00    -0.263 NA
ATOM     19  C   UNL     1       0.124   1.274  -0.185  0.00  0.00    +0.122 A 
ENDBRANCH   3  14
ENDBRANCH   1   6
BRANCH   1  20
ATOM     20  C   UNL     1       0.794   8.306  -0.227  0.00  0.00    +0.173 C 
BRANCH  20  21
ATOM     21  C   UNL     1       0.166   9.676  -0.239  0.00  0.00    +0.228 C 
ATOM     22  O   UNL     1      -1.027   9.798  -0.059  0.00  0.00    -0.275 OA
ATOM     23  N   UNL     1       0.930  10.766  -0.450  0.00  0.00    -0.279 N 
ATOM     24  H   UNL     1       1.885  10.668  -0.594  0.00  0.00    +0.155 HD
BRANCH  23  25
ATOM     25  C   UNL     1       0.353  12.026  -0.461  0.00  0.00    +0.084 A 
ATOM     26  C   UNL     1       0.966  13.252  -0.653  0.00  0.00    +0.068 A 
ATOM     27  C   UNL     1       0.121  14.445  -0.622  0.00  0.00    -0.023 A 
ATOM     28  C   UNL     1      -1.185  14.214  -0.394  0.00  0.00    -0.004 A 
ATOM     29  S   UNL     1      -1.310  12.450  -0.230  0.00  0.00    -0.077 S 
ATOM     30  C   UNL     1      -1.986  15.487  -0.366  0.00  0.00    +0.043 C 
ATOM     31  C   UNL     1      -0.936  16.604  -0.181  0.00  0.00    +0.010 C 
ATOM     32  C   UNL     1       0.325  15.952  -0.780  0.00  0.00    +0.037 C 
BRANCH  26  33
ATOM     33  C   UNL     1       2.411  13.351  -0.884  0.00  0.00    +0.244 C 
ATOM     34  O   UNL     1       2.850  13.309  -2.018  0.00  0.00    -0.270 OA
ATOM     35  N   UNL     1       3.252  13.487   0.160  0.00  0.00    -0.325 N 
ATOM     36  H   UNL     1       2.902  13.520   1.064  0.00  0.00    +0.145 HD
ATOM     37  H   UNL     1       4.208  13.552   0.008  0.00  0.00    +0.145 HD
ENDBRANCH  26  33
ENDBRANCH  23  25
ENDBRANCH  20  21
ENDBRANCH   1  20
TORSDOF 7
