REMARK  Name = ZINC12315985
REMARK  6 active torsions:
REMARK  status: ('A' for Active; 'I' for Inactive)
REMARK    1  A    between atoms: C_9  and  S_11
REMARK    2  A    between atoms: S_11  and  N_14
REMARK    3  A    between atoms: N_14  and  C_15
REMARK    4  A    between atoms: C_15  and  C_16
REMARK    5  A    between atoms: C_22  and  C_23
REMARK    6  A    between atoms: C_22  and  N_58
REMARK                            x       y       z     vdW  Elec       q    Type
REMARK                         _______ _______ _______ _____ _____    ______ ____
ROOT
ATOM      1  C   UNL     1       5.538  -2.223  -3.001  0.00  0.00    -0.012 C 
ATOM      2  C   UNL     1       5.861  -0.931  -3.755  0.00  0.00    +0.001 C 
ATOM      3  C   UNL     1       4.683   0.038  -3.621  0.00  0.00    -0.018 C 
ATOM      4  C   UNL     1       4.412   0.302  -2.138  0.00  0.00    -0.078 C 
ATOM      5  C   UNL     1       5.242  -1.893  -1.536  0.00  0.00    -0.074 C 
ATOM      6  N   UNL     1       4.083  -0.977  -1.474  0.00  0.00    +0.383 N 
ATOM      7  H   UNL     1       3.290  -1.411  -1.961  0.00  0.00    -0.081 HD
ENDROOT
BRANCH   1   8
ATOM      8  C   UNL     1       6.734  -3.173  -3.079  0.00  0.00    +0.107 C 
BRANCH   8   9
ATOM      9  N   UNL     1       6.945  -3.580  -4.471  0.00  0.00    -0.190 NA
ATOM     10  H   UNL     1       6.250  -3.429  -5.130  0.00  0.00    +0.148 HD
BRANCH   9  11
ATOM     11  S   UNL     1       8.370  -4.296  -4.917  0.00  0.00    +0.060 S 
ATOM     12  O   UNL     1       8.259  -4.592  -6.303  0.00  0.00    -0.153 OA
ATOM     13  O   UNL     1       9.413  -3.487  -4.392  0.00  0.00    -0.153 OA
BRANCH  11  22
ATOM     14  C   UNL     1       8.512  -8.239  -4.141  0.00  0.00    +0.003 A 
ATOM     15  C   UNL     1       8.604  -8.315  -2.784  0.00  0.00    +0.010 A 
ATOM     16  C   UNL     1       8.626  -7.136  -2.023  0.00  0.00    +0.002 A 
ATOM     17  C   UNL     1       8.719  -7.171  -0.619  0.00  0.00    +0.011 A 
ATOM     18  C   UNL     1       8.753  -5.983   0.055  0.00  0.00    +0.020 A 
ATOM     19  C   UNL     1       8.680  -4.782  -0.649  0.00  0.00    +0.111 A 
ATOM     20  N   UNL     1       8.587  -4.754  -1.956  0.00  0.00    -0.253 NA
ATOM     21  C   UNL     1       8.559  -5.880  -2.676  0.00  0.00    +0.097 A 
ATOM     22  C   UNL     1       8.461  -5.843  -4.078  0.00  0.00    +0.131 A 
ATOM     23  C   UNL     1       8.441  -7.006  -4.784  0.00  0.00    +0.031 A 
ENDBRANCH  11  22
ENDBRANCH   9  11
ENDBRANCH   8   9
ENDBRANCH   1   8
BRANCH   6  24
ATOM     24  C   UNL     1       3.707  -0.733  -0.067  0.00  0.00    -0.043 C 
BRANCH  24  25
ATOM     25  C   UNL     1       2.398   0.013  -0.037  0.00  0.00    -0.063 A 
ATOM     26  C   UNL     1       1.203  -0.682  -0.021  0.00  0.00    +0.005 A 
ATOM     27  C   UNL     1       0.002  -0.004   0.002  0.00  0.00    +0.046 A 
ATOM     28  C   UNL     1      -0.017   1.389   0.010  0.00  0.00    +0.124 A 
ATOM     29  C   UNL     1       1.190   2.076   0.002  0.00  0.00    -0.002 A 
ATOM     30  C   UNL     1       2.388   1.397  -0.025  0.00  0.00    +0.009 A 
ATOM     31  C   UNL     1       0.859   3.555   0.037  0.00  0.00    +0.080 C 
ATOM     32  C   UNL     1      -0.629   3.541   0.459  0.00  0.00    +0.234 C 
ATOM     33  O   UNL     1      -1.073   2.248   0.014  0.00  0.00    -0.491 OA
ENDBRANCH  24  25
ENDBRANCH   6  24
TORSDOF 6
