REMARK  Name = ZINC03885259
REMARK  3 active torsions:
REMARK  status: ('A' for Active; 'I' for Inactive)
REMARK    1  A    between atoms: C_4  and  C_7
REMARK    2  A    between atoms: N_8  and  S_9
REMARK    3  A    between atoms: S_9  and  C_12
REMARK                            x       y       z     vdW  Elec       q    Type
REMARK                         _______ _______ _______ _____ _____    ______ ____
ROOT
ATOM      1  C   UNL     1       3.695  -0.684  -0.038  0.00  0.00    +0.158 C 
ATOM      2  N   UNL     1       3.715  -1.979  -0.046  0.00  0.00    -0.116 NA
ATOM      3 CL   UNL     1       5.184   0.208  -0.049  0.00  0.00    -0.060 Cl
ENDROOT
BRANCH   1   7
ATOM      4  C   UNL     1      -0.017   1.379   0.010  0.00  0.00    +0.000 A 
ATOM      5  C   UNL     1       1.168   2.094   0.002  0.00  0.00    +0.001 A 
ATOM      6  C   UNL     1       2.377   1.429  -0.013  0.00  0.00    +0.011 A 
ATOM      7  C   UNL     1       2.404   0.034  -0.021  0.00  0.00    +0.013 A 
ATOM      8  C   UNL     1       1.204  -0.681  -0.013  0.00  0.00    +0.011 A 
ATOM      9  C   UNL     1       0.002  -0.004   0.002  0.00  0.00    +0.001 A 
ENDBRANCH   1   7
BRANCH   2  10
ATOM     10  S   UNL     1       5.163  -2.783  -0.065  0.00  0.00    +0.106 S 
ATOM     11  O   UNL     1       5.772  -2.492  -1.315  0.00  0.00    -0.146 OA
ATOM     12  O   UNL     1       5.798  -2.506   1.175  0.00  0.00    -0.146 OA
BRANCH  10  13
ATOM     13  C   UNL     1       4.800  -4.508  -0.070  0.00  0.00    +0.150 A 
ATOM     14  C   UNL     1       4.619  -5.338  -1.126  0.00  0.00    +0.037 A 
ATOM     15  C   UNL     1       4.341  -6.671  -0.890  0.00  0.00    +0.010 A 
ATOM     16  C   UNL     1       4.257  -7.109   0.391  0.00  0.00    +0.047 A 
ATOM     17  S   UNL     1       4.584  -5.615   1.313  0.00  0.00    -0.076 S 
ENDBRANCH  10  13
ENDBRANCH   2  10
TORSDOF 3
