REMARK  Name = ZINC45924462
REMARK  7 active torsions:
REMARK  status: ('A' for Active; 'I' for Inactive)
REMARK    1  A    between atoms: C_1  and  C_2
REMARK    2  A    between atoms: C_2  and  C_4
REMARK    3  A    between atoms: C_2  and  C_27
REMARK    4  A    between atoms: C_4  and  N_5
REMARK    5  A    between atoms: C_17  and  S_18
REMARK    6  A    between atoms: S_18  and  C_19
REMARK    7  A    between atoms: C_19  and  C_20
REMARK                            x       y       z     vdW  Elec       q    Type
REMARK                         _______ _______ _______ _____ _____    ______ ____
ROOT
ATOM      1  N   UNL     1       2.148  -0.104   1.172  0.00  0.00    -0.276 N 
ATOM      2  C   UNL     1       3.055  -0.906   0.574  0.00  0.00    +0.270 A 
ATOM      3  O   UNL     1       2.710  -1.970   0.090  0.00  0.00    -0.266 OA
ATOM      4  C   UNL     1       4.397  -0.505   0.513  0.00  0.00    +0.101 A 
ATOM      5  C   UNL     1       4.830   0.705   1.054  0.00  0.00    +0.071 A 
ATOM      6  C   UNL     1       6.195   0.933   0.898  0.00  0.00    +0.035 A 
ATOM      7  C   UNL     1       6.959   0.014   0.268  0.00  0.00    +0.048 A 
ATOM      8  S   UNL     1       5.883  -1.208  -0.150  0.00  0.00    -0.090 S 
ATOM      9  N   UNL     1       3.852   1.509   1.668  0.00  0.00    -0.255 N 
ATOM     10  C   UNL     1       2.548   1.108   1.714  0.00  0.00    +0.240 A 
ATOM     11  N   UNL     1       1.862   2.045   2.331  0.00  0.00    -0.109 NA
ATOM     12  N   UNL     1       2.747   3.071   2.681  0.00  0.00    -0.120 NA
ATOM     13  C   UNL     1       3.948   2.727   2.281  0.00  0.00    +0.198 A 
ENDROOT
BRANCH   1  14
ATOM     14  C   UNL     1       0.742  -0.511   1.242  0.00  0.00    +0.136 C 
BRANCH  14  16
ATOM     15  C   UNL     1      -0.019   1.526   0.010  0.00  0.00    +0.014 C 
ATOM     16  C   UNL     1       0.002  -0.004   0.002  0.00  0.00    +0.036 C 
BRANCH  16  17
ATOM     17  C   UNL     1      -1.412  -0.526   0.013  0.00  0.00    -0.043 A 
ATOM     18  C   UNL     1      -2.259  -0.204   1.056  0.00  0.00    +0.004 A 
ATOM     19  C   UNL     1      -3.556  -0.683   1.066  0.00  0.00    +0.000 A 
ATOM     20  C   UNL     1      -4.006  -1.482   0.032  0.00  0.00    +0.000 A 
ATOM     21  C   UNL     1      -3.159  -1.803  -1.012  0.00  0.00    +0.000 A 
ATOM     22  C   UNL     1      -1.863  -1.321  -1.024  0.00  0.00    +0.004 A 
ENDBRANCH  16  17
ENDBRANCH  14  16
ENDBRANCH   1  14
BRANCH  13  23
ATOM     23  S   UNL     1       5.419   3.676   2.478  0.00  0.00    -0.081 S 
BRANCH  23  24
ATOM     24  C   UNL     1       4.868   5.162   3.360  0.00  0.00    +0.112 C 
BRANCH  24  25
ATOM     25  C   UNL     1       6.046   6.072   3.596  0.00  0.00    -0.037 A 
ATOM     26  C   UNL     1       6.800   5.942   4.747  0.00  0.00    +0.005 A 
ATOM     27  C   UNL     1       7.880   6.776   4.964  0.00  0.00    +0.015 A 
ATOM     28  C   UNL     1       8.208   7.741   4.028  0.00  0.00    +0.018 A 
ATOM     29  C   UNL     1       7.453   7.870   2.876  0.00  0.00    +0.015 A 
ATOM     30  C   UNL     1       6.376   7.032   2.658  0.00  0.00    +0.005 A 
ATOM     31 BR   UNL     1       9.686   8.883   4.324  0.00  0.00    -0.050 Br
ENDBRANCH  24  25
ENDBRANCH  23  24
ENDBRANCH  13  23
TORSDOF 6
