REMARK  Name = ZINC14988893
REMARK  11 active torsions:
REMARK  status: ('A' for Active; 'I' for Inactive)
REMARK    1  A    between atoms: C_1  and  C_2
REMARK    2  A    between atoms: C_2  and  C_3
REMARK    3  A    between atoms: C_3  and  C_4
REMARK    4  A    between atoms: C_4  and  C_19
REMARK    5  A    between atoms: N_7  and  C_11
REMARK    6  A    between atoms: C_11  and  C_12
REMARK    7  A    between atoms: C_12  and  C_13
REMARK    8  A    between atoms: C_18  and  N_69
REMARK    9  A    between atoms: C_24  and  C_25
REMARK   10  A    between atoms: C_24  and  N_71
REMARK   11  A    between atoms: C_26  and  C_27
REMARK                            x       y       z     vdW  Elec       q    Type
REMARK                         _______ _______ _______ _____ _____    ______ ____
ROOT
ATOM      1  C   UNL     1      -0.135   0.822   0.039  0.00  0.00    +0.115 C 
ATOM      2  C   UNL     1       1.257   1.421   0.040  0.00  0.00    +0.247 C 
ATOM      3  O   UNL     1       1.548   2.598   0.071  0.00  0.00    -0.273 OA
ATOM      4  N   UNL     1       2.105   0.374  -0.003  0.00  0.00    -0.224 N 
ATOM      5  C   UNL     1       1.448  -0.792  -0.030  0.00  0.00    +0.309 C 
ATOM      6  O   UNL     1       1.997  -1.875  -0.070  0.00  0.00    -0.252 OA
ATOM      7  N   UNL     1       0.113  -0.630  -0.008  0.00  0.00    -0.285 N 
ATOM      8  H   UNL     1      -0.556  -1.332  -0.022  0.00  0.00    +0.151 HD
ENDROOT
BRANCH   1   9
ATOM      9  C   UNL     1      -0.884   1.199   1.319  0.00  0.00    +0.018 C 
ATOM     10  C   UNL     1      -1.216   2.693   1.296  0.00  0.00    -0.013 C 
ATOM     11  C   UNL     1      -1.910   3.076   2.605  0.00  0.00    -0.078 C 
ATOM     12  C   UNL     1      -0.733   1.333   3.807  0.00  0.00    -0.078 C 
ATOM     13  C   UNL     1      -0.003   0.897   2.534  0.00  0.00    -0.013 C 
ATOM     14  N   UNL     1      -1.002   2.784   3.734  0.00  0.00    +0.382 N 
ATOM     15  H   UNL     1      -0.115   3.280   3.584  0.00  0.00    -0.081 HD
BRANCH  14  16
ATOM     16  C   UNL     1      -1.604   3.251   5.000  0.00  0.00    -0.051 C 
BRANCH  16  17
ATOM     17  C   UNL     1      -2.117   4.656   4.815  0.00  0.00    -0.042 C 
ATOM     18  C   UNL     1      -3.380   4.947   5.109  0.00  0.00    +0.040 C 
BRANCH  18  19
ATOM     19  C   UNL     1      -3.881   6.318   4.928  0.00  0.00    +0.127 A 
ATOM     20  C   UNL     1      -5.146   6.748   5.190  0.00  0.00    +0.049 A 
ATOM     21  C   UNL     1      -5.181   8.120   4.875  0.00  0.00    +0.042 A 
ATOM     22  C   UNL     1      -3.950   8.458   4.441  0.00  0.00    +0.195 A 
ATOM     23  O   UNL     1      -3.166   7.368   4.480  0.00  0.00    -0.464 OA
ENDBRANCH  18  19
ENDBRANCH  16  17
ENDBRANCH  14  16
ENDBRANCH   1   9
BRANCH   1  24
ATOM     24  C   UNL     1      -0.915   1.275  -1.196  0.00  0.00    +0.035 C 
BRANCH  24  26
ATOM     25  C   UNL     1      -0.959   1.278  -3.695  0.00  0.00    +0.004 C 
ATOM     26  C   UNL     1      -0.178   0.825  -2.459  0.00  0.00    -0.001 C 
ENDBRANCH  24  26
ENDBRANCH   1  24
BRANCH   4  27
ATOM     27  C   UNL     1       3.564   0.496  -0.018  0.00  0.00    +0.116 C 
BRANCH  27  28
ATOM     28  C   UNL     1       4.054   0.583  -1.465  0.00  0.00    +0.004 C 
BRANCH  28  29
ATOM     29  C   UNL     1       5.584   0.568  -1.488  0.00  0.00    -0.068 C 
ATOM     30  C   UNL     1       6.102   0.640  -2.946  0.00  0.00    -0.017 C 
ATOM     31  C   UNL     1       7.521   1.235  -2.745  0.00  0.00    -0.020 C 
ATOM     32  C   UNL     1       7.322   2.217  -1.571  0.00  0.00    -0.079 C 
ATOM     33  C   UNL     1       6.429   1.528   0.577  0.00  0.00    -0.096 C 
ATOM     34  N   UNL     1       6.111   1.791  -0.850  0.00  0.00    +0.380 N 
ATOM     35  H   UNL     1       5.405   2.534  -0.905  0.00  0.00    -0.082 HD
ENDBRANCH  28  29
ENDBRANCH  27  28
ENDBRANCH   4  27
TORSDOF 9
