REMARK  Name = ZINC46735897
REMARK  12 active torsions:
REMARK  status: ('A' for Active; 'I' for Inactive)
REMARK    1  A    between atoms: C_1  and  C_2
REMARK    2  A    between atoms: C_2  and  C_34
REMARK    3  A    between atoms: C_8  and  O_11
REMARK    4  A    between atoms: O_11  and  C_12
REMARK    5  A    between atoms: C_12  and  C_13
REMARK    6  A    between atoms: C_13  and  N_14
REMARK    7  A    between atoms: C_15  and  C_17
REMARK    8  A    between atoms: C_17  and  N_18
REMARK    9  A    between atoms: C_24  and  C_27
REMARK   10  A    between atoms: C_27  and  C_28
REMARK   11  A    between atoms: C_27  and  C_29
REMARK   12  A    between atoms: C_27  and  C_30
REMARK                            x       y       z     vdW  Elec       q    Type
REMARK                         _______ _______ _______ _____ _____    ______ ____
ROOT
ATOM      1  N   UNL     1       3.019  -1.952   5.611  0.00  0.00    -0.311 N 
ATOM      2  C   UNL     1       2.583  -2.098   6.878  0.00  0.00    +0.231 C 
ATOM      3  O   UNL     1       2.879  -1.276   7.719  0.00  0.00    -0.274 OA
ATOM      4  H   UNL     1       2.782  -2.609   4.938  0.00  0.00    +0.149 HD
ENDROOT
BRANCH   1   5
ATOM      5  C   UNL     1       3.850  -0.801   5.250  0.00  0.00    +0.145 C 
BRANCH   5   6
ATOM      6  C   UNL     1       4.205  -0.874   3.764  0.00  0.00    +0.248 C 
BRANCH   6   7
ATOM      7  O   UNL     1       3.016  -0.742   2.983  0.00  0.00    -0.487 OA
BRANCH   7  15
ATOM      8  C   UNL     1      -0.019   1.526   0.010  0.00  0.00    +0.056 C 
ATOM      9  C   UNL     1       0.002  -0.004   0.002  0.00  0.00    +0.109 C 
ATOM     10  C   UNL     1       0.832  -0.534  -1.191  0.00  0.00    +0.086 C 
ATOM     11  C   UNL     1       2.204  -0.704  -0.568  0.00  0.00    +0.002 A 
ATOM     12  C   UNL     1       3.456  -0.875  -1.120  0.00  0.00    +0.007 A 
ATOM     13  C   UNL     1       4.564  -1.000  -0.301  0.00  0.00    +0.004 A 
ATOM     14  C   UNL     1       4.412  -0.953   1.073  0.00  0.00    +0.049 A 
ATOM     15  C   UNL     1       3.157  -0.786   1.631  0.00  0.00    +0.162 A 
ATOM     16  C   UNL     1       2.034  -0.662   0.808  0.00  0.00    +0.166 A 
ATOM     17  O   UNL     1       0.721  -0.510   1.139  0.00  0.00    -0.482 OA
ATOM     18  C   UNL     1      -1.422  -0.563  -0.032  0.00  0.00    +0.056 C 
ENDBRANCH   7  15
ENDBRANCH   6   7
ENDBRANCH   5   6
ENDBRANCH   1   5
BRANCH   2  19
ATOM     19  C   UNL     1       1.729  -3.282   7.249  0.00  0.00    +0.213 C 
BRANCH  19  20
ATOM     20  N   UNL     1       1.389  -3.212   8.672  0.00  0.00    -0.215 N 
ATOM     21  C   UNL     1       2.133  -3.756   9.658  0.00  0.00    +0.247 C 
ATOM     22  O   UNL     1       3.170  -4.372   9.539  0.00  0.00    -0.273 OA
ATOM     23  C   UNL     1       1.401  -3.434  10.941  0.00  0.00    +0.113 C 
ATOM     24  C   UNL     1       0.980  -4.718  11.648  0.00  0.00    +0.035 C 
ATOM     25  C   UNL     1       0.215  -4.370  12.928  0.00  0.00    +0.006 C 
ATOM     26  C   UNL     1       1.109  -3.533  13.844  0.00  0.00    -0.005 C 
ATOM     27  C   UNL     1       1.504  -2.239  13.129  0.00  0.00    +0.006 C 
ATOM     28  C   UNL     1       2.274  -2.578  11.851  0.00  0.00    +0.035 C 
ATOM     29  N   UNL     1       0.222  -2.679  10.499  0.00  0.00    -0.285 N 
ATOM     30  C   UNL     1       0.304  -2.596   9.157  0.00  0.00    +0.310 C 
ATOM     31  O   UNL     1      -0.517  -2.027   8.464  0.00  0.00    -0.252 OA
ATOM     32  H   UNL     1      -0.477  -2.311  11.062  0.00  0.00    +0.151 HD
BRANCH  26  33
ATOM     33  C   UNL     1       0.350  -3.195  15.128  0.00  0.00    -0.035 C 
ATOM     34  C   UNL     1      -0.044  -4.489  15.843  0.00  0.00    +0.011 C 
ATOM     35  C   UNL     1       1.244  -2.358  16.044  0.00  0.00    +0.011 C 
ATOM     36  C   UNL     1      -0.911  -2.401  14.781  0.00  0.00    +0.011 C 
ENDBRANCH  26  33
ENDBRANCH  19  20
ENDBRANCH   2  19
TORSDOF 7
