REMARK  Name = ZINC20420372
REMARK  6 active torsions:
REMARK  status: ('A' for Active; 'I' for Inactive)
REMARK    1  A    between atoms: C_1  and  C_2
REMARK    2  A    between atoms: C_6  and  C_15
REMARK    3  A    between atoms: C_7  and  N_8
REMARK    4  A    between atoms: N_8  and  C_9
REMARK    5  A    between atoms: C_9  and  C_11
REMARK    6  A    between atoms: C_9  and  C_12
REMARK                            x       y       z     vdW  Elec       q    Type
REMARK                         _______ _______ _______ _____ _____    ______ ____
ROOT
ATOM      1  C   UNL     1      -2.783   1.317  -0.701  0.00  0.00    +0.046 C 
ATOM      2  C   UNL     1      -1.527   2.140  -0.580  0.00  0.00    -0.028 A 
ATOM      3  C   UNL     1      -0.299   1.573  -0.859  0.00  0.00    +0.020 A 
ATOM      4  C   UNL     1       0.854   2.330  -0.754  0.00  0.00    +0.018 A 
ATOM      5  C   UNL     1       0.782   3.656  -0.364  0.00  0.00    +0.020 A 
ATOM      6  C   UNL     1      -0.443   4.227  -0.080  0.00  0.00    -0.028 A 
ATOM      7  C   UNL     1      -1.602   3.470  -0.185  0.00  0.00    +0.034 A 
ATOM      8  C   UNL     1      -0.521   5.671   0.344  0.00  0.00    +0.046 C 
ATOM      9 BR   UNL     1       2.533   1.551  -1.143  0.00  0.00    -0.050 Br
ENDROOT
BRANCH   7  10
ATOM     10  N   UNL     1      -2.843   4.045   0.103  0.00  0.00    -0.333 N 
ATOM     11  H   UNL     1      -3.600   4.440  -0.591  0.00  0.00    +0.147 HD
BRANCH  10  12
ATOM     12  C   UNL     1      -3.081   4.086   1.552  0.00  0.00    +0.153 C 
ATOM     13  C   UNL     1      -3.725   2.773   2.000  0.00  0.00    +0.037 C 
BRANCH  12  14
ATOM     14  C   UNL     1      -4.002   5.234   1.877  0.00  0.00    +0.230 C 
ATOM     15  O   UNL     1      -4.418   5.948   0.990  0.00  0.00    -0.274 OA
ATOM     16  N   UNL     1      -4.362   5.467   3.155  0.00  0.00    -0.328 N 
ATOM     17  H   UNL     1      -5.034   6.305   3.392  0.00  0.00    +0.145 HD
ATOM     18  H   UNL     1      -3.984   4.820   3.960  0.00  0.00    +0.145 HD
ENDBRANCH  12  14
ENDBRANCH  10  12
ENDBRANCH   7  10
TORSDOF 3
