REMARK  Name = ZINC11867534
REMARK  6 active torsions:
REMARK  status: ('A' for Active; 'I' for Inactive)
REMARK    1  A    between atoms: C_1  and  C_2
REMARK    2  A    between atoms: C_3  and  C_14
REMARK    3  A    between atoms: C_5  and  C_7
REMARK    4  A    between atoms: C_14  and  O_16
REMARK    5  A    between atoms: O_16  and  C_17
REMARK    6  A    between atoms: C_21  and  N_23
REMARK                            x       y       z     vdW  Elec       q    Type
REMARK                         _______ _______ _______ _____ _____    ______ ____
ROOT
ATOM      1  C   UNL     1       3.794   7.370   0.365  0.00  0.00    +0.054 C 
ATOM      2  C   UNL     1       2.401   7.946   0.356  0.00  0.00    +0.021 A 
ATOM      3  C   UNL     1       1.185   7.294   0.251  0.00  0.00    +0.159 A 
ATOM      4  N   UNL     1       0.072   8.012   0.270  0.00  0.00    -0.232 NA
ATOM      5  C   UNL     1       0.135   9.326   0.382  0.00  0.00    +0.109 A 
ATOM      6  S   UNL     1       1.897   9.604   0.471  0.00  0.00    -0.072 S 
ENDROOT
BRANCH   5   7
ATOM      7  C   UNL     1      -0.967  10.312   0.425  0.00  0.00    +0.007 A 
ATOM      8  C   UNL     1      -0.684  11.672   0.555  0.00  0.00    +0.013 A 
ATOM      9  C   UNL     1      -1.715  12.587   0.589  0.00  0.00    +0.039 A 
ATOM     10  C   UNL     1      -3.030  12.157   0.504  0.00  0.00    +0.123 A 
ATOM     11  C   UNL     1      -3.316  10.807   0.380  0.00  0.00    +0.039 A 
ATOM     12  C   UNL     1      -2.292   9.884   0.340  0.00  0.00    +0.013 A 
ATOM     13  F   UNL     1      -4.037  13.058   0.543  0.00  0.00    -0.205 F 
ENDBRANCH   5   7
BRANCH   3  14
ATOM     14  C   UNL     1       1.129   5.829   0.126  0.00  0.00    +0.364 C 
ATOM     15  O   UNL     1       2.157   5.181   0.110  0.00  0.00    -0.243 OA
BRANCH  14  16
ATOM     16  O   UNL     1      -0.062   5.206   0.030  0.00  0.00    -0.421 OA
BRANCH  16  17
ATOM     17  C   UNL     1      -0.051   3.847   0.039  0.00  0.00    +0.134 A 
ATOM     18  C   UNL     1       0.290   3.163   1.199  0.00  0.00    +0.046 A 
ATOM     19  C   UNL     1       0.303   1.782   1.210  0.00  0.00    +0.005 A 
ATOM     20  C   UNL     1      -0.023   1.076   0.067  0.00  0.00    +0.023 A 
ATOM     21  C   UNL     1      -0.359   1.755  -1.097  0.00  0.00    +0.028 A 
ATOM     22  C   UNL     1      -0.378   3.143  -1.109  0.00  0.00    +0.069 A 
BRANCH  21  23
ATOM     23  N   UNL     1      -0.682   1.041  -2.254  0.00  0.00    -0.358 N 
ATOM     24  H   UNL     1      -0.672   0.071  -2.244  0.00  0.00    +0.142 HD
ATOM     25  H   UNL     1      -0.917   1.516  -3.067  0.00  0.00    +0.142 HD
ENDBRANCH  21  23
ENDBRANCH  16  17
ENDBRANCH  14  16
ENDBRANCH   3  14
TORSDOF 5
