REMARK  Name = ZINC39686601
REMARK  9 active torsions:
REMARK  status: ('A' for Active; 'I' for Inactive)
REMARK    1  A    between atoms: C_1  and  C_2
REMARK    2  A    between atoms: C_2  and  C_4
REMARK    3  A    between atoms: C_2  and  N_13
REMARK    4  A    between atoms: C_4  and  C_5
REMARK    5  A    between atoms: C_10  and  O_11
REMARK    6  A    between atoms: O_11  and  C_12
REMARK    7  A    between atoms: C_14  and  C_16
REMARK    8  A    between atoms: C_27  and  C_29
REMARK    9  A    between atoms: N_33  and  C_34
REMARK                            x       y       z     vdW  Elec       q    Type
REMARK                         _______ _______ _______ _____ _____    ______ ____
ROOT
ATOM      1  C   UNL     1      -1.423  -1.960   2.304  0.00  0.00    +0.100 C 
ATOM      2  C   UNL     1      -2.616  -2.942   2.305  0.00  0.00    +0.121 C 
ATOM      3  N   UNL     1      -2.548  -3.613   3.624  0.00  0.00    -0.295 N 
ATOM      4  C   UNL     1      -2.162  -2.535   4.566  0.00  0.00    +0.115 C 
ATOM      5  C   UNL     1      -1.130  -1.693   3.789  0.00  0.00    -0.004 C 
ATOM      6  C   UNL     1      -1.312  -0.211   4.105  0.00  0.00    -0.010 C 
ATOM      7  C   UNL     1      -0.959   0.040   5.574  0.00  0.00    -0.082 C 
ATOM      8  N   UNL     1       0.429  -0.367   5.822  0.00  0.00    +0.379 N 
ATOM      9  C   UNL     1       0.574  -1.812   5.606  0.00  0.00    -0.082 C 
ATOM     10  C   UNL     1       0.285  -2.141   4.138  0.00  0.00    -0.010 C 
ATOM     11  C   UNL     1      -2.785  -4.910   3.905  0.00  0.00    +0.263 C 
ATOM     12  O   UNL     1      -3.041  -5.690   3.007  0.00  0.00    -0.268 OA
ATOM     13  H   UNL     1       1.041   0.129   5.192  0.00  0.00    -0.086 HD
ATOM     14  H   UNL     1       0.679  -0.144   6.774  0.00  0.00    -0.086 HD
ENDROOT
BRANCH  11  15
ATOM     15  C   UNL     1      -2.733  -5.380   5.293  0.00  0.00    +0.104 A 
ATOM     16  C   UNL     1      -1.959  -6.415   5.775  0.00  0.00    +0.032 A 
ATOM     17  C   UNL     1      -2.220  -6.520   7.145  0.00  0.00    +0.020 A 
ATOM     18  C   UNL     1      -3.129  -5.569   7.469  0.00  0.00    +0.086 A 
ATOM     19  N   UNL     1      -3.445  -4.867   6.354  0.00  0.00    -0.346 N 
ATOM     20  C   UNL     1      -4.389  -3.748   6.287  0.00  0.00    +0.149 C 
ENDBRANCH  11  15
BRANCH   1  22
ATOM     21  N   UNL     1       0.545  -1.860   0.809  0.00  0.00    -0.312 N 
ATOM     22  C   UNL     1      -0.227  -2.590   1.638  0.00  0.00    +0.218 C 
ATOM     23  O   UNL     1       0.042  -3.754   1.849  0.00  0.00    -0.275 OA
ATOM     24  H   UNL     1       0.374  -0.912   0.697  0.00  0.00    +0.149 HD
BRANCH  21  26
ATOM     25  C   UNL     1       2.894  -2.526   0.956  0.00  0.00    +0.028 C 
ATOM     26  C   UNL     1       1.642  -2.499   0.077  0.00  0.00    +0.074 C 
BRANCH  26  27
ATOM     27  C   UNL     1       1.932  -1.707  -1.200  0.00  0.00    +0.060 C 
BRANCH  27  28
ATOM     28  C   UNL     1       0.749  -1.799  -2.127  0.00  0.00    -0.004 A 
ATOM     29  C   UNL     1       0.682  -2.811  -3.066  0.00  0.00    +0.007 A 
ATOM     30  C   UNL     1      -0.404  -2.895  -3.917  0.00  0.00    +0.000 A 
ATOM     31  C   UNL     1      -1.425  -1.967  -3.833  0.00  0.00    +0.004 A 
ATOM     32  C   UNL     1      -1.364  -0.954  -2.896  0.00  0.00    +0.046 A 
ATOM     33  C   UNL     1      -0.278  -0.870  -2.037  0.00  0.00    +0.123 A 
BRANCH  33  34
ATOM     34  O   UNL     1      -0.218   0.123  -1.111  0.00  0.00    -0.495 OA
ATOM     35  C   UNL     1      -1.253   1.108  -1.147  0.00  0.00    +0.277 C 
ENDBRANCH  33  34
ENDBRANCH  27  28
ENDBRANCH  26  27
ENDBRANCH  21  26
ENDBRANCH   1  22
TORSDOF 6
