REMARK  Name = ZINC45202953
REMARK  11 active torsions:
REMARK  status: ('A' for Active; 'I' for Inactive)
REMARK    1  A    between atoms: C_1  and  C_2
REMARK    2  A    between atoms: C_2  and  C_3
REMARK    3  A    between atoms: C_3  and  C_4
REMARK    4  A    between atoms: C_4  and  C_5
REMARK    5  A    between atoms: C_5  and  C_6
REMARK    6  A    between atoms: C_8  and  O_36
REMARK    7  A    between atoms: C_13  and  C_34
REMARK    8  A    between atoms: C_13  and  C_35
REMARK    9  A    between atoms: C_15  and  C_17
REMARK   10  A    between atoms: N_20  and  C_23
REMARK   11  A    between atoms: C_23  and  C_24
REMARK                            x       y       z     vdW  Elec       q    Type
REMARK                         _______ _______ _______ _____ _____    ______ ____
ROOT
ATOM      1  C   UNL     1       1.476  -4.028  -2.532  0.00  0.00    -0.040 A 
ATOM      2  C   UNL     1       2.524  -4.707  -1.942  0.00  0.00    +0.049 A 
ATOM      3  C   UNL     1       2.542  -6.093  -1.952  0.00  0.00    +0.124 A 
ATOM      4  C   UNL     1       1.508  -6.802  -2.553  0.00  0.00    +0.043 A 
ATOM      5  C   UNL     1       0.458  -6.120  -3.140  0.00  0.00    +0.129 A 
ATOM      6  C   UNL     1       0.444  -4.728  -3.124  0.00  0.00    +0.049 A 
ATOM      7  O   UNL     1      -0.579  -6.772  -3.728  0.00  0.00    -0.486 OA
ATOM      8  C   UNL     1      -0.397  -8.147  -4.066  0.00  0.00    +0.106 C 
ATOM      9  C   UNL     1       0.172  -8.876  -2.842  0.00  0.00    +0.060 C 
ATOM     10  C   UNL     1       1.563  -8.309  -2.550  0.00  0.00    +0.055 C 
ATOM     11  C   UNL     1       0.581  -8.265  -5.237  0.00  0.00    +0.055 C 
ATOM     12  C   UNL     1      -1.742  -8.764  -4.454  0.00  0.00    +0.055 C 
ENDROOT
BRANCH  10  13
ATOM     13  C   UNL     1       2.028  -8.790  -1.199  0.00  0.00    -0.069 C 
ATOM     14  C   UNL     1       3.119  -9.491  -1.128  0.00  0.00    -0.046 C 
ATOM     15  C   UNL     1       3.668 -10.027   0.162  0.00  0.00    -0.051 C 
ATOM     16  N   UNL     1       3.085  -9.313   1.304  0.00  0.00    +0.385 N 
ATOM     17  C   UNL     1       1.618  -9.338   1.184  0.00  0.00    -0.074 C 
ATOM     18  C   UNL     1       1.213  -8.436   0.014  0.00  0.00    +0.012 C 
ATOM     19  H   UNL     1       3.407  -8.357   1.304  0.00  0.00    -0.081 HD
BRANCH  16  20
ATOM     20  C   UNL     1       3.488  -9.970   2.554  0.00  0.00    -0.041 C 
BRANCH  20  21
ATOM     21  C   UNL     1       4.980  -9.847   2.728  0.00  0.00    -0.045 A 
ATOM     22  C   UNL     1       5.809 -10.806   2.218  0.00  0.00    +0.013 A 
ATOM     23  C   UNL     1       7.196 -10.651   2.403  0.00  0.00    +0.001 A 
ATOM     24  C   UNL     1       8.110 -11.594   1.906  0.00  0.00    +0.010 A 
ATOM     25  C   UNL     1       9.444 -11.409   2.106  0.00  0.00    +0.001 A 
ATOM     26  C   UNL     1       9.915 -10.294   2.797  0.00  0.00    +0.002 A 
ATOM     27  C   UNL     1       9.057  -9.360   3.292  0.00  0.00    +0.028 A 
ATOM     28  C   UNL     1       7.673  -9.516   3.105  0.00  0.00    +0.071 A 
ATOM     29  N   UNL     1       6.807  -8.615   3.579  0.00  0.00    -0.255 NA
ATOM     30  C   UNL     1       5.515  -8.753   3.404  0.00  0.00    +0.113 A 
ENDBRANCH  20  21
ENDBRANCH  16  20
ENDBRANCH  10  13
BRANCH   3  31
ATOM     31  O   UNL     1       3.574  -6.762  -1.373  0.00  0.00    -0.506 OA
ATOM     32  H   UNL     1       3.435  -6.966  -0.439  0.00  0.00    +0.292 HD
ENDBRANCH   3  31
BRANCH   1  33
ATOM     33  C   UNL     1       1.455  -2.521  -2.524  0.00  0.00    +0.035 C 
BRANCH  33  34
ATOM     34  C   UNL     1       0.739  -2.027  -1.265  0.00  0.00    +0.005 C 
BRANCH  34  35
ATOM     35  C   UNL     1       0.718  -0.497  -1.257  0.00  0.00    +0.000 C 
BRANCH  35  37
ATOM     36  C   UNL     1      -0.019   1.526   0.010  0.00  0.00    +0.004 C 
ATOM     37  C   UNL     1       0.002  -0.004   0.002  0.00  0.00    -0.003 C 
ENDBRANCH  35  37
ENDBRANCH  34  35
ENDBRANCH  33  34
ENDBRANCH   1  33
TORSDOF 8
