REMARK  Name = ZINC62715469
REMARK  4 active torsions:
REMARK  status: ('A' for Active; 'I' for Inactive)
REMARK    1  A    between atoms: C_1  and  C_2
REMARK    2  A    between atoms: C_2  and  C_3
REMARK    3  A    between atoms: C_3  and  O_10
REMARK    4  A    between atoms: C_4  and  C_9
REMARK                            x       y       z     vdW  Elec       q    Type
REMARK                         _______ _______ _______ _____ _____    ______ ____
ROOT
ATOM      1  C   UNL     1       0.718  -0.497  -1.257  0.00  0.00    +0.182 C 
ATOM      2  C   UNL     1       0.554  -1.995  -1.411  0.00  0.00    +0.074 C 
ATOM      3  N   UNL     1      -0.065  -2.195  -2.508  0.00  0.00    -0.186 NA
ATOM      4  N   UNL     1      -0.378  -1.019  -3.182  0.00  0.00    -0.204 N 
ATOM      5  C   UNL     1       0.056   0.062  -2.502  0.00  0.00    +0.270 C 
ATOM      6  O   UNL     1      -0.058   1.228  -2.817  0.00  0.00    -0.270 OA
ATOM      7  C   UNL     1       1.034  -3.051  -0.449  0.00  0.00    +0.066 C 
ATOM      8  H   UNL     1      -0.847  -0.981  -4.030  0.00  0.00    +0.177 HD
ENDROOT
BRANCH   1  10
ATOM      9  C   UNL     1      -0.019   1.526   0.010  0.00  0.00    +0.007 C 
ATOM     10  C   UNL     1       0.002  -0.004   0.002  0.00  0.00    +0.047 C 
ENDBRANCH   1  10
BRANCH   1  11
ATOM     11  O   UNL     1       2.102  -0.141  -1.219  0.00  0.00    -0.374 OA
ATOM     12  H   UNL     1       2.603  -0.430  -1.994  0.00  0.00    +0.211 HD
ENDBRANCH   1  11
TORSDOF 2
