REMARK  Name = ZINC55021821
REMARK  5 active torsions:
REMARK  status: ('A' for Active; 'I' for Inactive)
REMARK    1  A    between atoms: C_4  and  C_7
REMARK    2  A    between atoms: C_7  and  C_9
REMARK    3  A    between atoms: C_7  and  N_14
REMARK    4  A    between atoms: C_9  and  C_10
REMARK    5  A    between atoms: N_11  and  O_12
REMARK                            x       y       z     vdW  Elec       q    Type
REMARK                         _______ _______ _______ _____ _____    ______ ____
ROOT
ATOM      1  C   UNL     1       3.711  -0.707  -0.038  0.00  0.00    +0.144 C 
ENDROOT
BRANCH   1   5
ATOM      2  C   UNL     1      -0.131   1.159  -0.104  0.00  0.00    +0.000 A 
ATOM      3  C   UNL     1      -0.028  -0.216  -0.205  0.00  0.00    +0.000 A 
ATOM      4  C   UNL     1       1.215  -0.820  -0.183  0.00  0.00    +0.006 A 
ATOM      5  C   UNL     1       2.356  -0.049  -0.062  0.00  0.00    -0.023 A 
ATOM      6  C   UNL     1       2.253   1.326   0.038  0.00  0.00    +0.006 A 
ATOM      7  C   UNL     1       1.010   1.930   0.018  0.00  0.00    +0.000 A 
ENDBRANCH   1   5
BRANCH   1   8
ATOM      8  N   UNL     1       3.865  -1.461   1.209  0.00  0.00    -0.262 N 
ATOM      9  C   UNL     1       2.894  -2.147   1.848  0.00  0.00    +0.129 A 
ATOM     10  C   UNL     1       3.440  -2.701   2.956  0.00  0.00    +0.078 A 
ATOM     11  C   UNL     1       4.792  -2.341   2.995  0.00  0.00    +0.154 A 
ATOM     12  N   UNL     1       5.049  -1.603   1.945  0.00  0.00    -0.178 NA
ATOM     13 CL   UNL     1       2.611  -3.684   4.122  0.00  0.00    -0.080 Cl
ENDBRANCH   1   8
BRANCH   1  14
ATOM     14  C   UNL     1       3.837  -1.659  -1.229  0.00  0.00    +0.106 C 
BRANCH  14  15
ATOM     15  C   UNL     1       5.233  -2.224  -1.275  0.00  0.00    +0.134 C 
ATOM     16  N   UNL     1       6.101  -1.876  -0.383  0.00  0.00    -0.077 NA
ATOM     17  N   UNL     1       5.585  -3.112  -2.268  0.00  0.00    -0.344 N 
ATOM     18  H   UNL     1       4.934  -3.373  -2.937  0.00  0.00    +0.144 HD
ATOM     19  H   UNL     1       6.484  -3.475  -2.297  0.00  0.00    +0.144 HD
BRANCH  16  20
ATOM     20  O   UNL     1       7.413  -2.407  -0.426  0.00  0.00    -0.408 OA
ATOM     21  H   UNL     1       7.989  -2.088   0.282  0.00  0.00    +0.328 HD
ENDBRANCH  16  20
ENDBRANCH  14  15
ENDBRANCH   1  14
TORSDOF 5
