REMARK  Name = ZINC36224488
REMARK  4 active torsions:
REMARK  status: ('A' for Active; 'I' for Inactive)
REMARK    1  A    between atoms: C_1  and  C_2
REMARK    2  A    between atoms: C_2  and  C_3
REMARK    3  A    between atoms: C_2  and  N_4
REMARK    4  A    between atoms: C_5  and  C_7
REMARK                            x       y       z     vdW  Elec       q    Type
REMARK                         _______ _______ _______ _____ _____    ______ ____
ROOT
ATOM      1  C   UNL     1      -3.029  -2.245  -0.474  0.00  0.00    +0.068 C 
ATOM      2  C   UNL     1      -3.293  -3.447  -0.958  0.00  0.00    -0.042 C 
ATOM      3  C   UNL     1      -2.626  -4.758  -1.370  0.00  0.00    +0.033 C 
ATOM      4  C   UNL     1      -3.554  -5.876  -0.844  0.00  0.00    +0.006 C 
ATOM      5  C   UNL     1      -4.802  -5.154  -0.266  0.00  0.00    +0.019 C 
ATOM      6  C   UNL     1      -4.778  -3.819  -1.027  0.00  0.00    +0.079 C 
ATOM      7  S   UNL     1      -5.557  -2.464  -0.085  0.00  0.00    -0.098 S 
ATOM      8  C   UNL     1      -4.120  -1.414   0.083  0.00  0.00    +0.101 C 
ATOM      9  N   UNL     1      -4.050  -0.208   0.575  0.00  0.00    -0.292 NA
ATOM     10  H   UNL     1      -4.850   0.226   0.910  0.00  0.00    +0.187 HD
ENDROOT
BRANCH   1  12
ATOM     11  N   UNL     1      -1.372  -0.511   0.012  0.00  0.00    -0.309 N 
ATOM     12  C   UNL     1      -1.643  -1.734  -0.485  0.00  0.00    +0.247 C 
ATOM     13  O   UNL     1      -0.747  -2.417  -0.942  0.00  0.00    -0.270 OA
ATOM     14  H   UNL     1      -2.087   0.033   0.377  0.00  0.00    +0.149 HD
BRANCH  11  16
ATOM     15  C   UNL     1      -0.019   1.526   0.010  0.00  0.00    +0.027 C 
ATOM     16  C   UNL     1       0.002  -0.004   0.002  0.00  0.00    +0.067 C 
ATOM     17  C   UNL     1       0.742  -0.511   1.242  0.00  0.00    +0.027 C 
ENDBRANCH  11  16
ENDBRANCH   1  12
TORSDOF 2
