REMARK  Name = ZINC10000700
REMARK  11 active torsions:
REMARK  status: ('A' for Active; 'I' for Inactive)
REMARK    1  A    between atoms: C_4  and  C_7
REMARK    2  A    between atoms: C_7  and  C_9
REMARK    3  A    between atoms: C_9  and  C_11
REMARK    4  A    between atoms: C_9  and  O_20
REMARK    5  A    between atoms: C_14  and  N_17
REMARK    6  A    between atoms: O_20  and  C_21
REMARK    7  A    between atoms: C_21  and  C_23
REMARK    8  A    between atoms: C_23  and  N_24
REMARK    9  A    between atoms: C_25  and  C_27
REMARK   10  A    between atoms: C_27  and  N_28
REMARK   11  A    between atoms: C_29  and  C_31
REMARK                            x       y       z     vdW  Elec       q    Type
REMARK                         _______ _______ _______ _____ _____    ______ ____
ROOT
ATOM      1  O   UNL     1      -4.840   0.752  -0.075  0.00  0.00    -0.447 OA
ENDROOT
BRANCH   1   2
ATOM      2  C   UNL     1      -5.285   0.601  -1.333  0.00  0.00    +0.325 C 
ATOM      3  O   UNL     1      -4.827   1.280  -2.221  0.00  0.00    -0.249 OA
BRANCH   2   4
ATOM      4  C   UNL     1      -6.355  -0.416  -1.636  0.00  0.00    +0.225 C 
BRANCH   4   5
ATOM      5  N   UNL     1      -6.664  -0.387  -3.068  0.00  0.00    -0.304 N 
ATOM      6  C   UNL     1      -7.598  -1.216  -3.573  0.00  0.00    +0.231 C 
ATOM      7  O   UNL     1      -8.183  -1.987  -2.842  0.00  0.00    -0.274 OA
ATOM      8  H   UNL     1      -6.196   0.230  -3.653  0.00  0.00    +0.149 HD
BRANCH   6   9
ATOM      9  C   UNL     1      -7.916  -1.187  -5.046  0.00  0.00    +0.200 C 
BRANCH   9  10
ATOM     10  N   UNL     1      -8.956  -2.175  -5.341  0.00  0.00    -0.303 N 
ATOM     11  C   UNL     1      -9.403  -2.327  -6.604  0.00  0.00    +0.244 C 
ATOM     12  O   UNL     1      -8.942  -1.643  -7.498  0.00  0.00    -0.270 OA
ATOM     13  H   UNL     1      -9.324  -2.720  -4.628  0.00  0.00    +0.150 HD
BRANCH  11  14
ATOM     14  C   UNL     1     -10.452  -3.324  -6.902  0.00  0.00    +0.037 A 
ATOM     15  C   UNL     1     -10.979  -4.114  -5.878  0.00  0.00    +0.014 A 
ATOM     16  C   UNL     1     -11.963  -5.038  -6.161  0.00  0.00    +0.021 A 
ATOM     17  C   UNL     1     -12.419  -5.191  -7.460  0.00  0.00    +0.041 A 
ATOM     18  C   UNL     1     -11.896  -4.415  -8.480  0.00  0.00    +0.021 A 
ATOM     19  C   UNL     1     -10.917  -3.483  -8.209  0.00  0.00    +0.014 A 
ATOM     20 CL   UNL     1     -13.653  -6.362  -7.810  0.00  0.00    -0.084 Cl
ENDBRANCH  11  14
ENDBRANCH   9  10
ENDBRANCH   6   9
ENDBRANCH   4   5
ENDBRANCH   2   4
ENDBRANCH   1   2
BRANCH   1  21
ATOM     21  C   UNL     1      -3.809   1.750   0.144  0.00  0.00    +0.277 C 
BRANCH  21  22
ATOM     22  C   UNL     1      -3.939   2.311   1.536  0.00  0.00    +0.001 A 
ATOM     23  C   UNL     1      -4.246   1.473   2.593  0.00  0.00    +0.010 A 
ATOM     24  C   UNL     1      -4.361   1.987   3.871  0.00  0.00    +0.033 A 
ATOM     25  C   UNL     1      -4.180   3.339   4.091  0.00  0.00    +0.126 A 
ATOM     26  C   UNL     1      -3.879   4.178   3.034  0.00  0.00    +0.033 A 
ATOM     27  C   UNL     1      -3.759   3.663   1.757  0.00  0.00    +0.010 A 
BRANCH  25  28
ATOM     28  N   UNL     1      -4.310   3.890   5.459  0.00  0.00    +0.056 N 
ATOM     29  O   UNL     1      -4.151   5.082   5.653  0.00  0.00    -0.126 OA
ATOM     30  O   UNL     1      -4.575   3.152   6.391  0.00  0.00    -0.126 OA
ENDBRANCH  25  28
ENDBRANCH  21  22
BRANCH  21  31
ATOM     31  C   UNL     1      -2.452   1.113  -0.016  0.00  0.00    +0.208 C 
ATOM     32  O   UNL     1      -2.331  -0.089   0.085  0.00  0.00    -0.288 OA
BRANCH  31  36
ATOM     33  C   UNL     1       0.942   3.526  -0.824  0.00  0.00    +0.000 A 
ATOM     34  C   UNL     1       1.101   2.171  -0.588  0.00  0.00    +0.001 A 
ATOM     35  C   UNL     1       0.003   1.381  -0.321  0.00  0.00    +0.011 A 
ATOM     36  C   UNL     1      -1.274   1.950  -0.294  0.00  0.00    +0.022 A 
ATOM     37  C   UNL     1      -1.426   3.321  -0.530  0.00  0.00    +0.011 A 
ATOM     38  C   UNL     1      -0.318   4.098  -0.795  0.00  0.00    +0.001 A 
ENDBRANCH  31  36
ENDBRANCH  21  31
ENDBRANCH   1  21
TORSDOF 11
