REMARK  Name = ZINC09265320
REMARK  10 active torsions:
REMARK  status: ('A' for Active; 'I' for Inactive)
REMARK    1  A    between atoms: C_1  and  N_2
REMARK    2  A    between atoms: N_2  and  C_3
REMARK    3  A    between atoms: N_2  and  C_4
REMARK    4  A    between atoms: C_4  and  C_5
REMARK    5  A    between atoms: C_5  and  N_6
REMARK    6  A    between atoms: N_6  and  C_7
REMARK    7  A    between atoms: C_7  and  C_8
REMARK    8  A    between atoms: C_13  and  C_15
REMARK    9  A    between atoms: C_16  and  N_24
REMARK   10  A    between atoms: C_25  and  C_27
REMARK                            x       y       z     vdW  Elec       q    Type
REMARK                         _______ _______ _______ _____ _____    ______ ____
ROOT
ATOM      1  C   UNL     1       1.583   5.218   0.673  0.00  0.00    +0.212 A 
ATOM      2  C   UNL     1       2.265   4.044   0.509  0.00  0.00    +0.092 A 
ATOM      3  C   UNL     1       1.242   2.997   0.399  0.00  0.00    +0.042 A 
ATOM      4  C   UNL     1       1.283   1.614   0.223  0.00  0.00    +0.013 A 
ATOM      5  C   UNL     1       0.118   0.903   0.158  0.00  0.00    +0.001 A 
ATOM      6  C   UNL     1      -1.106   1.550   0.261  0.00  0.00    +0.004 A 
ATOM      7  C   UNL     1      -1.168   2.915   0.441  0.00  0.00    +0.047 A 
ATOM      8  C   UNL     1       0.005   3.658   0.509  0.00  0.00    +0.138 A 
ATOM      9  O   UNL     1       0.253   4.973   0.671  0.00  0.00    -0.448 OA
ENDROOT
BRANCH   2  10
ATOM     10  N   UNL     1       3.644   3.876   0.457  0.00  0.00    -0.282 N 
ATOM     11  C   UNL     1       4.208   2.771   0.983  0.00  0.00    +0.220 C 
ATOM     12  O   UNL     1       3.509   1.881   1.419  0.00  0.00    -0.275 OA
ATOM     13  H   UNL     1       4.274   4.645  -0.013  0.00  0.00    +0.155 HD
BRANCH  11  14
ATOM     14  C   UNL     1       5.709   2.641   1.030  0.00  0.00    +0.075 C 
ATOM     15  C   UNL     1       6.270   2.702  -0.392  0.00  0.00    +0.013 C 
ATOM     16  C   UNL     1       7.794   2.570  -0.345  0.00  0.00    +0.001 C 
ATOM     17  C   UNL     1       8.170   1.232   0.295  0.00  0.00    +0.000 C 
ATOM     18  C   UNL     1       7.609   1.171   1.717  0.00  0.00    +0.001 C 
ATOM     19  C   UNL     1       6.085   1.303   1.670  0.00  0.00    +0.013 C 
ENDBRANCH  11  14
ENDBRANCH   2  10
BRANCH   1  21
ATOM     20  N   UNL     1       1.422   7.623   1.010  0.00  0.00    -0.289 N 
ATOM     21  C   UNL     1       2.197   6.536   0.826  0.00  0.00    +0.284 C 
ATOM     22  O   UNL     1       3.409   6.651   0.787  0.00  0.00    -0.267 OA
BRANCH  20  23
ATOM     23  C   UNL     1      -0.037   7.502   0.949  0.00  0.00    +0.090 C 
BRANCH  23  24
ATOM     24  C   UNL     1      -0.572   7.098   2.324  0.00  0.00    -0.060 C 
BRANCH  24  26
ATOM     25  C   UNL     1      -2.435   5.864   1.391  0.00  0.00    -0.097 C 
ATOM     26  N   UNL     1      -2.035   6.976   2.263  0.00  0.00    +0.377 N 
ATOM     27  C   UNL     1      -2.607   6.823   3.608  0.00  0.00    -0.097 C 
ATOM     28  H   UNL     1      -2.434   7.905   1.830  0.00  0.00    -0.083 HD
ENDBRANCH  24  26
ENDBRANCH  23  24
ENDBRANCH  20  23
BRANCH  20  29
ATOM     29  C   UNL     1       2.039   8.927   1.270  0.00  0.00    +0.182 C 
BRANCH  29  30
ATOM     30  C   UNL     1       2.286   9.635  -0.037  0.00  0.00    +0.122 A 
ATOM     31  C   UNL     1       1.426  10.461  -0.659  0.00  0.00    +0.046 A 
ATOM     32  C   UNL     1       2.062  10.898  -1.844  0.00  0.00    +0.041 A 
ATOM     33  C   UNL     1       3.273  10.313  -1.875  0.00  0.00    +0.195 A 
ATOM     34  O   UNL     1       3.405   9.554  -0.775  0.00  0.00    -0.466 OA
ENDBRANCH  29  30
ENDBRANCH  20  29
ENDBRANCH   1  21
TORSDOF 8
