REMARK  Name = ZINC01718521
REMARK  0 active torsions:
REMARK  status: ('A' for Active; 'I' for Inactive)
REMARK                            x       y       z     vdW  Elec       q    Type
REMARK                         _______ _______ _______ _____ _____    ______ ____
ROOT
ATOM      1  C   UNL     1       2.807   3.281  -1.514  0.00  0.00    +0.001 C 
ATOM      2  C   UNL     1       2.539   4.556  -0.709  0.00  0.00    +0.002 C 
ATOM      3  C   UNL     1       2.284   4.177   0.751  0.00  0.00    +0.023 C 
ATOM      4  C   UNL     1       1.090   3.241   0.854  0.00  0.00    +0.086 C 
ATOM      5  C   UNL     1       1.282   1.990   0.001  0.00  0.00    +0.096 C 
ATOM      6  C   UNL     1       1.589   2.384  -1.447  0.00  0.00    +0.014 C 
ATOM      7  C   UNL     1      -0.014   1.208   0.009  0.00  0.00    +0.225 C 
ATOM      8  O   UNL     1       0.002  -0.004   0.002  0.00  0.00    -0.275 OA
ATOM      9  N   UNL     1      -1.185   1.871   0.018  0.00  0.00    -0.240 N 
ATOM     10  C   UNL     1      -1.230   3.211   0.123  0.00  0.00    +0.306 C 
ATOM     11  O   UNL     1      -2.274   3.790  -0.105  0.00  0.00    -0.252 OA
ATOM     12  N   UNL     1      -0.142   3.923   0.469  0.00  0.00    -0.296 N 
ATOM     13  H   UNL     1      -2.014   1.372  -0.049  0.00  0.00    +0.159 HD
ATOM     14  H   UNL     1      -0.176   4.893   0.463  0.00  0.00    +0.151 HD
ENDROOT
TORSDOF 0
