REMARK  Name = ZINC12479695
REMARK  10 active torsions:
REMARK  status: ('A' for Active; 'I' for Inactive)
REMARK    1  A    between atoms: C_1  and  C_2
REMARK    2  A    between atoms: C_5  and  C_7
REMARK    3  A    between atoms: C_7  and  C_9
REMARK    4  A    between atoms: C_7  and  N_18
REMARK    5  A    between atoms: N_11  and  C_12
REMARK    6  A    between atoms: N_18  and  C_19
REMARK    7  A    between atoms: C_22  and  N_27
REMARK    8  A    between atoms: C_23  and  O_25
REMARK    9  A    between atoms: O_25  and  C_26
REMARK   10  A    between atoms: C_32  and  C_34
REMARK                            x       y       z     vdW  Elec       q    Type
REMARK                         _______ _______ _______ _____ _____    ______ ____
ROOT
ATOM      1  N   UNL     1       0.576   4.358   0.890  0.00  0.00    -0.246 N 
ATOM      2  C   UNL     1       1.364   5.353   1.345  0.00  0.00    +0.287 C 
ATOM      3  O   UNL     1       1.227   5.766   2.482  0.00  0.00    -0.266 OA
ENDROOT
BRANCH   1   4
ATOM      4  C   UNL     1      -0.442   3.846   1.701  0.00  0.00    +0.042 A 
ATOM      5  C   UNL     1      -0.236   2.672   2.416  0.00  0.00    +0.026 A 
ATOM      6  C   UNL     1      -1.238   2.167   3.221  0.00  0.00    +0.033 A 
ATOM      7  C   UNL     1      -2.456   2.825   3.310  0.00  0.00    +0.110 A 
ATOM      8  C   UNL     1      -2.667   3.999   2.591  0.00  0.00    +0.147 A 
ATOM      9  C   UNL     1      -1.660   4.507   1.788  0.00  0.00    +0.071 A 
BRANCH   7  10
ATOM     10  N   UNL     1      -3.476   2.307   4.124  0.00  0.00    -0.197 N 
ATOM     11  C   UNL     1      -3.435   1.186   4.876  0.00  0.00    +0.251 A 
ATOM     12  N   UNL     1      -4.593   1.077   5.474  0.00  0.00    -0.116 NA
ATOM     13  N   UNL     1      -5.365   2.049   5.146  0.00  0.00    -0.023 NA
ATOM     14  N   UNL     1      -4.760   2.841   4.327  0.00  0.00    -0.039 NA
ENDBRANCH   7  10
BRANCH   8  15
ATOM     15  O   UNL     1      -3.860   4.644   2.676  0.00  0.00    -0.493 OA
ATOM     16  C   UNL     1      -4.006   5.842   1.911  0.00  0.00    +0.277 C 
ENDBRANCH   8  15
ENDBRANCH   1   4
BRANCH   2  17
ATOM     17  C   UNL     1       2.386   5.936   0.471  0.00  0.00    +0.190 A 
ATOM     18  C   UNL     1       3.159   7.025   0.756  0.00  0.00    +0.054 A 
ATOM     19  C   UNL     1       3.993   7.230  -0.354  0.00  0.00    +0.042 A 
ATOM     20  C   UNL     1       3.696   6.269  -1.257  0.00  0.00    +0.196 A 
ATOM     21  O   UNL     1       2.732   5.488  -0.754  0.00  0.00    -0.458 OA
ENDBRANCH   2  17
BRANCH   1  22
ATOM     22  C   UNL     1       0.785   3.814  -0.454  0.00  0.00    +0.233 C 
BRANCH  22  27
ATOM     23  C   UNL     1      -3.260   0.803  -0.545  0.00  0.00    +0.086 C 
ATOM     24  C   UNL     1      -1.839   1.286  -0.682  0.00  0.00    +0.102 A 
ATOM     25  C   UNL     1      -0.796   0.549  -1.104  0.00  0.00    +0.045 A 
ATOM     26  C   UNL     1       0.338   1.393  -1.079  0.00  0.00    +0.047 A 
ATOM     27  C   UNL     1      -0.080   2.595  -0.643  0.00  0.00    +0.135 A 
ATOM     28  O   UNL     1      -1.400   2.524  -0.404  0.00  0.00    -0.462 OA
ENDBRANCH  22  27
BRANCH  22  29
ATOM     29  C   UNL     1       0.418   4.855  -1.480  0.00  0.00    +0.242 C 
ATOM     30  O   UNL     1       0.020   5.944  -1.124  0.00  0.00    -0.273 OA
ATOM     31  N   UNL     1       0.532   4.575  -2.793  0.00  0.00    -0.311 N 
ATOM     32  H   UNL     1       0.850   3.704  -3.078  0.00  0.00    +0.149 HD
BRANCH  31  33
ATOM     33  C   UNL     1       0.174   5.587  -3.791  0.00  0.00    +0.073 C 
ATOM     34  C   UNL     1      -1.331   5.530  -4.059  0.00  0.00    +0.022 C 
ATOM     35  C   UNL     1      -1.704   6.587  -5.101  0.00  0.00    +0.002 C 
ATOM     36  C   UNL     1      -0.944   6.312  -6.400  0.00  0.00    +0.000 C 
ATOM     37  C   UNL     1       0.561   6.369  -6.132  0.00  0.00    +0.002 C 
ATOM     38  C   UNL     1       0.934   5.312  -5.090  0.00  0.00    +0.022 C 
ENDBRANCH  31  33
ENDBRANCH  22  29
ENDBRANCH   1  22
TORSDOF 8
