REMARK  Name = ZINC35399393
REMARK  3 active torsions:
REMARK  status: ('A' for Active; 'I' for Inactive)
REMARK    1  A    between atoms: C_14  and  C_16
REMARK    2  A    between atoms: C_16  and  C_17
REMARK    3  A    between atoms: C_17  and  C_18
REMARK                            x       y       z     vdW  Elec       q    Type
REMARK                         _______ _______ _______ _____ _____    ______ ____
ROOT
ATOM      1  C   UNL     1      -0.017   1.378   0.010  0.00  0.00    +0.002 A 
ATOM      2  C   UNL     1       1.167   2.094   0.002  0.00  0.00    +0.002 A 
ATOM      3  C   UNL     1       2.380   1.429  -0.024  0.00  0.00    +0.028 A 
ATOM      4  C   UNL     1       2.406   0.049  -0.045  0.00  0.00    +0.067 A 
ATOM      5  C   UNL     1       1.213  -0.679  -0.013  0.00  0.00    +0.052 A 
ATOM      6  C   UNL     1       0.002  -0.004   0.002  0.00  0.00    +0.025 A 
ATOM      7  N   UNL     1       1.245  -2.078   0.036  0.00  0.00    -0.331 N 
ATOM      8  C   UNL     1       2.366  -2.813  -0.567  0.00  0.00    +0.075 C 
ATOM      9  C   UNL     1       2.482  -4.193   0.080  0.00  0.00    +0.051 C 
ATOM     10  C   UNL     1       1.177  -4.967  -0.138  0.00  0.00    +0.110 C 
ATOM     11  N   UNL     1       0.877  -4.992  -1.576  0.00  0.00    -0.301 N 
ATOM     12  C   UNL     1       0.824  -3.720  -2.309  0.00  0.00    +0.110 C 
ATOM     13  C   UNL     1       2.133  -2.959  -2.070  0.00  0.00    +0.051 C 
ATOM     14  C   UNL     1       0.654  -6.160  -2.210  0.00  0.00    +0.216 C 
ATOM     15  O   UNL     1       0.701  -7.204  -1.594  0.00  0.00    -0.276 OA
ATOM     16  C   UNL     1       3.628  -2.027  -0.320  0.00  0.00    +0.047 A 
ATOM     17  N   UNL     1       3.612  -0.668  -0.093  0.00  0.00    -0.316 N 
ATOM     18  C   UNL     1       4.887  -0.240   0.066  0.00  0.00    +0.092 A 
ATOM     19  C   UNL     1       5.706  -1.311  -0.035  0.00  0.00    +0.020 A 
ATOM     20  C   UNL     1       4.898  -2.444  -0.275  0.00  0.00    +0.025 A 
ATOM     21  H   UNL     1       0.526  -2.564   0.470  0.00  0.00    +0.147 HD
ENDROOT
BRANCH  14  22
ATOM     22  C   UNL     1       0.347  -6.169  -3.686  0.00  0.00    +0.096 C 
BRANCH  22  23
ATOM     23  C   UNL     1       0.138  -7.611  -4.154  0.00  0.00    +0.013 C 
BRANCH  23  24
ATOM     24  C   UNL     1      -0.174  -7.620  -5.652  0.00  0.00    -0.011 C 
ATOM     25  C   UNL     1      -1.552  -6.976  -5.909  0.00  0.00    +0.003 C 
ATOM     26  C   UNL     1      -2.156  -7.818  -7.060  0.00  0.00    +0.000 C 
ATOM     27  C   UNL     1      -1.694  -9.255  -6.712  0.00  0.00    +0.000 C 
ATOM     28  C   UNL     1      -0.264  -9.069  -6.162  0.00  0.00    +0.003 C 
ENDBRANCH  23  24
ENDBRANCH  22  23
ENDBRANCH  14  22
TORSDOF 3
