REMARK  Name = ZINC33034404
REMARK  8 active torsions:
REMARK  status: ('A' for Active; 'I' for Inactive)
REMARK    1  A    between atoms: C_1  and  C_2
REMARK    2  A    between atoms: C_7  and  S_8
REMARK    3  A    between atoms: S_8  and  N_11
REMARK    4  A    between atoms: N_11  and  C_12
REMARK    5  A    between atoms: C_14  and  C_24
REMARK    6  A    between atoms: C_17  and  N_18
REMARK    7  A    between atoms: N_26  and  C_27
REMARK    8  A    between atoms: C_27  and  C_28
REMARK                            x       y       z     vdW  Elec       q    Type
REMARK                         _______ _______ _______ _____ _____    ______ ____
ROOT
ATOM      1  C   UNL     1      -1.234   3.183  -1.271  0.00  0.00    +0.070 A 
ATOM      2  C   UNL     1      -0.242   4.076  -0.913  0.00  0.00    +0.039 A 
ATOM      3  C   UNL     1      -0.499   5.450  -0.939  0.00  0.00    +0.039 A 
ATOM      4  C   UNL     1      -1.762   5.915  -1.315  0.00  0.00    +0.015 A 
ATOM      5  C   UNL     1      -2.750   5.022  -1.667  0.00  0.00    +0.026 A 
ATOM      6  C   UNL     1      -2.495   3.656  -1.647  0.00  0.00    +0.052 A 
ENDROOT
BRANCH   6   7
ATOM      7  N   UNL     1      -3.497   2.756  -2.003  0.00  0.00    -0.332 N 
ATOM      8  C   UNL     1      -4.794   3.435  -2.131  0.00  0.00    +0.086 C 
ATOM      9  C   UNL     1      -5.879   2.402  -2.444  0.00  0.00    -0.063 C 
ATOM     10  N   UNL     1      -5.535   1.694  -3.685  0.00  0.00    +0.381 N 
ATOM     11  C   UNL     1      -4.238   1.015  -3.557  0.00  0.00    -0.063 C 
ATOM     12  C   UNL     1      -3.153   2.047  -3.244  0.00  0.00    +0.086 C 
ATOM     13  H   UNL     1      -6.308   0.943  -3.905  0.00  0.00    -0.086 HD
ATOM     14  H   UNL     1      -5.477   2.414  -4.514  0.00  0.00    -0.086 HD
ENDBRANCH   6   7
BRANCH   3  15
ATOM     15  C   UNL     1       0.558   6.407  -0.562  0.00  0.00    +0.244 C 
ATOM     16  O   UNL     1       1.657   6.001  -0.234  0.00  0.00    -0.270 OA
ATOM     17  N   UNL     1       0.307   7.731  -0.581  0.00  0.00    -0.307 N 
ATOM     18  H   UNL     1      -0.686   8.098  -0.878  0.00  0.00    +0.149 HD
BRANCH  17  19
ATOM     19  C   UNL     1       1.358   8.681  -0.207  0.00  0.00    +0.142 C 
BRANCH  19  20
ATOM     20  C   UNL     1       0.824  10.086  -0.312  0.00  0.00    +0.005 A 
ATOM     21  C   UNL     1       1.122  10.858  -1.419  0.00  0.00    +0.008 A 
ATOM     22  C   UNL     1       0.628  12.145  -1.518  0.00  0.00    +0.000 A 
ATOM     23  C   UNL     1      -0.155  12.666  -0.505  0.00  0.00    +0.003 A 
ATOM     24  C   UNL     1      -0.449  11.899   0.606  0.00  0.00    +0.038 A 
ATOM     25  C   UNL     1       0.040  10.607   0.703  0.00  0.00    +0.128 A 
ATOM     26  F   UNL     1      -0.247   9.855   1.789  0.00  0.00    -0.205 F 
ENDBRANCH  19  20
ENDBRANCH  17  19
ENDBRANCH   3  15
BRANCH   1  27
ATOM     27  N   UNL     1      -0.979   1.806  -1.251  0.00  0.00    -0.214 N 
ATOM     28  H   UNL     1      -1.773   1.104  -0.956  0.00  0.00    +0.174 HD
BRANCH  27  29
ATOM     29  S   UNL     1       0.517   1.236  -1.671  0.00  0.00    +0.073 S 
ATOM     30  O   UNL     1       0.449  -0.181  -1.591  0.00  0.00    -0.150 OA
ATOM     31  O   UNL     1       0.891   1.914  -2.863  0.00  0.00    -0.150 OA
BRANCH  29  38
ATOM     32  C   UNL     1       0.384   0.342   1.215  0.00  0.00    +0.046 C 
ATOM     33  C   UNL     1       1.502   1.293   0.874  0.00  0.00    -0.024 A 
ATOM     34  C   UNL     1       2.386   1.702   1.855  0.00  0.00    +0.005 A 
ATOM     35  C   UNL     1       3.412   2.574   1.542  0.00  0.00    +0.000 A 
ATOM     36  C   UNL     1       3.553   3.038   0.247  0.00  0.00    +0.002 A 
ATOM     37  C   UNL     1       2.672   2.625  -0.735  0.00  0.00    +0.029 A 
ATOM     38  C   UNL     1       1.644   1.757  -0.421  0.00  0.00    +0.111 A 
ENDBRANCH  29  38
ENDBRANCH  27  29
ENDBRANCH   1  27
TORSDOF 7
