REMARK  Name = ZINC58381688
REMARK  8 active torsions:
REMARK  status: ('A' for Active; 'I' for Inactive)
REMARK    1  A    between atoms: C_1  and  C_2
REMARK    2  A    between atoms: C_4  and  C_29
REMARK    3  A    between atoms: C_6  and  C_25
REMARK    4  A    between atoms: C_10  and  C_11
REMARK    5  A    between atoms: C_16  and  C_19
REMARK    6  A    between atoms: C_25  and  C_26
REMARK    7  A    between atoms: C_25  and  C_27
REMARK    8  A    between atoms: C_25  and  C_28
REMARK                            x       y       z     vdW  Elec       q    Type
REMARK                         _______ _______ _______ _____ _____    ______ ____
ROOT
ATOM      1  C   UNL     1       1.633   1.431  -0.724  0.00  0.00    +0.046 C 
ATOM      2  C   UNL     1       1.503  -0.069  -0.664  0.00  0.00    -0.020 A 
ATOM      3  C   UNL     1       0.623  -0.734  -1.533  0.00  0.00    +0.032 A 
ATOM      4  C   UNL     1      -0.231  -0.199  -2.530  0.00  0.00    +0.050 A 
ATOM      5  N   UNL     1      -0.983  -1.011  -3.238  0.00  0.00    -0.236 NA
ATOM      6  C   UNL     1      -0.977  -2.321  -3.058  0.00  0.00    +0.136 A 
ATOM      7  N   UNL     1      -0.207  -2.885  -2.147  0.00  0.00    -0.224 NA
ATOM      8  C   UNL     1       0.577  -2.146  -1.394  0.00  0.00    +0.113 A 
ATOM      9  S   UNL     1       1.739  -2.465  -0.091  0.00  0.00    -0.064 S 
ATOM     10  C   UNL     1       2.243  -0.783   0.226  0.00  0.00    +0.080 A 
ATOM     11  C   UNL     1      -0.275   1.288  -2.775  0.00  0.00    +0.066 C 
ENDROOT
BRANCH  10  12
ATOM     12  C   UNL     1       3.217  -0.289   1.209  0.00  0.00    +0.257 C 
ATOM     13  O   UNL     1       3.444   0.903   1.295  0.00  0.00    -0.269 OA
ATOM     14  N   UNL     1       3.859  -1.158   2.015  0.00  0.00    -0.259 N 
ATOM     15  C   UNL     1       4.779  -0.692   2.943  0.00  0.00    +0.185 A 
ATOM     16  N   UNL     1       5.502  -1.383   3.805  0.00  0.00    -0.204 NA
ATOM     17  C   UNL     1       6.319  -0.711   4.597  0.00  0.00    +0.170 A 
ATOM     18  N   UNL     1       6.357   0.600   4.474  0.00  0.00    -0.187 NA
ATOM     19  S   UNL     1       5.255   0.890   3.245  0.00  0.00    +0.050 S 
ATOM     20  H   UNL     1       3.678  -2.108   1.947  0.00  0.00    +0.157 HD
BRANCH  17  21
ATOM     21  C   UNL     1       7.167  -1.411   5.594  0.00  0.00    +0.020 A 
ATOM     22  C   UNL     1       7.115  -2.800   5.704  0.00  0.00    +0.011 A 
ATOM     23  C   UNL     1       7.905  -3.446   6.633  0.00  0.00    +0.001 A 
ATOM     24  C   UNL     1       8.748  -2.718   7.453  0.00  0.00    +0.000 A 
ATOM     25  C   UNL     1       8.803  -1.340   7.349  0.00  0.00    +0.001 A 
ATOM     26  C   UNL     1       8.022  -0.684   6.419  0.00  0.00    +0.011 A 
ENDBRANCH  17  21
ENDBRANCH  10  12
BRANCH   6  27
ATOM     27  C   UNL     1      -1.869  -3.187  -3.909  0.00  0.00    +0.022 C 
ATOM     28  C   UNL     1      -1.499  -3.006  -5.383  0.00  0.00    +0.019 C 
ATOM     29  C   UNL     1      -1.683  -4.654  -3.514  0.00  0.00    +0.019 C 
ATOM     30  C   UNL     1      -3.328  -2.782  -3.696  0.00  0.00    +0.019 C 
ENDBRANCH   6  27
TORSDOF 3
