REMARK  Name = ZINC45047585
REMARK  7 active torsions:
REMARK  status: ('A' for Active; 'I' for Inactive)
REMARK    1  A    between atoms: C_1  and  C_2
REMARK    2  A    between atoms: C_2  and  C_3
REMARK    3  A    between atoms: C_3  and  C_5
REMARK    4  A    between atoms: C_3  and  C_9
REMARK    5  A    between atoms: N_6  and  O_7
REMARK    6  A    between atoms: N_11  and  C_12
REMARK    7  A    between atoms: C_12  and  C_18
REMARK                            x       y       z     vdW  Elec       q    Type
REMARK                         _______ _______ _______ _____ _____    ______ ____
ROOT
ATOM      1  C   UNL     1       0.632  -2.000  -1.327  0.00  0.00    +0.224 C 
ATOM      2  O   UNL     1       1.645  -2.666  -1.337  0.00  0.00    -0.275 OA
ATOM      3  N   UNL     1      -0.572  -2.604  -1.380  0.00  0.00    -0.309 N 
ATOM      4  H   UNL     1      -1.383  -2.072  -1.372  0.00  0.00    +0.149 HD
ENDROOT
BRANCH   3   5
ATOM      5  C   UNL     1      -0.656  -4.065  -1.449  0.00  0.00    +0.032 C 
ATOM      6  C   UNL     1       0.060  -4.559  -2.707  0.00  0.00    +0.025 C 
ATOM      7  C   UNL     1      -0.605  -3.951  -3.944  0.00  0.00    +0.002 C 
ATOM      8  C   UNL     1      -2.074  -4.375  -3.994  0.00  0.00    +0.000 C 
ATOM      9  C   UNL     1      -2.790  -3.882  -2.735  0.00  0.00    +0.002 C 
ATOM     10  C   UNL     1      -2.125  -4.490  -1.498  0.00  0.00    +0.025 C 
ATOM     11  C   UNL     1       0.009  -4.673  -0.212  0.00  0.00    +0.031 C 
ENDBRANCH   3   5
BRANCH   1  12
ATOM     12  C   UNL     1       0.718  -0.497  -1.257  0.00  0.00    +0.141 C 
BRANCH  12  13
ATOM     13  C   UNL     1       2.165  -0.079  -1.208  0.00  0.00    +0.144 C 
ATOM     14  N   UNL     1       2.736   0.142  -0.070  0.00  0.00    -0.076 NA
ATOM     15  N   UNL     1       2.880   0.066  -2.376  0.00  0.00    -0.343 N 
ATOM     16  H   UNL     1       2.451  -0.100  -3.231  0.00  0.00    +0.144 HD
ATOM     17  H   UNL     1       3.811   0.335  -2.345  0.00  0.00    +0.144 HD
BRANCH  14  18
ATOM     18  O   UNL     1       4.095   0.535  -0.024  0.00  0.00    -0.408 OA
ATOM     19  H   UNL     1       4.433   0.678   0.870  0.00  0.00    +0.328 HD
ENDBRANCH  14  18
ENDBRANCH  12  13
BRANCH  12  21
ATOM     20  C   UNL     1      -0.019   1.526   0.010  0.00  0.00    +0.005 C 
ATOM     21  C   UNL     1       0.002  -0.004   0.002  0.00  0.00    +0.017 C 
ENDBRANCH  12  21
ENDBRANCH   1  12
TORSDOF 5
