REMARK  Name = ZINC59016299
REMARK  9 active torsions:
REMARK  status: ('A' for Active; 'I' for Inactive)
REMARK    1  A    between atoms: C_4  and  C_7
REMARK    2  A    between atoms: C_7  and  S_8
REMARK    3  A    between atoms: S_8  and  C_9
REMARK    4  A    between atoms: C_15  and  C_17
REMARK    5  A    between atoms: C_17  and  S_18
REMARK    6  A    between atoms: S_18  and  C_19
REMARK    7  A    between atoms: N_24  and  N_25
REMARK    8  A    between atoms: C_26  and  C_27
REMARK    9  A    between atoms: C_28  and  C_29
REMARK                            x       y       z     vdW  Elec       q    Type
REMARK                         _______ _______ _______ _____ _____    ______ ____
ROOT
ATOM      1  S   UNL     1      12.136  -5.413  -0.547  0.00  0.00    -0.075 S 
ENDROOT
BRANCH   1   2
ATOM      2  C   UNL     1      13.617  -6.245  -0.079  0.00  0.00    +0.211 A 
ATOM      3  N   UNL     1      14.527  -6.745  -0.922  0.00  0.00    -0.186 NA
ATOM      4  C   UNL     1      15.507  -7.299  -0.238  0.00  0.00    +0.232 A 
ATOM      5  N   UNL     1      15.229  -7.159   1.076  0.00  0.00    -0.245 N 
ATOM      6  N   UNL     1      14.008  -6.471   1.153  0.00  0.00    -0.144 NA
ATOM      7  N   UNL     1      16.622  -7.917  -0.772  0.00  0.00    -0.205 N 
ATOM      8  H   UNL     1      17.293  -8.298  -0.184  0.00  0.00    +0.177 HD
ATOM      9  H   UNL     1      15.769  -7.469   1.820  0.00  0.00    +0.192 HD
BRANCH   7  10
ATOM     10  N   UNL     1      16.784  -7.991  -2.162  0.00  0.00    -0.188 NA
ATOM     11  C   UNL     1      17.836  -8.573  -2.665  0.00  0.00    +0.130 C 
BRANCH  11  12
ATOM     12  C   UNL     1      17.999  -8.649  -4.071  0.00  0.00    +0.022 C 
ATOM     13  C   UNL     1      19.088  -9.252  -4.592  0.00  0.00    +0.009 C 
BRANCH  13  14
ATOM     14  C   UNL     1      19.258  -9.330  -6.051  0.00  0.00    -0.025 A 
ATOM     15  C   UNL     1      18.296  -8.776  -6.902  0.00  0.00    +0.008 A 
ATOM     16  C   UNL     1      18.462  -8.854  -8.268  0.00  0.00    +0.001 A 
ATOM     17  C   UNL     1      19.578  -9.477  -8.799  0.00  0.00    +0.000 A 
ATOM     18  C   UNL     1      20.535 -10.028  -7.964  0.00  0.00    +0.001 A 
ATOM     19  C   UNL     1      20.385  -9.954  -6.595  0.00  0.00    +0.008 A 
ENDBRANCH  13  14
ENDBRANCH  11  12
ENDBRANCH   7  10
ENDBRANCH   1   2
BRANCH   1  20
ATOM     20  C   UNL     1      11.355  -4.984   1.033  0.00  0.00    +0.173 C 
BRANCH  20  27
ATOM     21  C   UNL     1       5.786  -1.866   1.477  0.00  0.00    +0.160 A 
ATOM     22  N   UNL     1       6.433  -2.222   0.377  0.00  0.00    -0.133 NA
ATOM     23  N   UNL     1       7.532  -2.839   0.420  0.00  0.00    -0.125 NA
ATOM     24  C   UNL     1       8.107  -3.167   1.565  0.00  0.00    +0.189 A 
ATOM     25  S   UNL     1       6.913  -2.496   2.718  0.00  0.00    -0.024 S 
ATOM     26  N   UNL     1       9.304  -3.839   1.806  0.00  0.00    -0.263 N 
ATOM     27  C   UNL     1      10.061  -4.258   0.773  0.00  0.00    +0.229 C 
ATOM     28  O   UNL     1       9.701  -4.049  -0.367  0.00  0.00    -0.275 OA
ATOM     29  H   UNL     1       9.591  -4.006   2.717  0.00  0.00    +0.157 HD
BRANCH  21  30
ATOM     30  S   UNL     1       4.257  -1.011   1.666  0.00  0.00    -0.092 S 
BRANCH  30  31
ATOM     31  C   UNL     1       3.711  -0.707  -0.038  0.00  0.00    +0.111 C 
BRANCH  31  35
ATOM     32  C   UNL     1      -0.017   1.378   0.010  0.00  0.00    +0.000 A 
ATOM     33  C   UNL     1       1.171   2.086   0.002  0.00  0.00    +0.000 A 
ATOM     34  C   UNL     1       2.377   1.411  -0.013  0.00  0.00    +0.004 A 
ATOM     35  C   UNL     1       2.396   0.029  -0.020  0.00  0.00    -0.037 A 
ATOM     36  C   UNL     1       1.208  -0.679  -0.012  0.00  0.00    +0.004 A 
ATOM     37  C   UNL     1       0.002  -0.004   0.002  0.00  0.00    +0.000 A 
ENDBRANCH  31  35
ENDBRANCH  30  31
ENDBRANCH  21  30
ENDBRANCH  20  27
ENDBRANCH   1  20
TORSDOF 9
