REMARK  Name = ZINC35760400
REMARK  12 active torsions:
REMARK  status: ('A' for Active; 'I' for Inactive)
REMARK    1  A    between atoms: C_1  and  C_2
REMARK    2  A    between atoms: C_2  and  C_3
REMARK    3  A    between atoms: C_3  and  C_4
REMARK    4  A    between atoms: C_4  and  C_5
REMARK    5  A    between atoms: C_5  and  C_7
REMARK    6  A    between atoms: C_5  and  C_9
REMARK    7  A    between atoms: C_7  and  C_8
REMARK    8  A    between atoms: N_11  and  C_12
REMARK    9  A    between atoms: C_15  and  C_18
REMARK   10  A    between atoms: C_20  and  C_30
REMARK   11  A    between atoms: C_21  and  C_29
REMARK   12  A    between atoms: N_32  and  C_33
REMARK                            x       y       z     vdW  Elec       q    Type
REMARK                         _______ _______ _______ _____ _____    ______ ____
ROOT
ATOM      1  C   UNL     1       1.093 -11.209   3.429  0.00  0.00    +0.142 C 
ATOM      2  C   UNL     1      -0.275 -11.220   4.069  0.00  0.00    +0.058 C 
ATOM      3  C   UNL     1      -0.388 -10.992   5.407  0.00  0.00    +0.025 C 
ATOM      4  N   UNL     1       0.691 -10.811   6.165  0.00  0.00    -0.341 N 
ATOM      5  C   UNL     1       1.906 -11.096   5.724  0.00  0.00    +0.135 C 
ATOM      6  N   UNL     1       2.094 -11.564   4.451  0.00  0.00    -0.300 N 
ATOM      7  C   UNL     1       3.212 -12.416   4.067  0.00  0.00    +0.109 C 
ATOM      8  C   UNL     1       4.541 -11.929   4.627  0.00  0.00    +0.030 C 
ATOM      9  C   UNL     1       4.520 -12.040   6.158  0.00  0.00    +0.078 C 
ATOM     10  S   UNL     1       3.291 -10.836   6.789  0.00  0.00    -0.092 S 
ATOM     11  C   UNL     1      -1.756 -10.943   6.038  0.00  0.00    +0.064 C 
ATOM     12  H   UNL     1       0.585 -10.462   7.064  0.00  0.00    +0.167 HD
ENDROOT
BRANCH   1  16
ATOM     13  C   UNL     1       1.928  -7.307   1.897  0.00  0.00    +0.033 A 
ATOM     14  C   UNL     1       1.504  -8.315   1.041  0.00  0.00    +0.023 A 
ATOM     15  C   UNL     1       1.235  -9.575   1.539  0.00  0.00    +0.007 A 
ATOM     16  C   UNL     1       1.387  -9.833   2.889  0.00  0.00    -0.022 A 
ATOM     17  C   UNL     1       1.809  -8.831   3.744  0.00  0.00    +0.007 A 
ATOM     18  C   UNL     1       2.086  -7.571   3.251  0.00  0.00    +0.023 A 
BRANCH  13  21
ATOM     19  C   UNL     1       1.548  -5.580   0.305  0.00  0.00    +0.220 C 
ATOM     20  O   UNL     1       0.785  -6.311  -0.289  0.00  0.00    -0.275 OA
ATOM     21  N   UNL     1       2.201  -6.030   1.395  0.00  0.00    -0.285 N 
ATOM     22  H   UNL     1       2.861  -5.468   1.831  0.00  0.00    +0.155 HD
BRANCH  19  23
ATOM     23  C   UNL     1       1.766  -4.168  -0.175  0.00  0.00    +0.075 C 
BRANCH  23  24
ATOM     24  C   UNL     1       1.360  -3.187   0.926  0.00  0.00    +0.009 C 
ATOM     25  C   UNL     1      -0.123  -3.373   1.254  0.00  0.00    +0.004 C 
ENDBRANCH  23  24
BRANCH  23  26
ATOM     26  C   UNL     1       0.917  -3.917  -1.422  0.00  0.00    +0.013 C 
BRANCH  26  27
ATOM     27  C   UNL     1       1.231  -2.528  -1.981  0.00  0.00    +0.000 C 
BRANCH  27  29
ATOM     28  C   UNL     1       0.696  -0.887  -3.788  0.00  0.00    +0.004 C 
ATOM     29  C   UNL     1       0.381  -2.276  -3.228  0.00  0.00    -0.003 C 
ENDBRANCH  27  29
ENDBRANCH  26  27
ENDBRANCH  23  26
ENDBRANCH  19  23
ENDBRANCH  13  21
ENDBRANCH   1  16
BRANCH   2  30
ATOM     30  C   UNL     1      -1.421 -11.465   3.291  0.00  0.00    +0.248 C 
ATOM     31  O   UNL     1      -2.507 -11.591   3.828  0.00  0.00    -0.270 OA
ATOM     32  N   UNL     1      -1.317 -11.559   1.950  0.00  0.00    -0.282 N 
ATOM     33  H   UNL     1      -0.446 -11.512   1.526  0.00  0.00    +0.155 HD
BRANCH  32  34
ATOM     34  C   UNL     1      -2.466 -11.724   1.170  0.00  0.00    +0.034 A 
ATOM     35  C   UNL     1      -3.667 -11.152   1.570  0.00  0.00    +0.023 A 
ATOM     36  C   UNL     1      -4.799 -11.317   0.797  0.00  0.00    +0.002 A 
ATOM     37  C   UNL     1      -4.739 -12.051  -0.373  0.00  0.00    +0.000 A 
ATOM     38  C   UNL     1      -3.545 -12.622  -0.774  0.00  0.00    +0.002 A 
ATOM     39  C   UNL     1      -2.407 -12.456  -0.009  0.00  0.00    +0.023 A 
ENDBRANCH  32  34
ENDBRANCH   2  30
TORSDOF 9
