REMARK  Name = ZINC27597741
REMARK  13 active torsions:
REMARK  status: ('A' for Active; 'I' for Inactive)
REMARK    1  A    between atoms: C_1  and  C_2
REMARK    2  A    between atoms: C_2  and  C_3
REMARK    3  A    between atoms: C_6  and  C_9
REMARK    4  A    between atoms: C_9  and  C_11
REMARK    5  A    between atoms: C_9  and  N_33
REMARK    6  A    between atoms: C_11  and  N_12
REMARK    7  A    between atoms: C_13  and  C_15
REMARK    8  A    between atoms: C_19  and  S_21
REMARK    9  A    between atoms: S_21  and  N_24
REMARK   10  A    between atoms: N_24  and  C_25
REMARK   11  A    between atoms: C_25  and  C_26
REMARK   12  A    between atoms: N_33  and  C_34
REMARK   13  A    between atoms: N_33  and  C_35
REMARK                            x       y       z     vdW  Elec       q    Type
REMARK                         _______ _______ _______ _____ _____    ______ ____
ROOT
ATOM      1  N   UNL     1      -6.556   6.898  -7.695  0.00  0.00    -0.313 N 
ATOM      2  C   UNL     1      -5.488   6.841  -6.876  0.00  0.00    +0.244 C 
ATOM      3  O   UNL     1      -5.639   6.919  -5.672  0.00  0.00    -0.270 OA
ATOM      4  H   UNL     1      -6.419   6.828  -8.784  0.00  0.00    +0.149 HD
ENDROOT
BRANCH   2   5
ATOM      5  C   UNL     1      -4.131   6.685  -7.441  0.00  0.00    +0.039 A 
ATOM      6  C   UNL     1      -3.954   6.595  -8.823  0.00  0.00    +0.014 A 
ATOM      7  C   UNL     1      -2.686   6.449  -9.345  0.00  0.00    +0.023 A 
ATOM      8  C   UNL     1      -1.589   6.390  -8.501  0.00  0.00    +0.067 A 
ATOM      9  C   UNL     1      -1.759   6.478  -7.129  0.00  0.00    +0.124 A 
ATOM     10  C   UNL     1      -3.023   6.620  -6.595  0.00  0.00    +0.043 A 
ATOM     11 CL   UNL     1       0.004   6.206  -9.165  0.00  0.00    -0.082 Cl
BRANCH   9  12
ATOM     12  S   UNL     1      -0.358   6.402  -6.063  0.00  0.00    +0.060 S 
ATOM     13  O   UNL     1      -0.853   6.491  -4.734  0.00  0.00    -0.153 OA
ATOM     14  O   UNL     1       0.598   7.316  -6.583  0.00  0.00    -0.153 OA
BRANCH  12  15
ATOM     15  N   UNL     1       0.298   4.889  -6.224  0.00  0.00    -0.187 NA
ATOM     16  H   UNL     1       0.148   4.151  -5.422  0.00  0.00    +0.148 HD
BRANCH  15  17
ATOM     17  C   UNL     1       0.877   4.474  -7.503  0.00  0.00    +0.137 C 
BRANCH  17  18
ATOM     18  C   UNL     1       1.729   3.221  -7.295  0.00  0.00    +0.134 C 
ATOM     19  C   UNL     1       2.351   2.764  -8.633  0.00  0.00    +0.035 C 
ATOM     20  C   UNL     1       3.758   2.260  -8.241  0.00  0.00    +0.031 C 
ATOM     21  C   UNL     1       3.824   2.473  -6.712  0.00  0.00    +0.160 C 
ATOM     22  O   UNL     1       2.859   3.517  -6.445  0.00  0.00    -0.375 OA
ENDBRANCH  17  18
ENDBRANCH  15  17
ENDBRANCH  12  15
ENDBRANCH   9  12
ENDBRANCH   2   5
BRANCH   1  23
ATOM     23  C   UNL     1      -7.901   7.054  -7.134  0.00  0.00    +0.094 C 
BRANCH  23  24
ATOM     24  C   UNL     1      -8.913   7.209  -8.271  0.00  0.00    -0.021 C 
BRANCH  24  28
ATOM     25  C   UNL     1     -12.861   7.386  -6.651  0.00  0.00    -0.048 A 
ATOM     26  C   UNL     1     -12.460   8.311  -7.596  0.00  0.00    +0.004 A 
ATOM     27  C   UNL     1     -11.182   8.254  -8.120  0.00  0.00    +0.002 A 
ATOM     28  C   UNL     1     -10.306   7.271  -7.699  0.00  0.00    -0.059 A 
ATOM     29  C   UNL     1     -10.709   6.342  -6.758  0.00  0.00    +0.002 A 
ATOM     30  C   UNL     1     -11.985   6.402  -6.230  0.00  0.00    +0.004 A 
BRANCH  25  32
ATOM     31  C   UNL     1     -15.196   6.599  -6.937  0.00  0.00    +0.009 C 
ATOM     32  C   UNL     1     -14.255   7.447  -6.079  0.00  0.00    +0.032 C 
ENDBRANCH  25  32
ENDBRANCH  24  28
BRANCH  24  33
ATOM     33  N   UNL     1      -8.808   6.059  -9.180  0.00  0.00    +0.382 N 
ATOM     34  C   UNL     1      -9.260   4.826  -8.523  0.00  0.00    -0.096 C 
ATOM     35  C   UNL     1      -9.556   6.299 -10.421  0.00  0.00    -0.096 C 
ATOM     36  H   UNL     1      -7.748   5.933  -9.444  0.00  0.00    -0.082 HD
ENDBRANCH  24  33
ENDBRANCH  23  24
ENDBRANCH   1  23
TORSDOF 10
