REMARK  Name = ZINC39674734
REMARK  10 active torsions:
REMARK  status: ('A' for Active; 'I' for Inactive)
REMARK    1  A    between atoms: C_1  and  C_2
REMARK    2  A    between atoms: C_2  and  O_3
REMARK    3  A    between atoms: O_3  and  C_4
REMARK    4  A    between atoms: C_9  and  C_10
REMARK    5  A    between atoms: C_14  and  C_23
REMARK    6  A    between atoms: N_25  and  C_26
REMARK    7  A    between atoms: C_26  and  C_27
REMARK    8  A    between atoms: C_27  and  C_28
REMARK    9  A    between atoms: C_31  and  C_39
REMARK   10  A    between atoms: C_36  and  C_38
REMARK                            x       y       z     vdW  Elec       q    Type
REMARK                         _______ _______ _______ _____ _____    ______ ____
ROOT
ATOM      1  C   UNL     1       1.862  -1.590  -3.416  0.00  0.00    +0.250 C 
ATOM      2  O   UNL     1       1.729  -0.393  -3.253  0.00  0.00    -0.270 OA
ATOM      3  N   UNL     1       2.617  -2.053  -4.432  0.00  0.00    -0.296 N 
ATOM      4  C   UNL     1       2.809  -3.460  -4.853  0.00  0.00    +0.121 C 
ATOM      5  C   UNL     1       2.821  -3.408  -6.397  0.00  0.00    +0.100 C 
ATOM      6  C   UNL     1       3.238  -1.968  -6.738  0.00  0.00    -0.004 C 
ATOM      7  C   UNL     1       3.436  -1.267  -5.386  0.00  0.00    +0.115 C 
ATOM      8  C   UNL     1       4.541  -1.968  -7.530  0.00  0.00    -0.010 C 
ATOM      9  C   UNL     1       4.905  -0.529  -7.907  0.00  0.00    -0.082 C 
ATOM     10  N   UNL     1       3.823   0.057  -8.708  0.00  0.00    +0.379 N 
ATOM     11  C   UNL     1       2.596   0.139  -7.907  0.00  0.00    -0.082 C 
ATOM     12  C   UNL     1       2.135  -1.271  -7.530  0.00  0.00    -0.010 C 
ATOM     13  H   UNL     1       4.091   0.983  -9.006  0.00  0.00    -0.086 HD
ATOM     14  H   UNL     1       3.656  -0.519  -9.519  0.00  0.00    -0.086 HD
ENDROOT
BRANCH   1  20
ATOM     15  C   UNL     1      -0.052  -2.225  -1.949  0.00  0.00    +0.133 A 
ATOM     16  C   UNL     1      -0.670  -3.126  -1.094  0.00  0.00    +0.046 A 
ATOM     17  C   UNL     1      -0.053  -4.321  -0.784  0.00  0.00    +0.004 A 
ATOM     18  C   UNL     1       1.185  -4.631  -1.322  0.00  0.00    +0.001 A 
ATOM     19  C   UNL     1       1.813  -3.748  -2.173  0.00  0.00    +0.017 A 
ATOM     20  C   UNL     1       1.198  -2.538  -2.500  0.00  0.00    +0.078 A 
BRANCH  15  21
ATOM     21  O   UNL     1      -0.657  -1.050  -2.254  0.00  0.00    -0.491 OA
BRANCH  21  23
ATOM     22  C   UNL     1      -2.452   0.563  -2.113  0.00  0.00    +0.048 C 
ATOM     23  C   UNL     1      -1.930  -0.801  -1.654  0.00  0.00    +0.226 C 
ENDBRANCH  21  23
ENDBRANCH  15  21
ENDBRANCH   1  20
BRANCH   5  24
ATOM     24  C   UNL     1       3.821  -4.391  -6.949  0.00  0.00    +0.218 C 
ATOM     25  O   UNL     1       4.820  -4.659  -6.315  0.00  0.00    -0.275 OA
ATOM     26  N   UNL     1       3.606  -4.972  -8.145  0.00  0.00    -0.315 N 
ATOM     27  H   UNL     1       2.807  -4.758  -8.652  0.00  0.00    +0.149 HD
BRANCH  26  28
ATOM     28  C   UNL     1       4.579  -5.927  -8.681  0.00  0.00    +0.108 C 
BRANCH  28  29
ATOM     29  C   UNL     1       4.099  -6.435 -10.042  0.00  0.00    +0.052 C 
BRANCH  29  30
ATOM     30  C   UNL     1       5.099  -7.418 -10.593  0.00  0.00    -0.037 C 
ATOM     31  C   UNL     1       6.254  -7.823 -10.006  0.00  0.00    +0.000 A 
ATOM     32  C   UNL     1       6.859  -7.480  -8.768  0.00  0.00    +0.028 A 
ATOM     33  C   UNL     1       8.058  -8.046  -8.405  0.00  0.00    +0.052 A 
ATOM     34  C   UNL     1       8.736  -9.005  -9.271  0.00  0.00    +0.021 A 
ATOM     35  C   UNL     1       8.209  -9.369 -10.458  0.00  0.00    +0.027 A 
ATOM     36  C   UNL     1       6.931  -8.794 -10.893  0.00  0.00    +0.043 A 
ATOM     37  N   UNL     1       6.227  -8.983 -11.983  0.00  0.00    -0.378 N 
ATOM     38  C   UNL     1       5.018  -8.157 -11.909  0.00  0.00    +0.103 C 
ATOM     39  C   UNL     1       3.769  -9.041 -11.941  0.00  0.00    +0.035 C 
ATOM     40  H   UNL     1       6.465  -9.575 -12.714  0.00  0.00    +0.160 HD
BRANCH  33  41
ATOM     41  C   UNL     1       8.654  -7.688  -7.153  0.00  0.00    +0.099 C 
ATOM     42  N   UNL     1       9.126  -7.404  -6.160  0.00  0.00    -0.191 NA
ENDBRANCH  33  41
ENDBRANCH  29  30
ENDBRANCH  28  29
ENDBRANCH  26  28
ENDBRANCH   5  24
TORSDOF 8
