REMARK  Name = ZINC23367975
REMARK  11 active torsions:
REMARK  status: ('A' for Active; 'I' for Inactive)
REMARK    1  A    between atoms: C_1  and  C_2
REMARK    2  A    between atoms: C_2  and  C_4
REMARK    3  A    between atoms: C_2  and  N_21
REMARK    4  A    between atoms: N_9  and  S_12
REMARK    5  A    between atoms: S_12  and  C_15
REMARK    6  A    between atoms: N_24  and  C_27
REMARK    7  A    between atoms: C_27  and  C_28
REMARK    8  A    between atoms: N_30  and  C_31
REMARK    9  A    between atoms: C_31  and  C_32
REMARK   10  A    between atoms: C_32  and  O_33
REMARK   11  A    between atoms: O_33  and  C_34
REMARK                            x       y       z     vdW  Elec       q    Type
REMARK                         _______ _______ _______ _____ _____    ______ ____
ROOT
ATOM      1  C   UNL     1       0.012   1.483   0.041  0.00  0.00    -0.004 C 
ATOM      2  C   UNL     1       0.073  -0.043  -0.046  0.00  0.00    +0.016 C 
ENDROOT
BRANCH   2   3
ATOM      3  C   UNL     1       0.914  -0.446  -1.230  0.00  0.00    +0.202 C 
ATOM      4  O   UNL     1       2.079  -0.743  -1.073  0.00  0.00    -0.277 OA
ATOM      5  N   UNL     1       0.371  -0.475  -2.463  0.00  0.00    -0.300 N 
ATOM      6  C   UNL     1      -1.062  -0.215  -2.656  0.00  0.00    +0.125 C 
ATOM      7  C   UNL     1      -1.221   0.929  -3.665  0.00  0.00    +0.128 C 
ATOM      8  N   UNL     1      -0.390   0.637  -4.841  0.00  0.00    -0.174 NA
ATOM      9  C   UNL     1       1.044   0.377  -4.648  0.00  0.00    +0.128 C 
ATOM     10  C   UNL     1       1.204  -0.762  -3.640  0.00  0.00    +0.125 C 
BRANCH   8  11
ATOM     11  S   UNL     1      -1.056   0.601  -6.357  0.00  0.00    +0.061 S 
ATOM     12  O   UNL     1      -0.210  -0.217  -7.153  0.00  0.00    -0.153 OA
ATOM     13  O   UNL     1      -2.440   0.326  -6.185  0.00  0.00    -0.153 OA
BRANCH  11  14
ATOM     14  C   UNL     1      -0.944   2.232  -7.014  0.00  0.00    +0.105 A 
ATOM     15  C   UNL     1      -1.969   3.134  -6.802  0.00  0.00    +0.028 A 
ATOM     16  C   UNL     1      -1.881   4.414  -7.318  0.00  0.00    +0.002 A 
ATOM     17  C   UNL     1      -0.768   4.791  -8.045  0.00  0.00    +0.000 A 
ATOM     18  C   UNL     1       0.258   3.889  -8.257  0.00  0.00    +0.002 A 
ATOM     19  C   UNL     1       0.172   2.610  -7.737  0.00  0.00    +0.028 A 
ENDBRANCH  11  14
ENDBRANCH   8  11
ENDBRANCH   2   3
BRANCH   2  20
ATOM     20  N   UNL     1       0.670  -0.580   1.184  0.00  0.00    +0.389 N 
ATOM     21  C   UNL     1       0.633  -2.048   1.145  0.00  0.00    -0.062 C 
ATOM     22  C   UNL     1       1.272  -2.608   2.418  0.00  0.00    +0.066 C 
ATOM     23  N   UNL     1       0.537  -2.114   3.591  0.00  0.00    -0.298 NA
ATOM     24  C   UNL     1       0.543  -0.644   3.629  0.00  0.00    +0.066 C 
ATOM     25  C   UNL     1      -0.089  -0.101   2.346  0.00  0.00    -0.062 C 
ATOM     26  H   UNL     1       1.627  -0.270   1.256  0.00  0.00    -0.081 HD
BRANCH  23  27
ATOM     27  C   UNL     1       1.086  -2.675   4.832  0.00  0.00    +0.180 C 
BRANCH  27  28
ATOM     28  C   UNL     1       0.167  -2.348   5.981  0.00  0.00    +0.227 C 
ATOM     29  O   UNL     1      -0.846  -1.710   5.785  0.00  0.00    -0.274 OA
ATOM     30  N   UNL     1       0.470  -2.765   7.226  0.00  0.00    -0.312 N 
ATOM     31  H   UNL     1       1.280  -3.276   7.383  0.00  0.00    +0.149 HD
BRANCH  30  32
ATOM     32  C   UNL     1      -0.423  -2.447   8.343  0.00  0.00    +0.132 C 
BRANCH  32  33
ATOM     33  C   UNL     1       0.149  -3.032   9.636  0.00  0.00    +0.178 C 
BRANCH  33  34
ATOM     34  O   UNL     1       1.386  -2.386   9.945  0.00  0.00    -0.381 OA
ATOM     35  C   UNL     1       2.007  -2.862  11.141  0.00  0.00    +0.194 C 
ENDBRANCH  33  34
ENDBRANCH  32  33
ENDBRANCH  30  32
ENDBRANCH  27  28
ENDBRANCH  23  27
ENDBRANCH   2  20
TORSDOF 9
