REMARK  Name = ZINC04229915
REMARK  7 active torsions:
REMARK  status: ('A' for Active; 'I' for Inactive)
REMARK    1  A    between atoms: C_4  and  N_17
REMARK    2  A    between atoms: C_5  and  C_7
REMARK    3  A    between atoms: N_9  and  C_10
REMARK    4  A    between atoms: C_18  and  C_20
REMARK    5  A    between atoms: N_22  and  N_23
REMARK    6  A    between atoms: C_24  and  C_25
REMARK    7  A    between atoms: C_30  and  O_31
REMARK                            x       y       z     vdW  Elec       q    Type
REMARK                         _______ _______ _______ _____ _____    ______ ____
ROOT
ATOM      1  N   UNL     1       2.985  -0.805  -0.631  0.00  0.00    -0.277 N 
ATOM      2  C   UNL     1       4.157  -0.195  -0.367  0.00  0.00    +0.305 C 
ATOM      3  O   UNL     1       4.167   0.935   0.078  0.00  0.00    -0.265 OA
ATOM      4  H   UNL     1       2.973  -1.733  -0.913  0.00  0.00    +0.155 HD
ENDROOT
BRANCH   1   8
ATOM      5  C   UNL     1      -0.593   1.298  -0.239  0.00  0.00    +0.001 A 
ATOM      6  C   UNL     1       0.583   1.969  -0.533  0.00  0.00    +0.002 A 
ATOM      7  C   UNL     1       1.769   1.276  -0.663  0.00  0.00    +0.024 A 
ATOM      8  C   UNL     1       1.790  -0.104  -0.500  0.00  0.00    +0.046 A 
ATOM      9  C   UNL     1       0.601  -0.786  -0.202  0.00  0.00    +0.058 A 
ATOM     10  C   UNL     1      -0.592  -0.070  -0.073  0.00  0.00    +0.015 A 
BRANCH   9  11
ATOM     11  C   UNL     1       0.610  -2.250  -0.026  0.00  0.00    +0.250 C 
ATOM     12  O   UNL     1       1.663  -2.857  -0.031  0.00  0.00    -0.270 OA
ATOM     13  N   UNL     1      -0.550  -2.916   0.140  0.00  0.00    -0.281 N 
ATOM     14  H   UNL     1      -1.395  -2.444   0.069  0.00  0.00    +0.155 HD
BRANCH  13  15
ATOM     15  C   UNL     1      -0.537  -4.288   0.414  0.00  0.00    +0.034 A 
ATOM     16  C   UNL     1      -1.549  -5.105  -0.071  0.00  0.00    +0.025 A 
ATOM     17  C   UNL     1      -1.533  -6.458   0.201  0.00  0.00    +0.022 A 
ATOM     18  C   UNL     1      -0.510  -7.001   0.958  0.00  0.00    +0.041 A 
ATOM     19  C   UNL     1       0.500  -6.189   1.444  0.00  0.00    +0.022 A 
ATOM     20  C   UNL     1       0.492  -4.836   1.169  0.00  0.00    +0.025 A 
ATOM     21 CL   UNL     1      -0.493  -8.703   1.299  0.00  0.00    -0.084 Cl
ENDBRANCH  13  15
ENDBRANCH   9  11
ENDBRANCH   1   8
BRANCH   2  22
ATOM     22  C   UNL     1       5.442  -0.907  -0.622  0.00  0.00    +0.318 C 
ATOM     23  O   UNL     1       5.432  -2.037  -1.067  0.00  0.00    -0.263 OA
ATOM     24  N   UNL     1       6.614  -0.297  -0.358  0.00  0.00    -0.199 N 
ATOM     25  H   UNL     1       6.622   0.606  -0.002  0.00  0.00    +0.178 HD
BRANCH  24  26
ATOM     26  N   UNL     1       7.822  -0.966  -0.597  0.00  0.00    -0.187 NA
ATOM     27  C   UNL     1       8.952  -0.378  -0.342  0.00  0.00    +0.142 C 
BRANCH  27  28
ATOM     28  C   UNL     1      10.221  -1.082  -0.593  0.00  0.00    +0.037 A 
ATOM     29  C   UNL     1      11.439  -0.455  -0.316  0.00  0.00    +0.033 A 
ATOM     30  C   UNL     1      12.624  -1.120  -0.554  0.00  0.00    +0.042 A 
ATOM     31  C   UNL     1      12.612  -2.407  -1.067  0.00  0.00    +0.023 A 
ATOM     32  C   UNL     1      11.414  -3.037  -1.346  0.00  0.00    +0.047 A 
ATOM     33  C   UNL     1      10.214  -2.386  -1.107  0.00  0.00    +0.126 A 
ATOM     34 CL   UNL     1      14.137  -0.341  -0.209  0.00  0.00    -0.084 Cl
BRANCH  33  35
ATOM     35  O   UNL     1       9.037  -3.007  -1.375  0.00  0.00    -0.506 OA
ATOM     36  H   UNL     1       8.712  -2.864  -2.274  0.00  0.00    +0.292 HD
ENDBRANCH  33  35
ENDBRANCH  27  28
ENDBRANCH  24  26
ENDBRANCH   2  22
TORSDOF 7
