REMARK  Name = ZINC04000146
REMARK  8 active torsions:
REMARK  status: ('A' for Active; 'I' for Inactive)
REMARK    1  A    between atoms: C_1  and  C_2
REMARK    2  A    between atoms: C_8  and  C_26
REMARK    3  A    between atoms: C_8  and  C_27
REMARK    4  A    between atoms: C_9  and  C_16
REMARK    5  A    between atoms: C_13  and  O_15
REMARK    6  A    between atoms: C_17  and  C_18
REMARK    7  A    between atoms: C_22  and  O_24
REMARK    8  A    between atoms: O_24  and  C_25
REMARK                            x       y       z     vdW  Elec       q    Type
REMARK                         _______ _______ _______ _____ _____    ______ ____
ROOT
ATOM      1  C   UNL     1      -0.018   1.503   0.010  0.00  0.00    +0.044 C 
ATOM      2  C   UNL     1       0.002  -0.004   0.002  0.00  0.00    -0.050 A 
ATOM      3  C   UNL     1       0.006  -0.691  -1.198  0.00  0.00    +0.005 A 
ATOM      4  C   UNL     1       0.036  -2.069  -1.209  0.00  0.00    +0.024 A 
ATOM      5  C   UNL     1       0.053  -2.785  -0.011  0.00  0.00    +0.036 A 
ATOM      6  C   UNL     1       0.030  -2.084   1.190  0.00  0.00    -0.016 A 
ATOM      7  C   UNL     1       0.023  -0.704   1.194  0.00  0.00    +0.009 A 
ATOM      8  C   UNL     1      -0.006  -3.081   2.329  0.00  0.00    +0.037 C 
ATOM      9  C   UNL     1      -0.116  -4.444   1.636  0.00  0.00    +0.159 C 
ATOM     10  N   UNL     1       0.127  -4.153   0.213  0.00  0.00    -0.301 N 
ATOM     11  C   UNL     1       0.464  -5.220  -0.743  0.00  0.00    +0.117 C 
ATOM     12  C   UNL     1       1.724  -5.906  -0.197  0.00  0.00    +0.114 C 
ATOM     13  C   UNL     1       1.684  -6.006   1.295  0.00  0.00    +0.186 C 
ATOM     14  N   UNL     1       0.914  -5.372   2.088  0.00  0.00    -0.224 NA
ATOM     15  C   UNL     1      -1.226  -2.833   3.218  0.00  0.00    +0.020 C 
ATOM     16  C   UNL     1       1.282  -3.001   3.151  0.00  0.00    +0.020 C 
ENDROOT
BRANCH  13  17
ATOM     17  O   UNL     1       2.560  -6.861   1.864  0.00  0.00    -0.496 OA
ATOM     18  H   UNL     1       2.503  -6.897   2.829  0.00  0.00    +0.293 HD
ENDBRANCH  13  17
BRANCH   9  19
ATOM     19  C   UNL     1      -1.486  -5.034   1.848  0.00  0.00    +0.024 C 
ATOM     20  C   UNL     1      -2.258  -5.307   0.805  0.00  0.00    +0.008 C 
BRANCH  20  21
ATOM     21  C   UNL     1      -3.602  -5.886   1.013  0.00  0.00    -0.022 A 
ATOM     22  C   UNL     1      -4.063  -6.140   2.306  0.00  0.00    +0.008 A 
ATOM     23  C   UNL     1      -5.318  -6.681   2.496  0.00  0.00    +0.004 A 
ATOM     24  C   UNL     1      -6.122  -6.972   1.409  0.00  0.00    +0.045 A 
ATOM     25  C   UNL     1      -5.672  -6.722   0.120  0.00  0.00    +0.121 A 
ATOM     26  C   UNL     1      -4.416  -6.174  -0.082  0.00  0.00    +0.053 A 
BRANCH  25  27
ATOM     27  O   UNL     1      -6.466  -7.010  -0.945  0.00  0.00    -0.495 OA
ATOM     28  C   UNL     1      -7.752  -7.568  -0.663  0.00  0.00    +0.277 C 
ENDBRANCH  25  27
ENDBRANCH  20  21
ENDBRANCH   9  19
TORSDOF 4
