REMARK  Name = ZINC10441294
REMARK  6 active torsions:
REMARK  status: ('A' for Active; 'I' for Inactive)
REMARK    1  A    between atoms: C_1  and  C_2
REMARK    2  A    between atoms: C_2  and  C_4
REMARK    3  A    between atoms: C_2  and  S_14
REMARK    4  A    between atoms: N_6  and  C_7
REMARK    5  A    between atoms: S_14  and  C_15
REMARK    6  A    between atoms: N_25  and  C_26
REMARK                            x       y       z     vdW  Elec       q    Type
REMARK                         _______ _______ _______ _____ _____    ______ ____
ROOT
ATOM      1  C   UNL     1       2.983   4.209   1.187  0.00  0.00    +0.177 A 
ATOM      2  N   UNL     1       4.107   4.880   1.259  0.00  0.00    -0.223 NA
ATOM      3  C   UNL     1       4.766   5.274   0.151  0.00  0.00    +0.079 A 
ATOM      4  C   UNL     1       5.965   5.990   0.227  0.00  0.00    +0.028 A 
ATOM      5  C   UNL     1       6.599   6.370  -0.921  0.00  0.00    +0.002 A 
ATOM      6  C   UNL     1       6.071   6.057  -2.167  0.00  0.00    +0.001 A 
ATOM      7  C   UNL     1       4.901   5.359  -2.275  0.00  0.00    +0.015 A 
ATOM      8  C   UNL     1       4.232   4.957  -1.119  0.00  0.00    +0.065 A 
ATOM      9  C   UNL     1       2.974   4.201  -1.174  0.00  0.00    +0.267 A 
ATOM     10  O   UNL     1       2.467   3.894  -2.238  0.00  0.00    -0.267 OA
ATOM     11  N   UNL     1       2.397   3.861   0.002  0.00  0.00    -0.253 N 
ENDROOT
BRANCH  11  12
ATOM     12  C   UNL     1       1.193   3.142   0.005  0.00  0.00    +0.087 A 
ATOM     13  C   UNL     1      -0.020   3.818   0.009  0.00  0.00    +0.032 A 
ATOM     14  C   UNL     1      -1.205   3.108   0.013  0.00  0.00    +0.040 A 
ATOM     15  C   UNL     1      -1.185   1.723   0.007  0.00  0.00    +0.126 A 
ATOM     16  C   UNL     1       0.022   1.046   0.009  0.00  0.00    +0.078 A 
ATOM     17  C   UNL     1       1.212   1.752   0.005  0.00  0.00    +0.150 A 
ATOM     18  F   UNL     1       2.390   1.092   0.002  0.00  0.00    -0.203 F 
ATOM     19  F   UNL     1      -2.346   1.032   0.005  0.00  0.00    -0.205 F 
ENDBRANCH  11  12
BRANCH   1  20
ATOM     20  S   UNL     1       2.191   3.735   2.688  0.00  0.00    -0.075 S 
BRANCH  20  22
ATOM     21  C   UNL     1       4.699   3.707   3.771  0.00  0.00    +0.029 C 
ATOM     22  C   UNL     1       3.354   4.427   3.890  0.00  0.00    +0.137 C 
BRANCH  22  23
ATOM     23  C   UNL     1       2.807   4.244   5.282  0.00  0.00    +0.230 C 
ATOM     24  O   UNL     1       2.020   3.350   5.511  0.00  0.00    -0.274 OA
ATOM     25  N   UNL     1       3.192   5.073   6.272  0.00  0.00    -0.282 N 
ATOM     26  H   UNL     1       3.870   5.746   6.105  0.00  0.00    +0.155 HD
BRANCH  25  27
ATOM     27  C   UNL     1       2.615   4.962   7.543  0.00  0.00    +0.069 A 
ATOM     28  C   UNL     1       2.252   3.716   8.036  0.00  0.00    +0.026 A 
ATOM     29  C   UNL     1       1.687   3.608   9.292  0.00  0.00    +0.002 A 
ATOM     30  C   UNL     1       1.472   4.741  10.055  0.00  0.00    +0.003 A 
ATOM     31  C   UNL     1       1.826   5.985   9.566  0.00  0.00    +0.040 A 
ATOM     32  C   UNL     1       2.397   6.100   8.312  0.00  0.00    +0.144 A 
ATOM     33  F   UNL     1       2.743   7.315   7.834  0.00  0.00    -0.204 F 
ENDBRANCH  25  27
ENDBRANCH  22  23
ENDBRANCH  20  22
ENDBRANCH   1  20
TORSDOF 5
