REMARK  Name = ZINC38576712
REMARK  9 active torsions:
REMARK  status: ('A' for Active; 'I' for Inactive)
REMARK    1  A    between atoms: C_1  and  C_2
REMARK    2  A    between atoms: C_4  and  C_38
REMARK    3  A    between atoms: C_5  and  O_37
REMARK    4  A    between atoms: C_6  and  C_8
REMARK    5  A    between atoms: C_11  and  C_13
REMARK    6  A    between atoms: N_15  and  C_16
REMARK    7  A    between atoms: C_18  and  C_28
REMARK    8  A    between atoms: N_30  and  C_31
REMARK    9  A    between atoms: C_31  and  C_32
REMARK                            x       y       z     vdW  Elec       q    Type
REMARK                         _______ _______ _______ _____ _____    ______ ____
ROOT
ATOM      1  C   UNL     1       0.075  -3.645   6.157  0.00  0.00    +0.261 C 
ATOM      2  O   UNL     1       0.058  -2.637   6.838  0.00  0.00    -0.269 OA
ATOM      3  N   UNL     1       0.098  -4.857   6.747  0.00  0.00    -0.298 N 
ATOM      4  H   UNL     1       0.112  -5.660   6.203  0.00  0.00    +0.150 HD
ENDROOT
BRANCH   3   5
ATOM      5  C   UNL     1       0.103  -4.961   8.208  0.00  0.00    +0.144 C 
ATOM      6  C   UNL     1      -0.854  -6.065   8.673  0.00  0.00    +0.109 C 
ATOM      7  C   UNL     1      -0.203  -7.205   9.441  0.00  0.00    +0.016 C 
ATOM      8  C   UNL     1      -1.044  -7.483  10.706  0.00  0.00    +0.005 C 
ATOM      9  C   UNL     1      -0.141  -7.184  11.919  0.00  0.00    +0.001 C 
ATOM     10  C   UNL     1       0.957  -6.244  11.357  0.00  0.00    +0.014 C 
ATOM     11  C   UNL     1       1.213  -6.846   9.964  0.00  0.00    +0.052 C 
ATOM     12  S   UNL     1       1.745  -5.519   8.809  0.00  0.00    -0.134 S 
BRANCH   6  13
ATOM     13  C   UNL     1      -1.538  -6.641   7.460  0.00  0.00    +0.219 C 
ATOM     14  O   UNL     1      -1.391  -7.812   7.180  0.00  0.00    -0.275 OA
ATOM     15  N   UNL     1      -2.312  -5.855   6.686  0.00  0.00    -0.308 N 
ATOM     16  H   UNL     1      -2.429  -4.919   6.909  0.00  0.00    +0.149 HD
BRANCH  15  17
ATOM     17  C   UNL     1      -2.976  -6.416   5.506  0.00  0.00    +0.178 C 
BRANCH  17  18
ATOM     18  C   UNL     1      -3.774  -5.337   4.820  0.00  0.00    +0.122 A 
ATOM     19  C   UNL     1      -3.324  -4.524   3.848  0.00  0.00    +0.046 A 
ATOM     20  C   UNL     1      -4.397  -3.672   3.497  0.00  0.00    +0.041 A 
ATOM     21  C   UNL     1      -5.439  -4.017   4.275  0.00  0.00    +0.195 A 
ATOM     22  O   UNL     1      -5.057  -5.029   5.071  0.00  0.00    -0.466 OA
ENDBRANCH  17  18
ENDBRANCH  15  17
ENDBRANCH   6  13
ENDBRANCH   3   5
BRANCH   1  26
ATOM     23  C   UNL     1       0.052  -2.840   2.447  0.00  0.00    +0.080 C 
ATOM     24  N   UNL     1       0.076  -4.144   2.609  0.00  0.00    -0.153 NA
ATOM     25  N   UNL     1       0.086  -4.520   3.827  0.00  0.00    -0.148 NA
ATOM     26  C   UNL     1       0.070  -3.542   4.695  0.00  0.00    +0.131 C 
ATOM     27  C   UNL     1       0.052  -2.273   3.857  0.00  0.00    +0.120 C 
BRANCH  23  33
ATOM     28  C   UNL     1      -0.018   1.503   0.010  0.00  0.00    +0.044 C 
ATOM     29  C   UNL     1       0.002  -0.004   0.002  0.00  0.00    -0.049 A 
ATOM     30  C   UNL     1       0.006  -0.687  -1.205  0.00  0.00    +0.010 A 
ATOM     31  C   UNL     1       0.024  -2.068  -1.229  0.00  0.00    -0.008 A 
ATOM     32  C   UNL     1       0.040  -2.784  -0.042  0.00  0.00    +0.129 A 
ATOM     33  C   UNL     1       0.036  -2.097   1.185  0.00  0.00    +0.040 A 
ATOM     34  C   UNL     1       0.023  -0.695   1.192  0.00  0.00    +0.016 A 
ATOM     35  C   UNL     1       0.028  -2.797  -2.547  0.00  0.00    +0.047 C 
BRANCH  32  36
ATOM     36  O   UNL     1       0.057  -4.140  -0.064  0.00  0.00    -0.506 OA
ATOM     37  H   UNL     1       0.945  -4.522  -0.075  0.00  0.00    +0.292 HD
ENDBRANCH  32  36
ENDBRANCH  23  33
ENDBRANCH   1  26
TORSDOF 7
