REMARK  Name = ZINC15837538
REMARK  3 active torsions:
REMARK  status: ('A' for Active; 'I' for Inactive)
REMARK    1  A    between atoms: C_1  and  C_2
REMARK    2  A    between atoms: C_7  and  N_8
REMARK    3  A    between atoms: C_15  and  C_17
REMARK                            x       y       z     vdW  Elec       q    Type
REMARK                         _______ _______ _______ _____ _____    ______ ____
ROOT
ATOM      1  N   UNL     1       3.332   5.152   2.854  0.00  0.00    -0.269 N 
ATOM      2  C   UNL     1       2.168   5.017   2.188  0.00  0.00    +0.307 C 
ATOM      3  O   UNL     1       1.169   4.653   2.778  0.00  0.00    -0.252 OA
ATOM      4  N   UNL     1       2.112   5.286   0.869  0.00  0.00    -0.278 N 
ATOM      5  C   UNL     1       3.242   5.733   0.034  0.00  0.00    +0.110 C 
ATOM      6  C   UNL     1       2.586   6.474  -1.158  0.00  0.00    +0.021 C 
ATOM      7  C   UNL     1       1.316   5.612  -1.403  0.00  0.00    +0.029 C 
ATOM      8  C   UNL     1       0.914   5.181   0.023  0.00  0.00    +0.114 C 
ATOM      9  H   UNL     1       4.146   5.363   2.371  0.00  0.00    +0.156 HD
ENDROOT
BRANCH   1  16
ATOM     10  C   UNL     1       5.797   4.395   4.058  0.00  0.00    +0.045 C 
ATOM     11  C   UNL     1       4.549   4.619   4.872  0.00  0.00    -0.029 A 
ATOM     12  C   UNL     1       4.579   4.458   6.243  0.00  0.00    +0.005 A 
ATOM     13  C   UNL     1       3.435   4.664   6.991  0.00  0.00    +0.000 A 
ATOM     14  C   UNL     1       2.255   5.031   6.368  0.00  0.00    +0.002 A 
ATOM     15  C   UNL     1       2.219   5.198   4.998  0.00  0.00    +0.023 A 
ATOM     16  C   UNL     1       3.366   4.987   4.244  0.00  0.00    +0.038 A 
ENDBRANCH   1  16
BRANCH   8  17
ATOM     17  C   UNL     1       0.420   3.758   0.009  0.00  0.00    +0.010 A 
ATOM     18  C   UNL     1      -0.855   3.296   0.016  0.00  0.00    +0.013 A 
ATOM     19  C   UNL     1      -1.074   1.932  -0.007  0.00  0.00    +0.008 A 
ATOM     20  C   UNL     1      -0.008   1.095  -0.025  0.00  0.00    +0.045 A 
ATOM     21  S   UNL     1       1.361   2.241  -0.024  0.00  0.00    -0.100 S 
ENDBRANCH   8  17
TORSDOF 2
