REMARK  Name = ZINC53790778
REMARK  5 active torsions:
REMARK  status: ('A' for Active; 'I' for Inactive)
REMARK    1  A    between atoms: C_4  and  O_27
REMARK    2  A    between atoms: C_5  and  C_7
REMARK    3  A    between atoms: N_9  and  N_10
REMARK    4  A    between atoms: C_11  and  C_13
REMARK    5  A    between atoms: N_17  and  C_20
REMARK                            x       y       z     vdW  Elec       q    Type
REMARK                         _______ _______ _______ _____ _____    ______ ____
ROOT
ATOM      1  N   UNL     1       0.121  -4.255  -0.024  0.00  0.00    -0.234 N 
ATOM      2  C   UNL     1      -1.033  -4.951  -0.017  0.00  0.00    +0.241 C 
ATOM      3  O   UNL     1      -2.095  -4.364  -0.003  0.00  0.00    -0.273 OA
ATOM      4  H   UNL     1       0.970  -4.725  -0.036  0.00  0.00    +0.173 HD
ENDROOT
BRANCH   2   5
ATOM      5  C   UNL     1      -1.006  -6.457  -0.026  0.00  0.00    +0.164 C 
ATOM      6  C   UNL     1      -2.442  -7.026   0.031  0.00  0.00    +0.041 C 
ATOM      7  C   UNL     1      -2.251  -8.277   0.917  0.00  0.00    +0.115 C 
ATOM      8  N   UNL     1      -1.069  -7.996   1.740  0.00  0.00    -0.271 N 
ATOM      9  C   UNL     1      -0.345  -6.983   1.229  0.00  0.00    +0.232 C 
ATOM     10  O   UNL     1       0.684  -6.552   1.705  0.00  0.00    -0.274 OA
BRANCH   8  11
ATOM     11  C   UNL     1      -0.736  -8.694   2.907  0.00  0.00    +0.036 A 
ATOM     12  C   UNL     1      -1.543  -9.733   3.351  0.00  0.00    +0.025 A 
ATOM     13  C   UNL     1      -1.212 -10.421   4.502  0.00  0.00    +0.022 A 
ATOM     14  C   UNL     1      -0.076 -10.075   5.212  0.00  0.00    +0.041 A 
ATOM     15  C   UNL     1       0.731  -9.040   4.772  0.00  0.00    +0.022 A 
ATOM     16  C   UNL     1       0.407  -8.354   3.619  0.00  0.00    +0.025 A 
ATOM     17 CL   UNL     1       0.338 -10.941   6.659  0.00  0.00    -0.084 Cl
ENDBRANCH   8  11
ENDBRANCH   2   5
BRANCH   1  20
ATOM     18  C   UNL     1       1.250  -2.159  -0.023  0.00  0.00    +0.264 C 
ATOM     19  O   UNL     1       2.314  -2.748  -0.037  0.00  0.00    -0.269 OA
ATOM     20  N   UNL     1       0.095  -2.855  -0.016  0.00  0.00    -0.230 N 
ATOM     21  H   UNL     1      -0.754  -2.385  -0.004  0.00  0.00    +0.173 HD
BRANCH  18  26
ATOM     22  C   UNL     1      -0.017   1.374   0.010  0.00  0.00    +0.001 A 
ATOM     23  C   UNL     1       1.170   2.089   0.002  0.00  0.00    +0.004 A 
ATOM     24  C   UNL     1       2.383   1.429  -0.013  0.00  0.00    +0.046 A 
ATOM     25  C   UNL     1       2.420   0.043  -0.021  0.00  0.00    +0.129 A 
ATOM     26  C   UNL     1       1.222  -0.684  -0.014  0.00  0.00    +0.079 A 
ATOM     27  C   UNL     1       0.002  -0.004   0.002  0.00  0.00    +0.017 A 
BRANCH  25  28
ATOM     28  O   UNL     1       3.611  -0.606  -0.037  0.00  0.00    -0.506 OA
ATOM     29  H   UNL     1       3.966  -0.799   0.842  0.00  0.00    +0.292 HD
ENDBRANCH  25  28
ENDBRANCH  18  26
ENDBRANCH   1  20
TORSDOF 5
