REMARK  Name = ZINC09102164
REMARK  4 active torsions:
REMARK  status: ('A' for Active; 'I' for Inactive)
REMARK    1  A    between atoms: C_10  and  C_12
REMARK    2  A    between atoms: N_14  and  C_15
REMARK    3  A    between atoms: C_15  and  C_16
REMARK    4  A    between atoms: N_19  and  C_23
REMARK                            x       y       z     vdW  Elec       q    Type
REMARK                         _______ _______ _______ _____ _____    ______ ____
ROOT
ATOM      1  C   UNL     1       2.395   4.146   0.001  0.00  0.00    +0.280 C 
ATOM      2  O   UNL     1       3.471   3.581  -0.012  0.00  0.00    -0.267 OA
ATOM      3  N   UNL     1       2.341   5.492   0.009  0.00  0.00    -0.305 N 
ATOM      4  H   UNL     1       1.482   5.943   0.020  0.00  0.00    +0.149 HD
ENDROOT
BRANCH   1  14
ATOM      5  C   UNL     1      -3.668   2.053   0.049  0.00  0.00    +0.001 A 
ATOM      6  C   UNL     1      -3.617   3.440   0.057  0.00  0.00    +0.004 A 
ATOM      7  C   UNL     1      -2.408   4.101   0.049  0.00  0.00    +0.047 A 
ATOM      8  C   UNL     1      -1.222   3.374   0.032  0.00  0.00    +0.139 A 
ATOM      9  C   UNL     1      -1.282   1.970   0.019  0.00  0.00    +0.064 A 
ATOM     10  C   UNL     1      -2.514   1.319   0.033  0.00  0.00    +0.015 A 
ATOM     11  C   UNL     1      -0.014   1.214   0.009  0.00  0.00    +0.193 A 
ATOM     12  O   UNL     1       0.002  -0.004   0.002  0.00  0.00    -0.287 OA
ATOM     13  C   UNL     1       1.228   2.002   0.001  0.00  0.00    +0.103 A 
ATOM     14  C   UNL     1       1.143   3.353   0.009  0.00  0.00    +0.193 A 
ATOM     15  O   UNL     1      -0.030   4.003   0.024  0.00  0.00    -0.450 OA
ENDBRANCH   1  14
BRANCH   3  16
ATOM     16  C   UNL     1       3.579   6.276   0.002  0.00  0.00    +0.150 C 
BRANCH  16  17
ATOM     17  C   UNL     1       3.239   7.767   0.013  0.00  0.00    +0.213 C 
ATOM     18  C   UNL     1       4.523   8.615  -0.072  0.00  0.00    +0.163 C 
ATOM     19  N   UNL     1       4.516   9.387   1.179  0.00  0.00    -0.234 N 
ATOM     20  C   UNL     1       3.425   9.061   1.885  0.00  0.00    +0.408 C 
ATOM     21  O   UNL     1       3.164   9.549   2.966  0.00  0.00    -0.226 OA
ATOM     22  O   UNL     1       2.646   8.146   1.289  0.00  0.00    -0.444 OA
BRANCH  19  23
ATOM     23  C   UNL     1       5.491  10.313   1.570  0.00  0.00    +0.041 A 
ATOM     24  C   UNL     1       6.584  10.560   0.749  0.00  0.00    +0.025 A 
ATOM     25  C   UNL     1       7.542  11.478   1.133  0.00  0.00    +0.023 A 
ATOM     26  C   UNL     1       7.420  12.143   2.341  0.00  0.00    +0.059 A 
ATOM     27  C   UNL     1       6.335  11.894   3.164  0.00  0.00    +0.061 A 
ATOM     28  C   UNL     1       5.371  10.980   2.781  0.00  0.00    +0.045 A 
ATOM     29 CL   UNL     1       6.185  12.730   4.678  0.00  0.00    -0.082 Cl
ATOM     30 CL   UNL     1       8.630  13.290   2.825  0.00  0.00    -0.082 Cl
ENDBRANCH  19  23
ENDBRANCH  16  17
ENDBRANCH   3  16
TORSDOF 4
