REMARK  Name = ZINC65227652
REMARK  9 active torsions:
REMARK  status: ('A' for Active; 'I' for Inactive)
REMARK    1  A    between atoms: C_1  and  C_2
REMARK    2  A    between atoms: C_4  and  C_7
REMARK    3  A    between atoms: C_12  and  N_13
REMARK    4  A    between atoms: C_16  and  C_19
REMARK    5  A    between atoms: N_21  and  C_22
REMARK    6  A    between atoms: C_22  and  C_23
REMARK    7  A    between atoms: C_26  and  C_29
REMARK    8  A    between atoms: C_29  and  C_30
REMARK    9  A    between atoms: C_29  and  C_31
REMARK                            x       y       z     vdW  Elec       q    Type
REMARK                         _______ _______ _______ _____ _____    ______ ____
ROOT
ATOM      1  N   UNL     1       0.340  -4.532  -0.023  0.00  0.00    -0.316 N 
ATOM      2  C   UNL     1       1.171  -3.333   0.151  0.00  0.00    +0.107 C 
ATOM      3  C   UNL     1       2.166  -3.250  -1.012  0.00  0.00    +0.031 C 
ATOM      4  C   UNL     1       2.958  -4.557  -1.095  0.00  0.00    +0.078 C 
ATOM      5  C   UNL     1       1.999  -5.720  -1.361  0.00  0.00    +0.031 C 
ATOM      6  C   UNL     1       1.003  -5.832  -0.197  0.00  0.00    +0.107 C 
ENDROOT
BRANCH   1  12
ATOM      7  C   UNL     1      -1.738  -4.470   1.201  0.00  0.00    +0.060 A 
ATOM      8  C   UNL     1      -3.130  -4.370   1.185  0.00  0.00    +0.016 A 
ATOM      9  C   UNL     1      -3.768  -4.248  -0.039  0.00  0.00    +0.018 A 
ATOM     10  C   UNL     1      -3.016  -4.231  -1.198  0.00  0.00    +0.084 A 
ATOM     11  N   UNL     1      -1.700  -4.327  -1.160  0.00  0.00    -0.349 N 
ATOM     12  C   UNL     1      -1.043  -4.439  -0.016  0.00  0.00    +0.110 A 
ATOM     13  H   UNL     1      -1.202  -4.312  -1.992  0.00  0.00    +0.167 HD
BRANCH   7  17
ATOM     14  C   UNL     1      -0.857  -4.679   6.109  0.00  0.00    +0.112 C 
ATOM     15  C   UNL     1      -0.634  -4.692   4.619  0.00  0.00    +0.225 A 
ATOM     16  N   UNL     1      -1.554  -4.536   3.711  0.00  0.00    -0.191 NA
ATOM     17  C   UNL     1      -1.006  -4.602   2.484  0.00  0.00    +0.205 A 
ATOM     18  N   UNL     1       0.283  -4.803   2.612  0.00  0.00    -0.056 NA
ATOM     19  O   UNL     1       0.544  -4.859   4.006  0.00  0.00    -0.338 OA
ENDBRANCH   7  17
ENDBRANCH   1  12
BRANCH   4  20
ATOM     20  C   UNL     1       3.961  -4.466  -2.216  0.00  0.00    +0.216 C 
ATOM     21  O   UNL     1       4.035  -3.456  -2.882  0.00  0.00    -0.276 OA
ATOM     22  N   UNL     1       4.775  -5.507  -2.477  0.00  0.00    -0.311 N 
ATOM     23  H   UNL     1       4.715  -6.316  -1.944  0.00  0.00    +0.149 HD
BRANCH  22  24
ATOM     24  C   UNL     1       5.750  -5.419  -3.567  0.00  0.00    +0.139 C 
BRANCH  24  25
ATOM     25  C   UNL     1       6.530  -6.706  -3.649  0.00  0.00    -0.030 A 
ATOM     26  C   UNL     1       7.695  -6.856  -2.921  0.00  0.00    +0.005 A 
ATOM     27  C   UNL     1       8.410  -8.036  -2.996  0.00  0.00    +0.004 A 
ATOM     28  C   UNL     1       7.960  -9.067  -3.799  0.00  0.00    -0.045 A 
ATOM     29  C   UNL     1       6.794  -8.918  -4.527  0.00  0.00    +0.004 A 
ATOM     30  C   UNL     1       6.076  -7.739  -4.448  0.00  0.00    +0.005 A 
BRANCH  28  31
ATOM     31  C   UNL     1       8.740 -10.354  -3.882  0.00  0.00    +0.013 C 
ATOM     32  C   UNL     1       7.861 -11.515  -3.413  0.00  0.00    +0.012 C 
ATOM     33  C   UNL     1       9.174 -10.595  -5.329  0.00  0.00    +0.012 C 
ENDBRANCH  28  31
ENDBRANCH  24  25
ENDBRANCH  22  24
ENDBRANCH   4  20
TORSDOF 6
