REMARK  Name = ZINC63671479
REMARK  7 active torsions:
REMARK  status: ('A' for Active; 'I' for Inactive)
REMARK    1  A    between atoms: C_1  and  O_2
REMARK    2  A    between atoms: O_2  and  C_3
REMARK    3  A    between atoms: C_9  and  C_12
REMARK    4  A    between atoms: C_12  and  C_13
REMARK    5  A    between atoms: C_13  and  N_14
REMARK    6  A    between atoms: C_15  and  C_17
REMARK    7  A    between atoms: C_17  and  N_18
REMARK                            x       y       z     vdW  Elec       q    Type
REMARK                         _______ _______ _______ _____ _____    ______ ____
ROOT
ATOM      1  N   UNL     1      -0.757  -6.774  -1.501  0.00  0.00    -0.314 N 
ATOM      2  C   UNL     1      -1.924  -7.382  -1.793  0.00  0.00    +0.231 C 
ATOM      3  O   UNL     1      -2.617  -6.962  -2.695  0.00  0.00    -0.274 OA
ATOM      4  H   UNL     1      -0.203  -7.110  -0.779  0.00  0.00    +0.149 HD
ENDROOT
BRANCH   1   5
ATOM      5  C   UNL     1      -0.327  -5.606  -2.272  0.00  0.00    +0.108 C 
BRANCH   5   6
ATOM      6  C   UNL     1       1.020  -5.112  -1.741  0.00  0.00    +0.052 C 
BRANCH   6  13
ATOM      7  C   UNL     1       0.575  -0.596  -1.033  0.00  0.00    +0.121 A 
ATOM      8  C   UNL     1       1.142   0.210  -2.036  0.00  0.00    +0.047 A 
ATOM      9  C   UNL     1       1.765  -0.305  -3.117  0.00  0.00    +0.029 A 
ATOM     10  C   UNL     1       1.867  -1.760  -3.274  0.00  0.00    +0.043 A 
ATOM     11  N   UNL     1       2.407  -2.504  -4.206  0.00  0.00    -0.380 N 
ATOM     12  C   UNL     1       2.214  -3.914  -3.848  0.00  0.00    +0.144 C 
ATOM     13  C   UNL     1       1.464  -3.910  -2.535  0.00  0.00    -0.040 C 
ATOM     14  C   UNL     1       1.271  -2.610  -2.217  0.00  0.00    +0.002 A 
ATOM     15  C   UNL     1       0.621  -1.949  -1.081  0.00  0.00    +0.055 A 
ATOM     16  H   UNL     1       2.857  -2.179  -5.001  0.00  0.00    +0.160 HD
BRANCH   7  18
ATOM     17  C   UNL     1      -0.060   1.432   0.034  0.00  0.00    +0.277 C 
ATOM     18  O   UNL     1      -0.035   0.003   0.024  0.00  0.00    -0.495 OA
ENDBRANCH   7  18
ENDBRANCH   6  13
ENDBRANCH   5   6
ENDBRANCH   1   5
BRANCH   2  19
ATOM     19  C   UNL     1      -2.367  -8.584  -0.999  0.00  0.00    +0.209 C 
BRANCH  19  20
ATOM     20  N   UNL     1      -3.713  -8.980  -1.422  0.00  0.00    -0.260 N 
ATOM     21  C   UNL     1      -3.759  -9.976  -2.373  0.00  0.00    +0.061 A 
ATOM     22  C   UNL     1      -3.217 -11.185  -1.879  0.00  0.00    +0.025 A 
ATOM     23  C   UNL     1      -3.183 -12.329  -2.634  0.00  0.00    +0.002 A 
ATOM     24  C   UNL     1      -3.698 -12.306  -3.918  0.00  0.00    +0.002 A 
ATOM     25  C   UNL     1      -4.213 -11.135  -4.411  0.00  0.00    +0.028 A 
ATOM     26  C   UNL     1      -4.235  -9.946  -3.649  0.00  0.00    +0.068 A 
ATOM     27  N   UNL     1      -4.743  -8.885  -4.418  0.00  0.00    -0.309 N 
ATOM     28  C   UNL     1      -4.519  -9.009  -5.799  0.00  0.00    +0.092 A 
ATOM     29  C   UNL     1      -5.073  -7.972  -6.434  0.00  0.00    +0.021 A 
ATOM     30  C   UNL     1      -5.655  -7.156  -5.455  0.00  0.00    +0.034 A 
ATOM     31  C   UNL     1      -5.419  -7.739  -4.231  0.00  0.00    +0.081 A 
ATOM     32  S   UNL     1      -5.971  -6.960  -2.754  0.00  0.00    -0.098 S 
ATOM     33  C   UNL     1      -6.047  -8.279  -1.519  0.00  0.00    +0.172 C 
ATOM     34  C   UNL     1      -4.703  -8.331  -0.830  0.00  0.00    +0.230 C 
ATOM     35  O   UNL     1      -4.532  -7.786   0.240  0.00  0.00    -0.274 OA
ENDBRANCH  19  20
ENDBRANCH   2  19
TORSDOF 6
