REMARK  Name = ZINC32614480
REMARK  4 active torsions:
REMARK  status: ('A' for Active; 'I' for Inactive)
REMARK    1  A    between atoms: C_1  and  C_2
REMARK    2  A    between atoms: C_5  and  C_8
REMARK    3  A    between atoms: N_9  and  N_10
REMARK    4  A    between atoms: C_11  and  C_13
REMARK                            x       y       z     vdW  Elec       q    Type
REMARK                         _______ _______ _______ _____ _____    ______ ____
ROOT
ATOM      1  C   UNL     1      -1.781  -1.751  -1.346  0.00  0.00    +0.297 C 
ATOM      2  C   UNL     1      -0.381  -2.374  -1.269  0.00  0.00    +0.283 C 
ATOM      3  O   UNL     1       0.507  -1.581  -2.063  0.00  0.00    -0.484 OA
ATOM      4  C   UNL     1       0.439  -0.231  -1.895  0.00  0.00    +0.163 A 
ATOM      5  C   UNL     1       1.476   0.541  -2.337  0.00  0.00    +0.058 A 
ATOM      6  C   UNL     1       1.428   1.936  -2.180  0.00  0.00    -0.014 A 
ATOM      7  C   UNL     1       2.480   2.756  -2.623  0.00  0.00    +0.008 A 
ATOM      8  C   UNL     1       2.400   4.104  -2.455  0.00  0.00    +0.001 A 
ATOM      9  C   UNL     1       1.289   4.687  -1.849  0.00  0.00    +0.001 A 
ATOM     10  C   UNL     1       0.251   3.924  -1.407  0.00  0.00    +0.008 A 
ATOM     11  C   UNL     1       0.298   2.528  -1.563  0.00  0.00    -0.014 A 
ATOM     12  C   UNL     1      -0.753   1.710  -1.118  0.00  0.00    +0.058 A 
ATOM     13  C   UNL     1      -0.678   0.355  -1.281  0.00  0.00    +0.164 A 
ATOM     14  O   UNL     1      -1.707  -0.417  -0.833  0.00  0.00    -0.472 OA
ENDROOT
BRANCH   1  16
ATOM     15  N   UNL     1      -3.030  -3.832  -0.866  0.00  0.00    -0.204 N 
ATOM     16  C   UNL     1      -2.744  -2.562  -0.517  0.00  0.00    +0.276 C 
ATOM     17  O   UNL     1      -3.261  -2.072   0.465  0.00  0.00    -0.270 OA
ATOM     18  H   UNL     1      -2.561  -4.277  -1.756  0.00  0.00    +0.177 HD
BRANCH  15  20
ATOM     19  C   UNL     1      -4.111  -5.842  -0.361  0.00  0.00    +0.138 C 
ATOM     20  N   UNL     1      -3.925  -4.586  -0.096  0.00  0.00    -0.188 NA
BRANCH  19  25
ATOM     21  C   UNL     1      -0.128  -8.783  -3.289  0.00  0.00    +0.044 C 
ATOM     22  C   UNL     1      -1.172  -8.012  -2.522  0.00  0.00    -0.050 A 
ATOM     23  C   UNL     1      -0.864  -6.769  -2.000  0.00  0.00    +0.004 A 
ATOM     24  C   UNL     1      -1.814  -6.058  -1.296  0.00  0.00    +0.010 A 
ATOM     25  C   UNL     1      -3.090  -6.596  -1.112  0.00  0.00    -0.005 A 
ATOM     26  C   UNL     1      -3.392  -7.855  -1.637  0.00  0.00    +0.010 A 
ATOM     27  C   UNL     1      -2.433  -8.552  -2.343  0.00  0.00    +0.004 A 
ENDBRANCH  19  25
ENDBRANCH  15  20
ENDBRANCH   1  16
TORSDOF 3
