REMARK  Name = ZINC00708156
REMARK  13 active torsions:
REMARK  status: ('A' for Active; 'I' for Inactive)
REMARK    1  A    between atoms: C_1  and  C_2
REMARK    2  A    between atoms: C_2  and  O_3
REMARK    3  A    between atoms: O_3  and  C_4
REMARK    4  A    between atoms: C_7  and  C_12
REMARK    5  A    between atoms: C_9  and  O_10
REMARK    6  A    between atoms: O_10  and  C_11
REMARK    7  A    between atoms: C_17  and  C_22
REMARK    8  A    between atoms: C_25  and  O_28
REMARK    9  A    between atoms: O_28  and  C_29
REMARK   10  A    between atoms: C_31  and  C_41
REMARK   11  A    between atoms: C_32  and  C_33
REMARK   12  A    between atoms: C_33  and  O_35
REMARK   13  A    between atoms: O_35  and  C_36
REMARK                            x       y       z     vdW  Elec       q    Type
REMARK                         _______ _______ _______ _____ _____    ______ ____
ROOT
ATOM      1  C   UNL     1      -2.072  -1.427  -3.434  0.00  0.00    +0.092 C 
ATOM      2  C   UNL     1      -3.152  -1.977  -4.332  0.00  0.00    +0.024 C 
ATOM      3  C   UNL     1      -3.622  -3.230  -4.158  0.00  0.00    +0.016 C 
ATOM      4  C   UNL     1      -4.704  -3.786  -5.050  0.00  0.00    +0.059 C 
ATOM      5  C   UNL     1      -4.596  -3.159  -6.441  0.00  0.00    +0.032 C 
ATOM      6  C   UNL     1      -4.716  -1.638  -6.299  0.00  0.00    +0.088 C 
ATOM      7  C   UNL     1      -3.653  -1.150  -5.353  0.00  0.00    +0.162 C 
ATOM      8  O   UNL     1      -3.219  -0.022  -5.474  0.00  0.00    -0.292 OA
ATOM      9  N   UNL     1      -3.126  -4.026  -3.160  0.00  0.00    -0.321 N 
ATOM     10  C   UNL     1      -2.463  -3.479  -2.096  0.00  0.00    +0.016 C 
ATOM     11  C   UNL     1      -1.952  -2.238  -2.178  0.00  0.00    +0.065 C 
ATOM     12  C   UNL     1      -2.309  -4.270  -0.823  0.00  0.00    +0.061 C 
ATOM     13  H   UNL     1      -3.258  -5.117  -3.208  0.00  0.00    +0.152 HD
ENDROOT
BRANCH   1  17
ATOM     14  C   UNL     1       1.659  -1.515  -5.521  0.00  0.00    +0.162 A 
ATOM     15  C   UNL     1       0.976  -2.694  -5.268  0.00  0.00    +0.050 A 
ATOM     16  C   UNL     1      -0.227  -2.663  -4.588  0.00  0.00    +0.008 A 
ATOM     17  C   UNL     1      -0.757  -1.456  -4.170  0.00  0.00    -0.032 A 
ATOM     18  C   UNL     1      -0.081  -0.277  -4.419  0.00  0.00    +0.054 A 
ATOM     19  C   UNL     1       1.129  -0.301  -5.095  0.00  0.00    +0.162 A 
BRANCH  19  20
ATOM     20  O   UNL     1       1.796   0.858  -5.341  0.00  0.00    -0.491 OA
ATOM     21  C   UNL     1       1.191   2.066  -4.874  0.00  0.00    +0.277 C 
ENDBRANCH  19  20
BRANCH  14  22
ATOM     22  O   UNL     1       2.846  -1.544  -6.185  0.00  0.00    -0.489 OA
BRANCH  22  24
ATOM     23  C   UNL     1       4.666  -2.659  -7.318  0.00  0.00    +0.048 C 
ATOM     24  C   UNL     1       3.330  -2.826  -6.592  0.00  0.00    +0.226 C 
ENDBRANCH  22  24
ENDBRANCH  14  22
ENDBRANCH   1  17
BRANCH   5  25
ATOM     25  C   UNL     1      -5.709  -3.675  -7.317  0.00  0.00    -0.043 A 
ATOM     26  C   UNL     1      -7.027  -3.483  -6.943  0.00  0.00    +0.007 A 
ATOM     27  C   UNL     1      -8.049  -3.950  -7.747  0.00  0.00    +0.046 A 
ATOM     28  C   UNL     1      -7.752  -4.622  -8.924  0.00  0.00    +0.120 A 
ATOM     29  C   UNL     1      -6.429  -4.818  -9.294  0.00  0.00    +0.046 A 
ATOM     30  C   UNL     1      -5.411  -4.344  -8.489  0.00  0.00    +0.007 A 
BRANCH  28  31
ATOM     31  O   UNL     1      -8.755  -5.088  -9.713  0.00  0.00    -0.495 OA
ATOM     32  C   UNL     1     -10.093  -4.850  -9.270  0.00  0.00    +0.277 C 
ENDBRANCH  28  31
ENDBRANCH   5  25
BRANCH  11  33
ATOM     33  C   UNL     1      -1.283  -1.689  -1.059  0.00  0.00    +0.338 C 
ATOM     34  O   UNL     1      -1.265  -2.294  -0.003  0.00  0.00    -0.245 OA
BRANCH  33  35
ATOM     35  O   UNL     1      -0.665  -0.494  -1.162  0.00  0.00    -0.458 OA
BRANCH  35  36
ATOM     36  C   UNL     1      -0.009   0.000   0.007  0.00  0.00    +0.177 C 
ATOM     37  C   UNL     1      -0.025   1.539   0.010  0.00  0.00    +0.044 C 
ATOM     38  C   UNL     1       1.448   1.995   0.005  0.00  0.00    +0.004 C 
ATOM     39  C   UNL     1       2.220   0.792   0.602  0.00  0.00    +0.004 C 
ATOM     40  C   UNL     1       1.474  -0.425   0.001  0.00  0.00    +0.044 C 
ENDBRANCH  35  36
ENDBRANCH  33  35
ENDBRANCH  11  33
TORSDOF 9
