REMARK  Name = ZINC00619609
REMARK  5 active torsions:
REMARK  status: ('A' for Active; 'I' for Inactive)
REMARK    1  A    between atoms: C_1  and  N_2
REMARK    2  A    between atoms: C_6  and  C_11
REMARK    3  A    between atoms: N_13  and  C_14
REMARK    4  A    between atoms: C_14  and  C_15
REMARK    5  A    between atoms: C_15  and  C_16
REMARK                            x       y       z     vdW  Elec       q    Type
REMARK                         _______ _______ _______ _____ _____    ______ ____
ROOT
ATOM      1  C   UNL     1       0.036  -4.062  -3.849  0.00  0.00    +0.244 C 
ATOM      2  O   UNL     1       0.053  -5.209  -3.447  0.00  0.00    -0.270 OA
ATOM      3  N   UNL     1       0.026  -3.812  -5.173  0.00  0.00    -0.311 N 
ATOM      4  H   UNL     1       0.013  -2.897  -5.494  0.00  0.00    +0.149 HD
ENDROOT
BRANCH   1  10
ATOM      5  C   UNL     1      -0.018   1.461   0.010  0.00  0.00    +0.175 C 
ATOM      6  N   UNL     1       0.002  -0.004   0.002  0.00  0.00    -0.247 N 
ATOM      7  C   UNL     1       0.008  -0.818  -1.104  0.00  0.00    +0.089 A 
ATOM      8  C   UNL     1      -0.002  -0.577  -2.476  0.00  0.00    +0.030 A 
ATOM      9  C   UNL     1       0.008  -1.619  -3.353  0.00  0.00    +0.015 A 
ATOM     10  C   UNL     1       0.027  -2.942  -2.886  0.00  0.00    +0.039 A 
ATOM     11  C   UNL     1       0.037  -3.202  -1.522  0.00  0.00    +0.044 A 
ATOM     12  C   UNL     1       0.028  -2.137  -0.617  0.00  0.00    +0.113 A 
ATOM     13  N   UNL     1       0.033  -2.074   0.736  0.00  0.00    -0.129 NA
ATOM     14  N   UNL     1       0.025  -0.847   1.122  0.00  0.00    -0.065 NA
ENDBRANCH   1  10
BRANCH   3  15
ATOM     15  C   UNL     1       0.035  -4.923  -6.128  0.00  0.00    +0.109 C 
BRANCH  15  16
ATOM     16  C   UNL     1       0.020  -4.370  -7.555  0.00  0.00    +0.049 C 
BRANCH  16  17
ATOM     17  C   UNL     1       0.030  -5.513  -8.537  0.00  0.00    -0.072 C 
ATOM     18  C   UNL     1      -1.106  -5.920  -9.006  0.00  0.00    -0.028 C 
ATOM     19  C   UNL     1      -1.257  -7.050  -9.981  0.00  0.00    +0.027 C 
ATOM     20  C   UNL     1       0.086  -7.354 -10.648  0.00  0.00    +0.004 C 
ATOM     21  C   UNL     1       1.153  -7.482  -9.554  0.00  0.00    +0.005 C 
ATOM     22  C   UNL     1       1.356  -6.105  -8.915  0.00  0.00    +0.030 C 
ENDBRANCH  16  17
ENDBRANCH  15  16
ENDBRANCH   3  15
TORSDOF 4
