REMARK  Name = ZINC33113686
REMARK  12 active torsions:
REMARK  status: ('A' for Active; 'I' for Inactive)
REMARK    1  A    between atoms: C_1  and  C_2
REMARK    2  A    between atoms: C_2  and  C_3
REMARK    3  A    between atoms: C_3  and  C_5
REMARK    4  A    between atoms: C_3  and  O_15
REMARK    5  A    between atoms: N_7  and  C_8
REMARK    6  A    between atoms: C_13  and  C_14
REMARK    7  A    between atoms: O_15  and  C_16
REMARK    8  A    between atoms: C_23  and  N_29
REMARK    9  A    between atoms: C_24  and  C_25
REMARK   10  A    between atoms: C_25  and  O_27
REMARK   11  A    between atoms: O_27  and  C_28
REMARK   12  A    between atoms: C_30  and  C_32
REMARK                            x       y       z     vdW  Elec       q    Type
REMARK                         _______ _______ _______ _____ _____    ______ ____
ROOT
ATOM      1  C   UNL     1      -0.505  -1.399   6.951  0.00  0.00    +0.150 A 
ATOM      2  C   UNL     1      -1.747  -2.012   6.886  0.00  0.00    +0.061 A 
ATOM      3  C   UNL     1      -2.566  -2.010   8.006  0.00  0.00    +0.019 A 
ATOM      4  C   UNL     1      -2.170  -1.413   9.176  0.00  0.00    +0.011 A 
ATOM      5  C   UNL     1      -0.910  -0.780   9.275  0.00  0.00    +0.009 A 
ATOM      6  C   UNL     1      -0.098  -0.800   8.129  0.00  0.00    +0.065 A 
ATOM      7  S   UNL     1       1.374   0.061   8.617  0.00  0.00    -0.069 S 
ATOM      8  C   UNL     1       0.942   0.440  10.303  0.00  0.00    +0.087 A 
ATOM      9  C   UNL     1      -0.327  -0.099  10.436  0.00  0.00    +0.095 A 
ATOM     10 BR   UNL     1      -2.320  -2.842   5.287  0.00  0.00    -0.046 Br
ENDROOT
BRANCH   8  11
ATOM     11  N   UNL     1       1.689   1.118  11.248  0.00  0.00    -0.280 N 
ATOM     12  C   UNL     1       2.913   1.585  10.931  0.00  0.00    +0.214 C 
ATOM     13  O   UNL     1       3.359   1.409   9.817  0.00  0.00    -0.276 OA
ATOM     14  C   UNL     1       3.727   2.324  11.961  0.00  0.00    +0.109 C 
ATOM     15  H   UNL     1       1.284   1.277  12.258  0.00  0.00    +0.155 HD
ENDBRANCH   8  11
BRANCH   9  16
ATOM     16  C   UNL     1      -1.035  -0.007  11.661  0.00  0.00    +0.342 C 
ATOM     17  O   UNL     1      -0.907  -0.876  12.503  0.00  0.00    -0.245 OA
BRANCH  16  18
ATOM     18  O   UNL     1      -1.849   1.043  11.892  0.00  0.00    -0.464 OA
ATOM     19  C   UNL     1      -2.531   1.071  13.148  0.00  0.00    +0.280 C 
ENDBRANCH  16  18
ENDBRANCH   9  16
BRANCH   1  20
ATOM     20  O   UNL     1       0.311  -1.391   5.863  0.00  0.00    -0.477 OA
BRANCH  20  21
ATOM     21  C   UNL     1       0.297  -0.217   5.049  0.00  0.00    +0.259 C 
BRANCH  21  22
ATOM     22  C   UNL     1      -0.985   0.541   5.284  0.00  0.00    +0.258 C 
ATOM     23  O   UNL     1      -2.052  -0.028   5.191  0.00  0.00    -0.271 OA
ATOM     24  N   UNL     1      -0.944   1.852   5.597  0.00  0.00    -0.282 N 
ATOM     25  H   UNL     1       0.009   2.399   5.551  0.00  0.00    +0.155 HD
BRANCH  24  26
ATOM     26  C   UNL     1      -2.115   2.516   5.980  0.00  0.00    +0.036 A 
ATOM     27  C   UNL     1      -3.350   1.902   5.814  0.00  0.00    +0.023 A 
ATOM     28  C   UNL     1      -4.503   2.559   6.194  0.00  0.00    +0.002 A 
ATOM     29  C   UNL     1      -4.430   3.828   6.740  0.00  0.00    +0.000 A 
ATOM     30  C   UNL     1      -3.202   4.440   6.912  0.00  0.00    +0.005 A 
ATOM     31  C   UNL     1      -2.045   3.789   6.529  0.00  0.00    -0.029 A 
ATOM     32  C   UNL     1      -0.707   4.459   6.711  0.00  0.00    +0.045 C 
ENDBRANCH  24  26
ENDBRANCH  21  22
BRANCH  21  34
ATOM     33  C   UNL     1       1.733  -1.301   3.317  0.00  0.00    +0.008 C 
ATOM     34  C   UNL     1       0.390  -0.616   3.575  0.00  0.00    +0.051 C 
ENDBRANCH  21  34
ENDBRANCH  20  21
ENDBRANCH   1  20
TORSDOF 8
