REMARK  Name = ZINC12835143
REMARK  11 active torsions:
REMARK  status: ('A' for Active; 'I' for Inactive)
REMARK    1  A    between atoms: C_1  and  C_2
REMARK    2  A    between atoms: C_7  and  N_8
REMARK    3  A    between atoms: C_11  and  C_16
REMARK    4  A    between atoms: C_16  and  O_17
REMARK    5  A    between atoms: O_17  and  C_18
REMARK    6  A    between atoms: C_18  and  C_20
REMARK    7  A    between atoms: C_20  and  C_21
REMARK    8  A    between atoms: C_21  and  C_22
REMARK    9  A    between atoms: C_23  and  C_35
REMARK   10  A    between atoms: C_27  and  O_33
REMARK   11  A    between atoms: O_33  and  C_34
REMARK                            x       y       z     vdW  Elec       q    Type
REMARK                         _______ _______ _______ _____ _____    ______ ____
ROOT
ATOM      1  C   UNL     1       8.539  -4.987   2.407  0.00  0.00    +0.308 C 
ENDROOT
BRANCH   1   5
ATOM      2  N   UNL     1       8.686  -7.823   6.275  0.00  0.00    -0.283 N 
ATOM      3  C   UNL     1       9.081  -6.662   5.640  0.00  0.00    +0.224 A 
ATOM      4  N   UNL     1       8.651  -6.396   4.409  0.00  0.00    -0.196 NA
ATOM      5  C   UNL     1       9.028  -5.285   3.801  0.00  0.00    +0.173 A 
ATOM      6  N   UNL     1       9.837  -4.436   4.410  0.00  0.00    -0.196 NA
ATOM      7  C   UNL     1      10.267  -4.692   5.644  0.00  0.00    +0.217 A 
ATOM      8  N   UNL     1       9.890  -5.808   6.258  0.00  0.00    -0.181 NA
ATOM      9  N   UNL     1      11.108  -3.803   6.281  0.00  0.00    -0.327 N 
ATOM     10  H   UNL     1       8.029  -8.403   5.860  0.00  0.00    +0.155 HD
ATOM     11  H   UNL     1      11.424  -3.992   7.178  0.00  0.00    +0.145 HD
ATOM     12  H   UNL     1      11.383  -2.988   5.832  0.00  0.00    +0.145 HD
BRANCH   2  19
ATOM     13  C   UNL     1       7.178  -9.522   7.988  0.00  0.00    +0.045 C 
ATOM     14  C   UNL     1       8.531  -8.989   8.384  0.00  0.00    -0.029 A 
ATOM     15  C   UNL     1       9.074  -9.322   9.609  0.00  0.00    +0.005 A 
ATOM     16  C   UNL     1      10.316  -8.834   9.973  0.00  0.00    +0.000 A 
ATOM     17  C   UNL     1      11.017  -8.010   9.111  0.00  0.00    +0.002 A 
ATOM     18  C   UNL     1      10.482  -7.678   7.882  0.00  0.00    +0.023 A 
ATOM     19  C   UNL     1       9.233  -8.162   7.516  0.00  0.00    +0.036 A 
ENDBRANCH   2  19
ENDBRANCH   1   5
BRANCH   1  20
ATOM     20  O   UNL     1       7.296  -4.239   2.479  0.00  0.00    -0.457 OA
BRANCH  20  21
ATOM     21  C   UNL     1       6.725  -3.893   1.315  0.00  0.00    +0.308 C 
ATOM     22  O   UNL     1       7.245  -4.205   0.270  0.00  0.00    -0.251 OA
BRANCH  21  23
ATOM     23  C   UNL     1       5.434  -3.115   1.311  0.00  0.00    +0.125 C 
BRANCH  23  24
ATOM     24  C   UNL     1       5.001  -2.852  -0.133  0.00  0.00    +0.054 C 
BRANCH  24  25
ATOM     25  C   UNL     1       3.710  -2.075  -0.136  0.00  0.00    +0.041 A 
ATOM     26  C   UNL     1       3.733  -0.716  -0.136  0.00  0.00    -0.030 A 
ATOM     27  C   UNL     1       2.455  -0.003  -0.140  0.00  0.00    +0.021 A 
ATOM     28  C   UNL     1       2.410   1.396  -0.140  0.00  0.00    +0.015 A 
ATOM     29  C   UNL     1       1.205   2.037  -0.143  0.00  0.00    +0.046 A 
ATOM     30  C   UNL     1       0.018   1.306  -0.146  0.00  0.00    +0.124 A 
ATOM     31  C   UNL     1       0.043  -0.079  -0.146  0.00  0.00    +0.092 A 
ATOM     32  C   UNL     1       1.259  -0.745  -0.143  0.00  0.00    +0.143 A 
ATOM     33  O   UNL     1       1.307  -2.095  -0.143  0.00  0.00    -0.422 OA
ATOM     34  C   UNL     1       2.475  -2.755  -0.139  0.00  0.00    +0.341 A 
ATOM     35  O   UNL     1       2.469  -3.973  -0.139  0.00  0.00    -0.245 OA
ATOM     36  C   UNL     1       5.040   0.035  -0.132  0.00  0.00    +0.045 C 
BRANCH  30  37
ATOM     37  O   UNL     1      -1.173   1.958  -0.155  0.00  0.00    -0.495 OA
ATOM     38  C   UNL     1      -1.131   3.386  -0.154  0.00  0.00    +0.277 C 
ENDBRANCH  30  37
ENDBRANCH  24  25
ENDBRANCH  23  24
ENDBRANCH  21  23
ENDBRANCH  20  21
ENDBRANCH   1  20
TORSDOF 8
