REMARK  Name = ZINC13994357
REMARK  10 active torsions:
REMARK  status: ('A' for Active; 'I' for Inactive)
REMARK    1  A    between atoms: C_1  and  O_2
REMARK    2  A    between atoms: O_2  and  C_3
REMARK    3  A    between atoms: C_6  and  O_27
REMARK    4  A    between atoms: C_7  and  C_9
REMARK    5  A    between atoms: C_9  and  N_55
REMARK    6  A    between atoms: C_10  and  C_11
REMARK    7  A    between atoms: C_10  and  N_55
REMARK    8  A    between atoms: C_20  and  C_21
REMARK    9  A    between atoms: C_20  and  N_55
REMARK   10  A    between atoms: O_27  and  C_28
REMARK                            x       y       z     vdW  Elec       q    Type
REMARK                         _______ _______ _______ _____ _____    ______ ____
ROOT
ATOM      1  N   UNL     1       3.939   3.909  -1.354  0.00  0.00    +0.387 N 
ATOM      2  H   UNL     1       4.272   3.110  -1.906  0.00  0.00    -0.081 HD
ENDROOT
BRANCH   1   3
ATOM      3  C   UNL     1       3.950   5.118  -2.205  0.00  0.00    -0.039 C 
BRANCH   3   8
ATOM      4  C   UNL     1       3.902   4.091  -5.842  0.00  0.00    +0.121 A 
ATOM      5  C   UNL     1       2.540   4.060  -6.103  0.00  0.00    +0.049 A 
ATOM      6  C   UNL     1       1.638   4.371  -5.105  0.00  0.00    +0.049 A 
ATOM      7  C   UNL     1       2.094   4.709  -3.839  0.00  0.00    +0.122 A 
ATOM      8  C   UNL     1       3.455   4.745  -3.579  0.00  0.00    -0.019 A 
ATOM      9  C   UNL     1       4.358   4.434  -4.578  0.00  0.00    +0.051 A 
BRANCH   4  11
ATOM     10  C   UNL     1       4.250   3.441  -8.102  0.00  0.00    +0.277 C 
ATOM     11  O   UNL     1       4.790   3.785  -6.825  0.00  0.00    -0.495 OA
ENDBRANCH   4  11
BRANCH   7  12
ATOM     12  O   UNL     1       1.205   5.009  -2.854  0.00  0.00    -0.495 OA
ATOM     13  C   UNL     1      -0.174   5.072  -3.222  0.00  0.00    +0.277 C 
ENDBRANCH   7  12
ENDBRANCH   3   8
ENDBRANCH   1   3
BRANCH   1  14
ATOM     14  C   UNL     1       4.835   4.099  -0.195  0.00  0.00    -0.042 C 
BRANCH  14  15
ATOM     15  C   UNL     1       5.195   2.747   0.364  0.00  0.00    -0.060 A 
ATOM     16  C   UNL     1       6.237   2.027  -0.189  0.00  0.00    +0.005 A 
ATOM     17  C   UNL     1       6.571   0.786   0.321  0.00  0.00    +0.050 A 
ATOM     18  C   UNL     1       5.860   0.260   1.387  0.00  0.00    +0.166 A 
ATOM     19  C   UNL     1       4.810   0.985   1.944  0.00  0.00    +0.166 A 
ATOM     20  C   UNL     1       4.485   2.231   1.432  0.00  0.00    +0.051 A 
ATOM     21  O   UNL     1       4.275   0.261   2.970  0.00  0.00    -0.453 OA
ATOM     22  C   UNL     1       5.267  -0.730   3.299  0.00  0.00    +0.466 C 
ATOM     23  O   UNL     1       5.984  -0.919   2.064  0.00  0.00    -0.453 OA
ENDBRANCH  14  15
ENDBRANCH   1  14
BRANCH   1  24
ATOM     24  C   UNL     1       2.563   3.631  -0.890  0.00  0.00    -0.046 C 
BRANCH  24  25
ATOM     25  C   UNL     1       1.975   4.859  -0.191  0.00  0.00    +0.102 C 
ATOM     26  C   UNL     1       0.486   4.621   0.168  0.00  0.00    +0.032 C 
ATOM     27  C   UNL     1       0.278   5.598   1.351  0.00  0.00    +0.030 C 
ATOM     28  C   UNL     1       1.702   5.860   1.879  0.00  0.00    +0.160 C 
ATOM     29  O   UNL     1       2.603   5.062   1.093  0.00  0.00    -0.378 OA
ENDBRANCH  24  25
ENDBRANCH   1  24
TORSDOF 8
