REMARK  Name = ZINC67269578
REMARK  8 active torsions:
REMARK  status: ('A' for Active; 'I' for Inactive)
REMARK    1  A    between atoms: C_1  and  C_2
REMARK    2  A    between atoms: N_5  and  C_8
REMARK    3  A    between atoms: C_8  and  C_10
REMARK    4  A    between atoms: C_8  and  C_11
REMARK    5  A    between atoms: C_11  and  N_12
REMARK    6  A    between atoms: C_13  and  C_15
REMARK    7  A    between atoms: C_18  and  N_21
REMARK    8  A    between atoms: C_25  and  C_28
REMARK                            x       y       z     vdW  Elec       q    Type
REMARK                         _______ _______ _______ _____ _____    ______ ____
ROOT
ATOM      1  C   UNL     1      -5.130  -3.745  -0.721  0.00  0.00    +0.037 A 
ATOM      2  C   UNL     1      -4.508  -3.137  -1.815  0.00  0.00    +0.015 A 
ATOM      3  C   UNL     1      -5.259  -2.733  -2.895  0.00  0.00    +0.024 A 
ATOM      4  C   UNL     1      -6.637  -2.930  -2.899  0.00  0.00    +0.030 A 
ATOM      5  C   UNL     1      -7.260  -3.535  -1.811  0.00  0.00    +0.024 A 
ATOM      6  C   UNL     1      -6.514  -3.946  -0.731  0.00  0.00    +0.015 A 
ENDROOT
BRANCH   4   7
ATOM      7  N   UNL     1      -7.393  -2.520  -3.992  0.00  0.00    -0.329 N 
ATOM      8  C   UNL     1      -8.829  -2.821  -4.063  0.00  0.00    +0.105 C 
ATOM      9  C   UNL     1      -9.595  -1.516  -4.307  0.00  0.00    +0.020 C 
ATOM     10  C   UNL     1      -9.034  -0.826  -5.553  0.00  0.00    +0.016 C 
ATOM     11  C   UNL     1      -7.559  -0.486  -5.329  0.00  0.00    +0.092 C 
ATOM     12  C   UNL     1      -6.772  -1.774  -5.094  0.00  0.00    +0.117 C 
BRANCH  11  13
ATOM     13  C   UNL     1      -7.017   0.223  -6.544  0.00  0.00    +0.215 C 
ATOM     14  O   UNL     1      -6.090  -0.255  -7.162  0.00  0.00    -0.276 OA
ATOM     15  N   UNL     1      -7.562   1.389  -6.942  0.00  0.00    -0.329 N 
ATOM     16  H   UNL     1      -8.304   1.772  -6.448  0.00  0.00    +0.145 HD
ATOM     17  H   UNL     1      -7.213   1.846  -7.724  0.00  0.00    +0.145 HD
ENDBRANCH  11  13
ENDBRANCH   4   7
BRANCH   1  19
ATOM     18  N   UNL     1      -2.994  -3.985   0.446  0.00  0.00    -0.313 N 
ATOM     19  C   UNL     1      -4.328  -4.179   0.438  0.00  0.00    +0.244 C 
ATOM     20  O   UNL     1      -4.870  -4.713   1.387  0.00  0.00    -0.270 OA
ATOM     21  H   UNL     1      -2.562  -3.559  -0.311  0.00  0.00    +0.149 HD
BRANCH  18  22
ATOM     22  C   UNL     1      -2.198  -4.416   1.597  0.00  0.00    +0.089 C 
BRANCH  22  23
ATOM     23  C   UNL     1      -0.747  -3.967   1.411  0.00  0.00    -0.054 C 
ATOM     24  C   UNL     1       0.060  -4.319   2.662  0.00  0.00    -0.012 C 
BRANCH  23  29
ATOM     25  C   UNL     1       0.112   1.669   1.508  0.00  0.00    +0.007 C 
ATOM     26  C   UNL     1       0.152   0.176   1.837  0.00  0.00    -0.018 C 
ATOM     27  C   UNL     1       0.713  -0.597   0.640  0.00  0.00    -0.016 C 
ATOM     28  C   UNL     1       0.676  -2.096   0.945  0.00  0.00    -0.078 C 
ATOM     29  N   UNL     1      -0.708  -2.515   1.195  0.00  0.00    +0.382 N 
ATOM     30  C   UNL     1      -1.228  -1.831   2.385  0.00  0.00    -0.078 C 
ATOM     31  C   UNL     1      -1.265  -0.322   2.136  0.00  0.00    -0.016 C 
ATOM     32  H   UNL     1      -1.279  -2.280   0.397  0.00  0.00    -0.081 HD
ENDBRANCH  23  29
ENDBRANCH  22  23
ENDBRANCH  18  22
ENDBRANCH   1  19
TORSDOF 6
