REMARK  Name = ZINC58278547
REMARK  6 active torsions:
REMARK  status: ('A' for Active; 'I' for Inactive)
REMARK    1  A    between atoms: C_1  and  C_2
REMARK    2  A    between atoms: C_2  and  C_3
REMARK    3  A    between atoms: C_3  and  C_5
REMARK    4  A    between atoms: C_3  and  S_8
REMARK    5  A    between atoms: S_8  and  C_9
REMARK    6  A    between atoms: C_13  and  C_15
REMARK                            x       y       z     vdW  Elec       q    Type
REMARK                         _______ _______ _______ _____ _____    ______ ____
ROOT
ATOM      1  C   UNL     1      -3.900  -0.616   1.373  0.00  0.00    +0.185 A 
ATOM      2  N   UNL     1      -4.893  -0.486   2.281  0.00  0.00    -0.253 N 
ATOM      3  H   UNL     1      -4.826  -0.079   3.159  0.00  0.00    +0.191 HD
ATOM      4  N   UNL     1      -6.039  -1.054   1.703  0.00  0.00    -0.152 NA
ATOM      5  C   UNL     1      -5.693  -1.486   0.512  0.00  0.00    +0.183 A 
ATOM      6  N   UNL     1      -4.395  -1.214   0.311  0.00  0.00    -0.201 NA
ENDROOT
BRANCH   5   7
ATOM      7  C   UNL     1      -6.593  -2.160  -0.457  0.00  0.00    +0.035 A 
ATOM      8  C   UNL     1      -6.103  -2.579  -1.692  0.00  0.00    +0.013 A 
ATOM      9  C   UNL     1      -6.944  -3.205  -2.589  0.00  0.00    +0.001 A 
ATOM     10  C   UNL     1      -8.272  -3.418  -2.264  0.00  0.00    +0.001 A 
ATOM     11  C   UNL     1      -8.764  -3.004  -1.040  0.00  0.00    +0.016 A 
ATOM     12  C   UNL     1      -7.930  -2.381  -0.132  0.00  0.00    +0.029 A 
ATOM     13 BR   UNL     1      -8.604  -1.822   1.544  0.00  0.00    -0.050 Br
ENDBRANCH   5   7
BRANCH   1  14
ATOM     14  S   UNL     1      -2.236  -0.073   1.573  0.00  0.00    -0.074 S 
BRANCH  14  15
ATOM     15  C   UNL     1      -1.433  -0.534   0.013  0.00  0.00    +0.139 C 
BRANCH  15  16
ATOM     16  C   UNL     1      -1.416  -2.035  -0.119  0.00  0.00    +0.224 C 
ATOM     17  O   UNL     1      -2.115  -2.579  -0.947  0.00  0.00    -0.275 OA
ATOM     18  N   UNL     1      -0.623  -2.773   0.683  0.00  0.00    -0.328 N 
ATOM     19  H   UNL     1      -0.064  -2.337   1.345  0.00  0.00    +0.145 HD
ATOM     20  H   UNL     1      -0.612  -3.739   0.598  0.00  0.00    +0.145 HD
ENDBRANCH  15  16
BRANCH  15  22
ATOM     21  C   UNL     1      -0.019   1.526   0.010  0.00  0.00    +0.005 C 
ATOM     22  C   UNL     1       0.002  -0.004   0.002  0.00  0.00    +0.020 C 
ENDBRANCH  15  22
ENDBRANCH  14  15
ENDBRANCH   1  14
TORSDOF 5
