REMARK  Name = ZINC34977996
REMARK  12 active torsions:
REMARK  status: ('A' for Active; 'I' for Inactive)
REMARK    1  A    between atoms: C_1  and  C_2
REMARK    2  A    between atoms: C_2  and  C_3
REMARK    3  A    between atoms: C_3  and  C_4
REMARK    4  A    between atoms: C_4  and  C_5
REMARK    5  A    between atoms: C_12  and  C_14
REMARK    6  A    between atoms: C_15  and  C_17
REMARK    7  A    between atoms: C_17  and  C_19
REMARK    8  A    between atoms: C_17  and  N_26
REMARK    9  A    between atoms: C_19  and  C_20
REMARK   10  A    between atoms: N_29  and  C_30
REMARK   11  A    between atoms: C_35  and  O_36
REMARK   12  A    between atoms: O_36  and  C_37
REMARK                            x       y       z     vdW  Elec       q    Type
REMARK                         _______ _______ _______ _____ _____    ______ ____
ROOT
ATOM      1  C   UNL     1       2.600  -7.744  -0.848  0.00  0.00    +0.165 C 
ENDROOT
BRANCH   1  11
ATOM      2  C   UNL     1       5.453  -2.510  -2.488  0.00  0.00    +0.216 C 
ATOM      3  O   UNL     1       5.282  -1.728  -1.577  0.00  0.00    -0.276 OA
ATOM      4  N   UNL     1       5.142  -3.812  -2.326  0.00  0.00    -0.296 N 
ATOM      5  C   UNL     1       5.248  -4.752  -3.451  0.00  0.00    +0.127 C 
ATOM      6  C   UNL     1       3.894  -5.449  -3.636  0.00  0.00    +0.127 C 
ATOM      7  N   UNL     1       3.443  -5.953  -2.332  0.00  0.00    -0.297 N 
ATOM      8  C   UNL     1       3.337  -5.014  -1.207  0.00  0.00    +0.130 C 
ATOM      9  C   UNL     1       4.696  -4.318  -1.020  0.00  0.00    +0.090 C 
ATOM     10  C   UNL     1       4.548  -3.151  -0.041  0.00  0.00    +0.029 C 
ATOM     11  C   UNL     1       3.132  -7.255  -2.170  0.00  0.00    +0.236 C 
ATOM     12  O   UNL     1       3.281  -8.033  -3.089  0.00  0.00    -0.274 OA
BRANCH   2  13
ATOM     13  C   UNL     1       6.013  -2.027  -3.801  0.00  0.00    +0.096 C 
BRANCH  13  14
ATOM     14  C   UNL     1       6.277  -0.522  -3.719  0.00  0.00    +0.009 C 
BRANCH  14  16
ATOM     15  C   UNL     1       7.111   1.473  -4.971  0.00  0.00    +0.004 C 
ATOM     16  C   UNL     1       6.846  -0.032  -5.052  0.00  0.00    -0.003 C 
ENDBRANCH  14  16
ENDBRANCH  13  14
ENDBRANCH   2  13
ENDBRANCH   1  11
BRANCH   1  17
ATOM     17  N   UNL     1       2.578  -9.209  -0.842  0.00  0.00    -0.288 N 
ATOM     18  C   UNL     1       2.636  -9.878   0.327  0.00  0.00    +0.305 C 
ATOM     19  O   UNL     1       2.706  -9.267   1.375  0.00  0.00    -0.252 OA
ATOM     20  N   UNL     1       2.616 -11.226   0.332  0.00  0.00    -0.266 N 
ATOM     21  H   UNL     1       2.522  -9.696  -1.678  0.00  0.00    +0.151 HD
ATOM     22  H   UNL     1       2.633 -11.715  -0.505  0.00  0.00    +0.156 HD
BRANCH  20  23
ATOM     23  C   UNL     1       2.571 -11.921   1.549  0.00  0.00    +0.077 A 
ATOM     24  C   UNL     1       3.099 -11.348   2.697  0.00  0.00    +0.027 A 
ATOM     25  C   UNL     1       3.053 -12.035   3.895  0.00  0.00    +0.002 A 
ATOM     26  C   UNL     1       2.483 -13.294   3.953  0.00  0.00    +0.004 A 
ATOM     27  C   UNL     1       1.956 -13.871   2.813  0.00  0.00    +0.047 A 
ATOM     28  C   UNL     1       1.992 -13.186   1.609  0.00  0.00    +0.141 A 
BRANCH  28  29
ATOM     29  O   UNL     1       1.468 -13.750   0.488  0.00  0.00    -0.493 OA
ATOM     30  C   UNL     1       0.890 -15.050   0.625  0.00  0.00    +0.277 C 
ENDBRANCH  28  29
ENDBRANCH  20  23
ENDBRANCH   1  17
BRANCH   1  31
ATOM     31  C   UNL     1       1.180  -7.212  -0.641  0.00  0.00    +0.067 C 
BRANCH  31  32
ATOM     32  C   UNL     1       0.709  -7.563   0.746  0.00  0.00    -0.045 A 
ATOM     33  C   UNL     1       0.051  -8.758   0.971  0.00  0.00    +0.004 A 
ATOM     34  C   UNL     1      -0.381  -9.081   2.243  0.00  0.00    +0.000 A 
ATOM     35  C   UNL     1      -0.155  -8.209   3.292  0.00  0.00    +0.000 A 
ATOM     36  C   UNL     1       0.503  -7.014   3.067  0.00  0.00    +0.000 A 
ATOM     37  C   UNL     1       0.939  -6.693   1.796  0.00  0.00    +0.004 A 
ENDBRANCH  31  32
ENDBRANCH   1  31
TORSDOF 9
