REMARK  Name = ZINC33369991
REMARK  10 active torsions:
REMARK  status: ('A' for Active; 'I' for Inactive)
REMARK    1  A    between atoms: C_1  and  C_2
REMARK    2  A    between atoms: C_2  and  C_3
REMARK    3  A    between atoms: C_3  and  C_4
REMARK    4  A    between atoms: C_4  and  C_5
REMARK    5  A    between atoms: C_5  and  C_7
REMARK    6  A    between atoms: C_5  and  C_9
REMARK    7  A    between atoms: C_7  and  C_8
REMARK    8  A    between atoms: C_18  and  C_22
REMARK    9  A    between atoms: N_24  and  C_25
REMARK   10  A    between atoms: C_25  and  C_26
REMARK                            x       y       z     vdW  Elec       q    Type
REMARK                         _______ _______ _______ _____ _____    ______ ____
ROOT
ATOM      1  C   UNL     1      -3.786  -1.311  -0.409  0.00  0.00    +0.219 C 
ATOM      2  O   UNL     1      -4.224  -1.738   0.638  0.00  0.00    -0.275 OA
ATOM      3  N   UNL     1      -2.796  -0.397  -0.403  0.00  0.00    -0.301 N 
ATOM      4  C   UNL     1      -2.316   0.177   0.862  0.00  0.00    +0.107 C 
ATOM      5  C   UNL     1      -0.799  -0.025   0.949  0.00  0.00    +0.017 C 
ATOM      6  C   UNL     1      -0.140   0.530  -0.305  0.00  0.00    -0.016 C 
ATOM      7  C   UNL     1      -0.660  -0.159  -1.559  0.00  0.00    +0.017 C 
ATOM      8  C   UNL     1      -2.176   0.043  -1.661  0.00  0.00    +0.107 C 
ATOM      9  N   UNL     1      -0.309   1.990  -0.392  0.00  0.00    +0.397 N 
ATOM     10  C   UNL     1       0.929   2.769  -0.499  0.00  0.00    +0.028 C 
ATOM     11  C   UNL     1       2.096   2.059   0.250  0.00  0.00    +0.061 C 
ATOM     12  S   UNL     1       1.682   0.311  -0.192  0.00  0.00    -0.174 S 
ATOM     13  H   UNL     1      -0.907   2.237  -1.281  0.00  0.00    -0.083 HD
ATOM     14  H   UNL     1      -0.825   2.353   0.509  0.00  0.00    -0.083 HD
ENDROOT
BRANCH  10  15
ATOM     15  C   UNL     1       0.710   4.133   0.102  0.00  0.00    +0.200 C 
ATOM     16  O   UNL     1      -0.370   4.423   0.571  0.00  0.00    -0.278 OA
ATOM     17  N   UNL     1       1.715   5.031   0.118  0.00  0.00    -0.313 N 
ATOM     18  H   UNL     1       2.695   4.768  -0.308  0.00  0.00    +0.149 HD
BRANCH  17  19
ATOM     19  C   UNL     1       1.503   6.358   0.702  0.00  0.00    +0.139 C 
BRANCH  19  20
ATOM     20  C   UNL     1       2.772   7.163   0.595  0.00  0.00    -0.027 A 
ATOM     21  C   UNL     1       3.000   7.946  -0.522  0.00  0.00    +0.009 A 
ATOM     22  C   UNL     1       4.162   8.687  -0.625  0.00  0.00    +0.050 A 
ATOM     23  C   UNL     1       5.103   8.646   0.392  0.00  0.00    +0.166 A 
ATOM     24  C   UNL     1       4.873   7.858   1.516  0.00  0.00    +0.167 A 
ATOM     25  C   UNL     1       3.703   7.122   1.615  0.00  0.00    +0.054 A 
ATOM     26  O   UNL     1       5.935   7.987   2.364  0.00  0.00    -0.453 OA
ATOM     27  C   UNL     1       6.999   8.540   1.566  0.00  0.00    +0.466 C 
ATOM     28  O   UNL     1       6.309   9.269   0.534  0.00  0.00    -0.453 OA
ENDBRANCH  19  20
ENDBRANCH  17  19
ENDBRANCH  10  15
BRANCH   1  29
ATOM     29  C   UNL     1      -4.349  -1.803  -1.717  0.00  0.00    +0.075 C 
BRANCH  29  30
ATOM     30  C   UNL     1      -3.353  -2.761  -2.374  0.00  0.00    +0.009 C 
ATOM     31  C   UNL     1      -3.031  -3.902  -1.407  0.00  0.00    +0.004 C 
ENDBRANCH  29  30
BRANCH  29  32
ATOM     32  C   UNL     1      -5.668  -2.535  -1.462  0.00  0.00    +0.013 C 
BRANCH  32  33
ATOM     33  C   UNL     1      -6.307  -2.917  -2.799  0.00  0.00    +0.000 C 
BRANCH  33  35
ATOM     34  C   UNL     1      -8.324  -3.914  -3.885  0.00  0.00    +0.004 C 
ATOM     35  C   UNL     1      -7.685  -3.532  -2.548  0.00  0.00    -0.003 C 
ENDBRANCH  33  35
ENDBRANCH  32  33
ENDBRANCH  29  32
ENDBRANCH   1  29
TORSDOF 8
