REMARK  Name = ZINC63375541
REMARK  7 active torsions:
REMARK  status: ('A' for Active; 'I' for Inactive)
REMARK    1  A    between atoms: C_1  and  C_2
REMARK    2  A    between atoms: C_2  and  C_3
REMARK    3  A    between atoms: C_2  and  C_4
REMARK    4  A    between atoms: C_4  and  N_5
REMARK    5  A    between atoms: C_6  and  C_8
REMARK    6  A    between atoms: C_13  and  N_14
REMARK    7  A    between atoms: C_30  and  C_35
REMARK                            x       y       z     vdW  Elec       q    Type
REMARK                         _______ _______ _______ _____ _____    ______ ____
ROOT
ATOM      1  N   UNL     1      -5.166  -3.769  -0.639  0.00  0.00    -0.192 N 
ATOM      2  C   UNL     1      -5.959  -3.134  -1.526  0.00  0.00    +0.248 C 
ATOM      3  O   UNL     1      -5.752  -2.974  -2.710  0.00  0.00    -0.273 OA
ATOM      4  C   UNL     1      -7.161  -2.665  -0.737  0.00  0.00    +0.169 C 
ATOM      5  C   UNL     1      -7.292  -1.135  -0.838  0.00  0.00    +0.065 C 
ATOM      6  C   UNL     1      -8.073  -0.693   0.377  0.00  0.00    -0.034 C 
ATOM      7  C   UNL     1      -9.181   0.033   0.476  0.00  0.00    -0.001 A 
ATOM      8  C   UNL     1      -9.980   0.742  -0.536  0.00  0.00    +0.010 A 
ATOM      9  C   UNL     1     -11.089   1.385  -0.082  0.00  0.00    +0.001 A 
ATOM     10  C   UNL     1     -11.478   1.393   1.262  0.00  0.00    +0.002 A 
ATOM     11  C   UNL     1     -10.798   0.775   2.260  0.00  0.00    +0.026 A 
ATOM     12  C   UNL     1      -9.609   0.072   1.908  0.00  0.00    +0.043 A 
ATOM     13  N   UNL     1      -8.768  -0.583   2.651  0.00  0.00    -0.375 N 
ATOM     14  C   UNL     1      -7.679  -1.067   1.800  0.00  0.00    +0.131 C 
ATOM     15  C   UNL     1      -7.566  -2.598   1.845  0.00  0.00    +0.135 C 
ATOM     16  N   UNL     1      -6.815  -3.025   0.653  0.00  0.00    -0.264 N 
ATOM     17  C   UNL     1      -5.679  -3.733   0.599  0.00  0.00    +0.317 C 
ATOM     18  O   UNL     1      -5.171  -4.275   1.560  0.00  0.00    -0.252 OA
ATOM     19  H   UNL     1      -8.847  -0.726   3.607  0.00  0.00    +0.160 HD
ENDROOT
BRANCH  15  20
ATOM     20  C   UNL     1      -8.940  -3.216   1.816  0.00  0.00    -0.025 A 
ATOM     21  C   UNL     1      -9.725  -3.104   0.683  0.00  0.00    +0.008 A 
ATOM     22  C   UNL     1     -10.985  -3.671   0.655  0.00  0.00    +0.038 A 
ATOM     23  C   UNL     1     -11.461  -4.352   1.763  0.00  0.00    +0.123 A 
ATOM     24  C   UNL     1     -10.675  -4.464   2.897  0.00  0.00    +0.038 A 
ATOM     25  C   UNL     1      -9.413  -3.901   2.921  0.00  0.00    +0.008 A 
ATOM     26  F   UNL     1     -12.693  -4.907   1.737  0.00  0.00    -0.205 F 
ENDBRANCH  15  20
BRANCH   1  32
ATOM     27  C   UNL     1      -2.759  -3.674  -0.921  0.00  0.00    +0.059 A 
ATOM     28  C   UNL     1      -1.560  -4.311  -1.250  0.00  0.00    +0.015 A 
ATOM     29  C   UNL     1      -1.566  -5.638  -1.623  0.00  0.00    +0.001 A 
ATOM     30  C   UNL     1      -2.757  -6.344  -1.676  0.00  0.00    +0.002 A 
ATOM     31  C   UNL     1      -3.949  -5.727  -1.354  0.00  0.00    +0.025 A 
ATOM     32  C   UNL     1      -3.961  -4.394  -0.970  0.00  0.00    +0.058 A 
BRANCH  27  34
ATOM     33  N   UNL     1      -1.601  -1.567  -0.474  0.00  0.00    -0.311 N 
ATOM     34  C   UNL     1      -2.759  -2.254  -0.520  0.00  0.00    +0.246 C 
ATOM     35  O   UNL     1      -3.804  -1.705  -0.230  0.00  0.00    -0.270 OA
ATOM     36  H   UNL     1      -0.767  -2.005  -0.706  0.00  0.00    +0.149 HD
BRANCH  33  37
ATOM     37  C   UNL     1      -1.601  -0.157  -0.076  0.00  0.00    +0.107 C 
BRANCH  37  39
ATOM     38  C   UNL     1      -0.183   1.883   0.187  0.00  0.00    +0.009 C 
ATOM     39  C   UNL     1      -0.170   0.382  -0.107  0.00  0.00    -0.000 C 
ATOM     40  C   UNL     1       0.670  -0.337   0.950  0.00  0.00    +0.009 C 
ENDBRANCH  37  39
ENDBRANCH  33  37
ENDBRANCH  27  34
ENDBRANCH   1  32
TORSDOF 5
