REMARK  Name = ZINC00842153
REMARK  5 active torsions:
REMARK  status: ('A' for Active; 'I' for Inactive)
REMARK    1  A    between atoms: C_1  and  C_2
REMARK    2  A    between atoms: C_6  and  C_9
REMARK    3  A    between atoms: N_17  and  N_18
REMARK    4  A    between atoms: C_19  and  C_20
REMARK    5  A    between atoms: C_25  and  O_26
REMARK                            x       y       z     vdW  Elec       q    Type
REMARK                         _______ _______ _______ _____ _____    ______ ____
ROOT
ATOM      1  C   UNL     1      -5.885   3.287  -0.085  0.00  0.00    +0.088 C 
ATOM      2  C   UNL     1      -6.008   1.785  -0.068  0.00  0.00    +0.133 A 
ATOM      3  N   UNL     1      -7.193   1.237  -0.113  0.00  0.00    -0.225 NA
ATOM      4  C   UNL     1      -7.337  -0.085  -0.094  0.00  0.00    +0.116 A 
ATOM      5  C   UNL     1      -6.234  -0.952  -0.032  0.00  0.00    +0.082 A 
ATOM      6  C   UNL     1      -6.564  -2.372  -0.020  0.00  0.00    +0.004 A 
ATOM      7  C   UNL     1      -7.867  -2.739  -0.068  0.00  0.00    +0.056 A 
ATOM      8  S   UNL     1      -8.732  -1.181  -0.133  0.00  0.00    -0.076 S 
ATOM      9  C   UNL     1      -4.951  -0.321   0.010  0.00  0.00    +0.283 A 
ATOM     10  O   UNL     1      -3.933  -0.990   0.064  0.00  0.00    -0.265 OA
ATOM     11  N   UNL     1      -4.884   1.024  -0.013  0.00  0.00    -0.182 N 
ENDROOT
BRANCH   6  12
ATOM     12  C   UNL     1      -5.493  -3.396   0.044  0.00  0.00    -0.017 A 
ATOM     13  C   UNL     1      -4.417  -3.339  -0.841  0.00  0.00    +0.008 A 
ATOM     14  C   UNL     1      -3.421  -4.291  -0.774  0.00  0.00    +0.001 A 
ATOM     15  C   UNL     1      -3.494  -5.308   0.161  0.00  0.00    +0.000 A 
ATOM     16  C   UNL     1      -4.562  -5.373   1.038  0.00  0.00    +0.001 A 
ATOM     17  C   UNL     1      -5.562  -4.423   0.984  0.00  0.00    +0.008 A 
ENDBRANCH   6  12
BRANCH  11  18
ATOM     18  N   UNL     1      -3.631   1.650   0.028  0.00  0.00    -0.170 NA
ATOM     19  C   UNL     1      -2.805   1.515  -0.966  0.00  0.00    +0.145 C 
BRANCH  19  20
ATOM     20  C   UNL     1      -1.446   2.077  -0.876  0.00  0.00    +0.036 A 
ATOM     21  C   UNL     1      -0.555   1.935  -1.942  0.00  0.00    +0.013 A 
ATOM     22  C   UNL     1       0.713   2.468  -1.853  0.00  0.00    +0.001 A 
ATOM     23  C   UNL     1       1.110   3.140  -0.709  0.00  0.00    +0.004 A 
ATOM     24  C   UNL     1       0.240   3.283   0.355  0.00  0.00    +0.046 A 
ATOM     25  C   UNL     1      -1.038   2.752   0.283  0.00  0.00    +0.125 A 
BRANCH  25  26
ATOM     26  O   UNL     1      -1.894   2.891   1.329  0.00  0.00    -0.506 OA
ATOM     27  H   UNL     1      -2.437   3.690   1.288  0.00  0.00    +0.292 HD
ENDBRANCH  25  26
ENDBRANCH  19  20
ENDBRANCH  11  18
TORSDOF 4
