REMARK  Name = ZINC67294016
REMARK  8 active torsions:
REMARK  status: ('A' for Active; 'I' for Inactive)
REMARK    1  A    between atoms: C_1  and  O_2
REMARK    2  A    between atoms: O_2  and  C_3
REMARK    3  A    between atoms: N_11  and  C_12
REMARK    4  A    between atoms: C_15  and  O_18
REMARK    5  A    between atoms: O_18  and  C_19
REMARK    6  A    between atoms: C_23  and  C_25
REMARK    7  A    between atoms: N_27  and  C_28
REMARK    8  A    between atoms: C_28  and  C_29
REMARK                            x       y       z     vdW  Elec       q    Type
REMARK                         _______ _______ _______ _____ _____    ______ ____
ROOT
ATOM      1  C   UNL     1       0.536  -0.652  -1.121  0.00  0.00    +0.163 A 
ATOM      2  C   UNL     1       1.089   0.116  -2.132  0.00  0.00    +0.049 A 
ATOM      3  C   UNL     1       1.728  -0.485  -3.206  0.00  0.00    +0.004 A 
ATOM      4  C   UNL     1       1.822  -1.856  -3.284  0.00  0.00    +0.012 A 
ATOM      5  C   UNL     1       1.267  -2.649  -2.272  0.00  0.00    +0.022 A 
ATOM      6  C   UNL     1       0.626  -2.039  -1.178  0.00  0.00    +0.179 A 
ATOM      7  O   UNL     1       0.100  -2.806  -0.191  0.00  0.00    -0.435 OA
ATOM      8  C   UNL     1      -0.296  -4.060  -0.529  0.00  0.00    +0.212 A 
ATOM      9  N   UNL     1      -1.409  -4.572  -0.051  0.00  0.00    -0.325 N 
ATOM     10  C   UNL     1       0.563  -4.832  -1.449  0.00  0.00    +0.097 A 
ATOM     11  C   UNL     1       1.347  -4.110  -2.335  0.00  0.00    +0.030 A 
ATOM     12  H   UNL     1      -1.723  -5.432  -0.369  0.00  0.00    +0.169 HD
ENDROOT
BRANCH   9  13
ATOM     13  C   UNL     1      -2.125  -3.889   0.895  0.00  0.00    +0.042 A 
ATOM     14  C   UNL     1      -1.469  -3.295   1.976  0.00  0.00    +0.029 A 
ATOM     15  C   UNL     1      -2.195  -2.608   2.926  0.00  0.00    +0.048 A 
ATOM     16  C   UNL     1      -3.574  -2.506   2.810  0.00  0.00    +0.130 A 
ATOM     17  C   UNL     1      -4.230  -3.095   1.738  0.00  0.00    +0.048 A 
ATOM     18  C   UNL     1      -3.512  -3.779   0.779  0.00  0.00    +0.029 A 
BRANCH  16  19
ATOM     19  O   UNL     1      -4.285  -1.828   3.750  0.00  0.00    -0.406 OA
BRANCH  19  20
ATOM     20  C   UNL     1      -5.701  -1.762   3.569  0.00  0.00    +0.575 C 
ATOM     21  F   UNL     1      -6.231  -3.057   3.559  0.00  0.00    -0.133 F 
ATOM     22  F   UNL     1      -6.271  -1.033   4.619  0.00  0.00    -0.133 F 
ATOM     23  F   UNL     1      -5.987  -1.131   2.354  0.00  0.00    -0.133 F 
ENDBRANCH  19  20
ENDBRANCH  16  19
ENDBRANCH   9  13
BRANCH  10  24
ATOM     24  C   UNL     1       0.578  -6.305  -1.433  0.00  0.00    +0.249 C 
ATOM     25  O   UNL     1      -0.184  -6.913  -0.705  0.00  0.00    -0.270 OA
ATOM     26  N   UNL     1       1.435  -6.979  -2.225  0.00  0.00    -0.309 N 
ATOM     27  H   UNL     1       2.092  -6.497  -2.750  0.00  0.00    +0.149 HD
BRANCH  26  28
ATOM     28  C   UNL     1       1.373  -8.441  -2.293  0.00  0.00    +0.136 C 
BRANCH  28  29
ATOM     29  C   UNL     1       2.446  -8.953  -3.257  0.00  0.00    +0.135 C 
ATOM     30  C   UNL     1       2.311 -10.481  -3.428  0.00  0.00    +0.035 C 
ATOM     31  C   UNL     1       3.794 -10.940  -3.470  0.00  0.00    +0.031 C 
ATOM     32  C   UNL     1       4.443  -9.927  -2.494  0.00  0.00    +0.160 C 
ATOM     33  O   UNL     1       3.748  -8.689  -2.720  0.00  0.00    -0.375 OA
ENDBRANCH  28  29
ENDBRANCH  26  28
ENDBRANCH  10  24
BRANCH   1  35
ATOM     34  C   UNL     1      -0.143   1.376  -0.082  0.00  0.00    +0.277 C 
ATOM     35  O   UNL     1      -0.089  -0.052  -0.073  0.00  0.00    -0.491 OA
ENDBRANCH   1  35
TORSDOF 7
