REMARK  Name = ZINC09809589
REMARK  15 active torsions:
REMARK  status: ('A' for Active; 'I' for Inactive)
REMARK    1  A    between atoms: C_1  and  C_2
REMARK    2  A    between atoms: C_2  and  C_3
REMARK    3  A    between atoms: C_3  and  C_4
REMARK    4  A    between atoms: C_4  and  C_5
REMARK    5  A    between atoms: C_5  and  O_6
REMARK    6  A    between atoms: O_6  and  C_7
REMARK    7  A    between atoms: C_11  and  C_13
REMARK    8  A    between atoms: C_13  and  N_15
REMARK    9  A    between atoms: N_17  and  C_29
REMARK   10  A    between atoms: C_21  and  S_25
REMARK   11  A    between atoms: S_25  and  N_28
REMARK   12  A    between atoms: C_29  and  C_30
REMARK   13  A    between atoms: C_30  and  O_32
REMARK   14  A    between atoms: O_32  and  C_33
REMARK   15  A    between atoms: C_33  and  C_34
REMARK                            x       y       z     vdW  Elec       q    Type
REMARK                         _______ _______ _______ _____ _____    ______ ____
ROOT
ATOM      1  N   UNL     1      -2.314   4.528   0.681  0.00  0.00    -0.152 NA
ATOM      2  C   UNL     1      -1.295   3.823   0.201  0.00  0.00    +0.167 A 
ATOM      3  N   UNL     1      -1.265   2.505  -0.134  0.00  0.00    -0.310 N 
ATOM      4  C   UNL     1      -0.100   1.941  -0.619  0.00  0.00    +0.058 A 
ATOM      5  C   UNL     1       0.127   0.612  -1.011  0.00  0.00    +0.029 A 
ATOM      6  C   UNL     1       1.357   0.217  -1.480  0.00  0.00    +0.030 A 
ATOM      7  C   UNL     1       2.408   1.113  -1.581  0.00  0.00    +0.106 A 
ATOM      8  C   UNL     1       2.213   2.429  -1.201  0.00  0.00    +0.045 A 
ATOM      9  C   UNL     1       0.983   2.825  -0.731  0.00  0.00    +0.041 A 
ATOM     10  S   UNL     1       0.314   4.364  -0.154  0.00  0.00    -0.052 S 
ENDROOT
BRANCH   7  11
ATOM     11  S   UNL     1       3.976   0.583  -2.185  0.00  0.00    +0.056 S 
ATOM     12  O   UNL     1       4.939   1.489  -1.665  0.00  0.00    -0.153 OA
ATOM     13  O   UNL     1       4.047  -0.818  -1.956  0.00  0.00    -0.153 OA
BRANCH  11  14
ATOM     14  N   UNL     1       3.965   0.794  -3.827  0.00  0.00    -0.204 NA
ATOM     15  H   UNL     1       4.791   0.987  -4.297  0.00  0.00    +0.144 HD
ATOM     16  H   UNL     1       3.132   0.725  -4.319  0.00  0.00    +0.144 HD
ENDBRANCH  11  14
ENDBRANCH   7  11
BRANCH   1  17
ATOM     17  C   UNL     1      -2.160   5.828   0.951  0.00  0.00    +0.270 C 
ATOM     18  O   UNL     1      -1.084   6.367   0.757  0.00  0.00    -0.268 OA
BRANCH  17  23
ATOM     19  C   UNL     1      -4.204   8.698   2.269  0.00  0.00    +0.121 A 
ATOM     20  C   UNL     1      -5.426   8.078   2.488  0.00  0.00    +0.046 A 
ATOM     21  C   UNL     1      -5.585   6.734   2.208  0.00  0.00    +0.004 A 
ATOM     22  C   UNL     1      -4.530   6.000   1.704  0.00  0.00    +0.013 A 
ATOM     23  C   UNL     1      -3.296   6.614   1.486  0.00  0.00    +0.042 A 
ATOM     24  C   UNL     1      -3.137   7.970   1.769  0.00  0.00    +0.058 A 
BRANCH  19  25
ATOM     25  O   UNL     1      -4.053  10.020   2.545  0.00  0.00    -0.492 OA
BRANCH  25  26
ATOM     26  C   UNL     1      -5.195  10.710   3.058  0.00  0.00    +0.229 C 
BRANCH  26  27
ATOM     27  C   UNL     1      -4.836  12.176   3.307  0.00  0.00    +0.041 C 
BRANCH  27  28
ATOM     28  C   UNL     1      -6.058  12.915   3.856  0.00  0.00    +0.003 C 
BRANCH  28  30
ATOM     29  C   UNL     1      -6.921  15.119   4.654  0.00  0.00    +0.004 C 
ATOM     30  C   UNL     1      -5.699  14.381   4.104  0.00  0.00    -0.003 C 
ENDBRANCH  28  30
ENDBRANCH  27  28
ENDBRANCH  26  27
ENDBRANCH  25  26
ENDBRANCH  19  25
ENDBRANCH  17  23
ENDBRANCH   1  17
BRANCH   3  31
ATOM     31  C   UNL     1      -2.466   1.682   0.023  0.00  0.00    +0.244 C 
BRANCH  31  32
ATOM     32  C   UNL     1      -3.154   2.038   1.315  0.00  0.00    +0.327 C 
ATOM     33  O   UNL     1      -2.608   2.768   2.109  0.00  0.00    -0.249 OA
BRANCH  32  34
ATOM     34  O   UNL     1      -4.373   1.546   1.585  0.00  0.00    -0.464 OA
BRANCH  34  35
ATOM     35  C   UNL     1      -4.975   1.931   2.849  0.00  0.00    +0.229 C 
ATOM     36  C   UNL     1      -6.352   1.277   2.978  0.00  0.00    +0.048 C 
ENDBRANCH  34  35
ENDBRANCH  32  34
ENDBRANCH  31  32
ENDBRANCH   3  31
TORSDOF 13
