REMARK  Name = ZINC09943100
REMARK  13 active torsions:
REMARK  status: ('A' for Active; 'I' for Inactive)
REMARK    1  A    between atoms: C_1  and  C_2
REMARK    2  A    between atoms: C_2  and  N_3
REMARK    3  A    between atoms: C_4  and  C_33
REMARK    4  A    between atoms: C_10  and  C_12
REMARK    5  A    between atoms: N_14  and  N_15
REMARK    6  A    between atoms: N_18  and  C_19
REMARK    7  A    between atoms: C_19  and  C_20
REMARK    8  A    between atoms: C_23  and  S_25
REMARK    9  A    between atoms: S_25  and  N_28
REMARK   10  A    between atoms: N_28  and  C_29
REMARK   11  A    between atoms: N_28  and  C_31
REMARK   12  A    between atoms: C_29  and  C_30
REMARK   13  A    between atoms: C_31  and  C_32
REMARK                            x       y       z     vdW  Elec       q    Type
REMARK                         _______ _______ _______ _____ _____    ______ ____
ROOT
ATOM      1  N   UNL     1       2.366   1.217  -0.014  0.00  0.00    -0.218 N 
ATOM      2  C   UNL     1       3.524   1.907  -0.021  0.00  0.00    +0.316 C 
ATOM      3  O   UNL     1       4.585   1.313  -0.035  0.00  0.00    -0.251 OA
ATOM      4  N   UNL     1       3.506   3.255  -0.014  0.00  0.00    -0.294 N 
ATOM      5  H   UNL     1       2.379   0.247  -0.019  0.00  0.00    +0.174 HD
ATOM      6  H   UNL     1       2.659   3.728  -0.003  0.00  0.00    +0.151 HD
ENDROOT
BRANCH   1   9
ATOM      7  C   UNL     1      -0.014   1.212   0.009  0.00  0.00    +0.260 C 
ATOM      8  O   UNL     1       0.002  -0.004   0.002  0.00  0.00    -0.269 OA
ATOM      9  N   UNL     1       1.143   1.901   0.001  0.00  0.00    -0.229 N 
ATOM     10  H   UNL     1       1.130   2.871   0.007  0.00  0.00    +0.173 HD
BRANCH   7  18
ATOM     11  N   UNL     1      -5.032   3.695   0.047  0.00  0.00    -0.328 N 
ATOM     12  C   UNL     1      -5.782   2.560   0.044  0.00  0.00    +0.108 A 
ATOM     13  N   UNL     1      -5.010   1.513   0.034  0.00  0.00    -0.233 NA
ATOM     14  C   UNL     1      -3.709   1.907   0.030  0.00  0.00    +0.090 A 
ATOM     15  C   UNL     1      -3.707   3.314   0.038  0.00  0.00    +0.069 A 
ATOM     16  C   UNL     1      -2.504   4.011   0.036  0.00  0.00    +0.029 A 
ATOM     17  C   UNL     1      -1.320   3.333   0.026  0.00  0.00    +0.015 A 
ATOM     18  C   UNL     1      -1.303   1.933   0.019  0.00  0.00    +0.040 A 
ATOM     19  C   UNL     1      -2.498   1.218   0.015  0.00  0.00    +0.043 A 
ATOM     20  C   UNL     1      -7.288   2.521   0.052  0.00  0.00    +0.086 C 
BRANCH  11  22
ATOM     21  C   UNL     1      -5.722   5.557  -1.381  0.00  0.00    +0.027 C 
ATOM     22  C   UNL     1      -5.539   5.070   0.058  0.00  0.00    +0.120 C 
ENDBRANCH  11  22
ENDBRANCH   7  18
ENDBRANCH   1   9
BRANCH   4  23
ATOM     23  C   UNL     1       4.764   4.004  -0.022  0.00  0.00    +0.148 C 
BRANCH  23  24
ATOM     24  C   UNL     1       4.469   5.482  -0.011  0.00  0.00    +0.009 A 
ATOM     25  C   UNL     1       4.312   6.313   1.048  0.00  0.00    +0.015 A 
ATOM     26  C   UNL     1       4.043   7.650   0.817  0.00  0.00    +0.037 A 
ATOM     27  C   UNL     1       3.945   8.089  -0.462  0.00  0.00    +0.143 A 
ATOM     28  S   UNL     1       4.243   6.593  -1.390  0.00  0.00    -0.072 S 
BRANCH  27  29
ATOM     29  S   UNL     1       3.616   9.716  -1.054  0.00  0.00    +0.067 S 
ATOM     30  O   UNL     1       3.073   9.570  -2.359  0.00  0.00    -0.152 OA
ATOM     31  O   UNL     1       2.927  10.395  -0.013  0.00  0.00    -0.152 OA
BRANCH  29  32
ATOM     32  N   UNL     1       5.076  10.477  -1.231  0.00  0.00    -0.177 NA
BRANCH  32  33
ATOM     33  C   UNL     1       5.796  10.394  -2.504  0.00  0.00    +0.106 C 
ATOM     34  C   UNL     1       5.465  11.620  -3.357  0.00  0.00    +0.022 C 
ENDBRANCH  32  33
BRANCH  32  35
ATOM     35  C   UNL     1       5.647  11.234  -0.114  0.00  0.00    +0.106 C 
ATOM     36  C   UNL     1       6.619  10.342   0.662  0.00  0.00    +0.022 C 
ENDBRANCH  32  35
ENDBRANCH  29  32
ENDBRANCH  27  29
ENDBRANCH  23  24
ENDBRANCH   4  23
TORSDOF 9
