REMARK  Name = ZINC54197073
REMARK  10 active torsions:
REMARK  status: ('A' for Active; 'I' for Inactive)
REMARK    1  A    between atoms: C_1  and  C_2
REMARK    2  A    between atoms: C_2  and  C_3
REMARK    3  A    between atoms: C_3  and  C_5
REMARK    4  A    between atoms: C_3  and  C_6
REMARK    5  A    between atoms: C_6  and  C_8
REMARK    6  A    between atoms: C_6  and  N_23
REMARK    7  A    between atoms: N_10  and  C_11
REMARK    8  A    between atoms: C_11  and  C_12
REMARK    9  A    between atoms: C_12  and  C_13
REMARK   10  A    between atoms: C_18  and  C_19
REMARK                            x       y       z     vdW  Elec       q    Type
REMARK                         _______ _______ _______ _____ _____    ______ ____
ROOT
ATOM      1  C   UNL     1       1.384  -2.537   2.519  0.00  0.00    +0.234 C 
ATOM      2  O   UNL     1       0.762  -2.839   3.516  0.00  0.00    -0.274 OA
ATOM      3  N   UNL     1       2.727  -2.647   2.504  0.00  0.00    -0.313 N 
ATOM      4  H   UNL     1       3.225  -2.405   1.708  0.00  0.00    +0.149 HD
ENDROOT
BRANCH   1   5
ATOM      5  C   UNL     1       0.655  -2.037   1.299  0.00  0.00    +0.163 C 
BRANCH   5   6
ATOM      6  N   UNL     1      -0.750  -2.444   1.369  0.00  0.00    -0.288 N 
ATOM      7  C   UNL     1      -1.520  -2.036   2.397  0.00  0.00    +0.298 C 
ATOM      8  O   UNL     1      -1.047  -1.330   3.267  0.00  0.00    -0.253 OA
ATOM      9  N   UNL     1      -2.813  -2.410   2.461  0.00  0.00    -0.313 N 
ATOM     10  H   UNL     1      -1.127  -3.008   0.675  0.00  0.00    +0.151 HD
ATOM     11  H   UNL     1      -3.190  -2.974   1.767  0.00  0.00    +0.146 HD
ATOM     12  H   UNL     1      -3.367  -2.116   3.201  0.00  0.00    +0.146 HD
ENDBRANCH   5   6
BRANCH   5  13
ATOM     13  C   UNL     1       0.742  -0.511   1.242  0.00  0.00    +0.015 C 
ATOM     14  C   UNL     1       2.210  -0.086   1.169  0.00  0.00    +0.010 C 
BRANCH  13  16
ATOM     15  C   UNL     1      -0.019   1.526   0.010  0.00  0.00    +0.004 C 
ATOM     16  C   UNL     1       0.002  -0.004   0.002  0.00  0.00    +0.002 C 
ENDBRANCH  13  16
ENDBRANCH   5  13
ENDBRANCH   1   5
BRANCH   3  17
ATOM     17  C   UNL     1       3.436  -3.132   3.691  0.00  0.00    +0.109 C 
BRANCH  17  18
ATOM     18  C   UNL     1       4.940  -3.162   3.411  0.00  0.00    +0.054 C 
BRANCH  18  19
ATOM     19  C   UNL     1       5.669  -3.661   4.632  0.00  0.00    -0.034 A 
ATOM     20  C   UNL     1       6.186  -2.761   5.545  0.00  0.00    +0.004 A 
ATOM     21  C   UNL     1       6.854  -3.218   6.664  0.00  0.00    +0.000 A 
ATOM     22  C   UNL     1       7.005  -4.577   6.872  0.00  0.00    +0.001 A 
ATOM     23  C   UNL     1       6.488  -5.477   5.960  0.00  0.00    +0.012 A 
ATOM     24  C   UNL     1       5.815  -5.019   4.842  0.00  0.00    +0.058 A 
BRANCH  24  25
ATOM     25  C   UNL     1       5.247  -6.001   3.850  0.00  0.00    +0.418 C 
ATOM     26  F   UNL     1       5.520  -7.305   4.276  0.00  0.00    -0.166 F 
ATOM     27  F   UNL     1       3.862  -5.821   3.757  0.00  0.00    -0.166 F 
ATOM     28  F   UNL     1       5.830  -5.788   2.596  0.00  0.00    -0.166 F 
ENDBRANCH  24  25
ENDBRANCH  18  19
ENDBRANCH  17  18
ENDBRANCH   3  17
TORSDOF 8
