REMARK  Name = ZINC06073947
REMARK  11 active torsions:
REMARK  status: ('A' for Active; 'I' for Inactive)
REMARK    1  A    between atoms: C_1  and  C_2
REMARK    2  A    between atoms: C_2  and  O_4
REMARK    3  A    between atoms: O_4  and  C_5
REMARK    4  A    between atoms: C_9  and  C_35
REMARK    5  A    between atoms: C_12  and  C_13
REMARK    6  A    between atoms: C_12  and  C_14
REMARK    7  A    between atoms: C_17  and  C_33
REMARK    8  A    between atoms: C_17  and  O_34
REMARK    9  A    between atoms: C_18  and  C_20
REMARK   10  A    between atoms: C_20  and  O_21
REMARK   11  A    between atoms: O_21  and  C_22
REMARK                            x       y       z     vdW  Elec       q    Type
REMARK                         _______ _______ _______ _____ _____    ______ ____
ROOT
ATOM      1  C   UNL     1      -1.187  -2.417   0.016  0.00  0.00    +0.182 C 
ATOM      2  C   UNL     1      -1.090  -2.867   1.468  0.00  0.00    +0.046 C 
ATOM      3  C   UNL     1      -2.291  -2.335   2.254  0.00  0.00    +0.011 C 
ATOM      4  C   UNL     1      -3.578  -2.939   1.682  0.00  0.00    -0.020 C 
ATOM      5  C   UNL     1      -3.706  -2.574   0.214  0.00  0.00    +0.005 C 
ATOM      6  C   UNL     1      -2.490  -2.864  -0.643  0.00  0.00    +0.005 C 
ATOM      7  C   UNL     1      -2.623  -2.043  -1.950  0.00  0.00    +0.015 C 
ATOM      8  C   UNL     1      -2.391  -4.335  -1.048  0.00  0.00    +0.015 C 
ATOM      9  C   UNL     1      -4.979  -3.192  -0.365  0.00  0.00    +0.007 C 
ATOM     10  C   UNL     1      -6.180  -2.568   0.354  0.00  0.00    +0.035 C 
ATOM     11  C   UNL     1      -6.115  -2.843   1.852  0.00  0.00    +0.070 C 
ATOM     12  C   UNL     1      -4.786  -2.420   2.466  0.00  0.00    +0.064 C 
ATOM     13  C   UNL     1      -7.237  -2.036   2.536  0.00  0.00    +0.042 C 
ATOM     14  C   UNL     1      -3.512  -4.460   1.891  0.00  0.00    +0.012 C 
ENDROOT
BRANCH  11  15
ATOM     15  O   UNL     1      -6.368  -4.229   2.099  0.00  0.00    -0.388 OA
ATOM     16  H   UNL     1      -7.233  -4.532   1.792  0.00  0.00    +0.210 HD
ENDBRANCH  11  15
BRANCH   1  17
ATOM     17  O   UNL     1      -1.090  -0.990  -0.050  0.00  0.00    -0.461 OA
BRANCH  17  19
ATOM     18  C   UNL     1       0.322   1.028  -0.228  0.00  0.00    +0.136 C 
ATOM     19  C   UNL     1       0.142  -0.467  -0.154  0.00  0.00    +0.304 C 
ATOM     20  O   UNL     1       1.106  -1.194  -0.188  0.00  0.00    -0.251 OA
ENDBRANCH  17  19
ENDBRANCH   1  17
BRANCH  12  21
ATOM     21  C   UNL     1      -4.751  -0.898   2.602  0.00  0.00    +0.236 C 
BRANCH  21  22
ATOM     22  O   UNL     1      -3.648  -0.518   3.427  0.00  0.00    -0.491 OA
BRANCH  22  23
ATOM     23  C   UNL     1      -3.474   0.809   3.651  0.00  0.00    +0.124 A 
ATOM     24  C   UNL     1      -4.358   1.727   3.086  0.00  0.00    +0.046 A 
ATOM     25  C   UNL     1      -4.196   3.065   3.301  0.00  0.00    +0.015 A 
ATOM     26  C   UNL     1      -3.135   3.518   4.094  0.00  0.00    +0.018 A 
ATOM     27  C   UNL     1      -2.937   4.948   4.342  0.00  0.00    +0.018 A 
ATOM     28  C   UNL     1      -1.889   5.325   5.121  0.00  0.00    +0.092 A 
ATOM     29  C   UNL     1      -1.031   4.347   5.663  0.00  0.00    +0.337 A 
ATOM     30  O   UNL     1      -0.096   4.699   6.359  0.00  0.00    -0.245 OA
ATOM     31  O   UNL     1      -1.218   3.038   5.432  0.00  0.00    -0.422 OA
ATOM     32  C   UNL     1      -2.240   2.597   4.667  0.00  0.00    +0.143 A 
ATOM     33  C   UNL     1      -2.422   1.240   4.442  0.00  0.00    +0.092 A 
ENDBRANCH  22  23
ENDBRANCH  21  22
ENDBRANCH  12  21
TORSDOF 6
