REMARK  Name = ZINC20932617
REMARK  4 active torsions:
REMARK  status: ('A' for Active; 'I' for Inactive)
REMARK    1  A    between atoms: C_4  and  C_7
REMARK    2  A    between atoms: N_11  and  N_12
REMARK    3  A    between atoms: C_13  and  C_14
REMARK    4  A    between atoms: C_17  and  N_19
REMARK                            x       y       z     vdW  Elec       q    Type
REMARK                         _______ _______ _______ _____ _____    ______ ____
ROOT
ATOM      1  N   UNL     1      -0.017   1.397   0.010  0.00  0.00    -0.170 NA
ATOM      2  C   UNL     1       1.103   2.064   0.003  0.00  0.00    +0.148 C 
ENDROOT
BRANCH   1   7
ATOM      3  C   UNL     1       0.024  -0.842   1.094  0.00  0.00    +0.186 A 
ATOM      4  N   UNL     1       0.036  -2.073   0.635  0.00  0.00    -0.126 NA
ATOM      5  N   UNL     1       0.023  -2.063  -0.650  0.00  0.00    -0.119 NA
ATOM      6  C   UNL     1      -0.003  -0.824  -1.092  0.00  0.00    +0.223 A 
ATOM      7  N   UNL     1       0.002  -0.004   0.002  0.00  0.00    -0.186 N 
ATOM      8  S   UNL     1      -0.035  -0.317  -2.779  0.00  0.00    -0.007 SA
BRANCH   3  12
ATOM      9  C   UNL     1       0.049   0.332   5.176  0.00  0.00    +0.000 A 
ATOM     10  C   UNL     1      -0.248  -0.977   4.837  0.00  0.00    +0.001 A 
ATOM     11  C   UNL     1      -0.258  -1.365   3.513  0.00  0.00    +0.011 A 
ATOM     12  C   UNL     1       0.033  -0.433   2.514  0.00  0.00    +0.021 A 
ATOM     13  C   UNL     1       0.337   0.883   2.863  0.00  0.00    +0.011 A 
ATOM     14  C   UNL     1       0.338   1.259   4.191  0.00  0.00    +0.001 A 
ENDBRANCH   3  12
ENDBRANCH   1   7
BRANCH   2  15
ATOM     15  C   UNL     1       1.083   3.526   0.011  0.00  0.00    +0.034 A 
ATOM     16  C   UNL     1       2.147   4.413   0.005  0.00  0.00    +0.019 A 
ATOM     17  C   UNL     1       1.878   5.758   0.015  0.00  0.00    +0.031 A 
ATOM     18  C   UNL     1       0.574   6.176   0.029  0.00  0.00    +0.069 A 
ATOM     19  S   UNL     1      -0.319   4.631   0.022  0.00  0.00    -0.073 S 
BRANCH  18  20
ATOM     20  N   UNL     1       0.074   7.472   0.040  0.00  0.00    -0.320 N 
ATOM     21  C   UNL     1       0.604   8.232   1.181  0.00  0.00    +0.133 C 
ATOM     22  C   UNL     1       0.076   9.668   1.121  0.00  0.00    +0.178 C 
ATOM     23  O   UNL     1      -1.354   9.644   1.104  0.00  0.00    -0.377 OA
ATOM     24  C   UNL     1      -1.904   8.913   0.005  0.00  0.00    +0.178 C 
ATOM     25  C   UNL     1      -1.396   7.470   0.053  0.00  0.00    +0.133 C 
ENDBRANCH  18  20
ENDBRANCH   2  15
TORSDOF 4
