REMARK  Name = ZINC04814180
REMARK  2 active torsions:
REMARK  status: ('A' for Active; 'I' for Inactive)
REMARK    1  A    between atoms: C_5  and  C_7
REMARK    2  A    between atoms: C_12  and  C_17
REMARK                            x       y       z     vdW  Elec       q    Type
REMARK                         _______ _______ _______ _____ _____    ______ ____
ROOT
ATOM      1  C   UNL     1       1.228  -2.186  -0.022  0.00  0.00    +0.178 C 
ATOM      2  C   UNL     1       0.514  -2.691  -1.257  0.00  0.00    +0.041 C 
ATOM      3  C   UNL     1      -0.713  -3.251  -1.198  0.00  0.00    +0.020 C 
ATOM      4  C   UNL     1      -1.401  -3.746  -2.448  0.00  0.00    +0.060 C 
ATOM      5  C   UNL     1      -0.967  -2.898  -3.646  0.00  0.00    +0.032 C 
ATOM      6  C   UNL     1       0.556  -2.993  -3.777  0.00  0.00    +0.088 C 
ATOM      7  C   UNL     1       1.185  -2.551  -2.485  0.00  0.00    +0.164 C 
ATOM      8  O   UNL     1       2.298  -2.061  -2.502  0.00  0.00    -0.292 OA
ATOM      9  N   UNL     1      -1.384  -3.401  -0.008  0.00  0.00    -0.287 N 
ATOM     10  C   UNL     1      -0.667  -3.251   1.167  0.00  0.00    +0.218 A 
ATOM     11  N   UNL     1       0.564  -2.686   1.175  0.00  0.00    -0.221 N 
ATOM     12  N   UNL     1       0.994  -2.700   2.501  0.00  0.00    -0.156 NA
ATOM     13  C   UNL     1       0.033  -3.247   3.204  0.00  0.00    +0.247 A 
ATOM     14  N   UNL     1      -0.969  -3.578   2.393  0.00  0.00    -0.201 NA
ATOM     15  H   UNL     1      -2.332  -3.606   0.008  0.00  0.00    +0.155 HD
ENDROOT
BRANCH   1  20
ATOM     16  C   UNL     1      -0.017   1.378   0.010  0.00  0.00    +0.001 A 
ATOM     17  C   UNL     1       1.171   2.087   0.002  0.00  0.00    +0.003 A 
ATOM     18  C   UNL     1       2.377   1.414  -0.013  0.00  0.00    +0.039 A 
ATOM     19  C   UNL     1       2.397   0.029  -0.021  0.00  0.00    +0.129 A 
ATOM     20  C   UNL     1       1.208  -0.679  -0.013  0.00  0.00    +0.017 A 
ATOM     21  C   UNL     1       0.002  -0.004   0.002  0.00  0.00    +0.009 A 
ATOM     22  F   UNL     1       3.577  -0.630  -0.036  0.00  0.00    -0.205 F 
ENDBRANCH   1  20
BRANCH   5  23
ATOM     23  C   UNL     1      -1.619  -3.420  -4.900  0.00  0.00    -0.042 A 
ATOM     24  C   UNL     1      -1.389  -4.721  -5.309  0.00  0.00    +0.004 A 
ATOM     25  C   UNL     1      -1.987  -5.200  -6.459  0.00  0.00    +0.002 A 
ATOM     26  C   UNL     1      -2.815  -4.379  -7.202  0.00  0.00    +0.020 A 
ATOM     27  C   UNL     1      -3.046  -3.078  -6.793  0.00  0.00    +0.041 A 
ATOM     28  C   UNL     1      -2.452  -2.600  -5.638  0.00  0.00    +0.024 A 
ATOM     29 CL   UNL     1      -4.085  -2.046  -7.725  0.00  0.00    -0.084 Cl
ENDBRANCH   5  23
TORSDOF 2
