REMARK  Name = ZINC36369498
REMARK  9 active torsions:
REMARK  status: ('A' for Active; 'I' for Inactive)
REMARK    1  A    between atoms: C_1  and  C_2
REMARK    2  A    between atoms: C_8  and  C_43
REMARK    3  A    between atoms: C_9  and  O_42
REMARK    4  A    between atoms: C_19  and  C_21
REMARK    5  A    between atoms: C_21  and  N_22
REMARK    6  A    between atoms: N_25  and  C_28
REMARK    7  A    between atoms: C_28  and  C_29
REMARK    8  A    between atoms: C_28  and  C_35
REMARK    9  A    between atoms: C_28  and  O_41
REMARK                            x       y       z     vdW  Elec       q    Type
REMARK                         _______ _______ _______ _____ _____    ______ ____
ROOT
ATOM      1  N   UNL     1       4.322   1.067   5.118  0.00  0.00    +0.382 N 
ATOM      2  C   UNL     1       4.999  -0.198   5.433  0.00  0.00    -0.063 C 
ATOM      3  C   UNL     1       6.513   0.022   5.444  0.00  0.00    +0.069 C 
ATOM      4  N   UNL     1       6.849   1.041   6.449  0.00  0.00    -0.271 NA
ATOM      5  C   UNL     1       6.159   2.306   6.161  0.00  0.00    +0.069 C 
ATOM      6  C   UNL     1       4.648   2.067   6.143  0.00  0.00    -0.063 C 
ATOM      7  H   UNL     1       4.631   1.397   4.216  0.00  0.00    -0.082 HD
ENDROOT
BRANCH   1   8
ATOM      8  C   UNL     1       2.870   0.850   5.088  0.00  0.00    -0.064 C 
BRANCH   8  23
ATOM      9  C   UNL     1      -0.948   4.317   7.914  0.00  0.00    +0.008 C 
ATOM     10  C   UNL     1      -1.246   4.832   6.512  0.00  0.00    -0.001 C 
ATOM     11  C   UNL     1      -2.723   4.639   6.180  0.00  0.00    +0.008 C 
ATOM     12  C   UNL     1      -3.003   5.356   4.852  0.00  0.00    +0.027 C 
ATOM     13  C   UNL     1      -2.087   4.781   3.808  0.00  0.00    -0.027 C 
ATOM     14  C   UNL     1      -0.927   4.270   4.091  0.00  0.00    -0.061 C 
ATOM     15  C   UNL     1      -0.343   4.187   5.477  0.00  0.00    +0.018 C 
ATOM     16  C   UNL     1      -0.043   2.728   5.778  0.00  0.00    +0.132 C 
ATOM     17  C   UNL     1       0.650   1.969   4.681  0.00  0.00    +0.071 C 
ATOM     18  C   UNL     1       0.172   2.217   3.246  0.00  0.00    +0.187 C 
ATOM     19  C   UNL     1      -0.086   3.701   2.968  0.00  0.00    +0.076 C 
ATOM     20  O   UNL     1       1.343   1.867   2.455  0.00  0.00    -0.460 OA
ATOM     21  C   UNL     1       2.426   2.330   3.118  0.00  0.00    +0.309 C 
ATOM     22  O   UNL     1       3.413   2.813   2.623  0.00  0.00    -0.251 OA
ATOM     23  C   UNL     1       2.171   2.130   4.606  0.00  0.00    +0.090 C 
ATOM     24  C   UNL     1       0.965   4.990   5.488  0.00  0.00    +0.018 C 
BRANCH  16  25
ATOM     25  O   UNL     1      -1.265   2.035   6.073  0.00  0.00    -0.391 OA
ATOM     26  H   UNL     1      -1.146   1.097   6.275  0.00  0.00    +0.210 HD
ENDBRANCH  16  25
ENDBRANCH   8  23
ENDBRANCH   1   8
BRANCH   4  27
ATOM     27  C   UNL     1       8.303   1.240   6.531  0.00  0.00    +0.172 C 
BRANCH  27  28
ATOM     28  C   UNL     1       8.608   2.289   7.569  0.00  0.00    +0.003 A 
ATOM     29  C   UNL     1       7.772   2.447   8.659  0.00  0.00    +0.008 A 
ATOM     30  C   UNL     1       8.052   3.409   9.611  0.00  0.00    +0.000 A 
ATOM     31  C   UNL     1       9.168   4.213   9.474  0.00  0.00    +0.000 A 
ATOM     32  C   UNL     1      10.004   4.055   8.384  0.00  0.00    +0.000 A 
ATOM     33  C   UNL     1       9.726   3.090   7.434  0.00  0.00    +0.008 A 
ENDBRANCH  27  28
BRANCH  27  34
ATOM     34  C   UNL     1       8.967  -0.056   6.916  0.00  0.00    +0.003 A 
ATOM     35  C   UNL     1       8.256  -1.017   7.611  0.00  0.00    +0.008 A 
ATOM     36  C   UNL     1       8.866  -2.206   7.965  0.00  0.00    +0.000 A 
ATOM     37  C   UNL     1      10.186  -2.435   7.623  0.00  0.00    +0.000 A 
ATOM     38  C   UNL     1      10.896  -1.474   6.928  0.00  0.00    +0.000 A 
ATOM     39  C   UNL     1      10.285  -0.287   6.570  0.00  0.00    +0.008 A 
ENDBRANCH  27  34
BRANCH  27  40
ATOM     40  O   UNL     1       8.796   1.670   5.261  0.00  0.00    -0.366 OA
ATOM     41  H   UNL     1       8.635   1.042   4.543  0.00  0.00    +0.212 HD
ENDBRANCH  27  40
ENDBRANCH   4  27
TORSDOF 7
