REMARK  Name = ZINC35840439
REMARK  14 active torsions:
REMARK  status: ('A' for Active; 'I' for Inactive)
REMARK    1  A    between atoms: C_1  and  C_2
REMARK    2  A    between atoms: C_2  and  N_3
REMARK    3  A    between atoms: N_3  and  C_4
REMARK    4  A    between atoms: C_4  and  C_5
REMARK    5  A    between atoms: C_11  and  C_13
REMARK    6  A    between atoms: C_16  and  C_18
REMARK    7  A    between atoms: C_18  and  N_19
REMARK    8  A    between atoms: N_22  and  C_25
REMARK    9  A    between atoms: C_25  and  C_26
REMARK   10  A    between atoms: C_26  and  C_28
REMARK   11  A    between atoms: C_26  and  O_36
REMARK   12  A    between atoms: C_28  and  O_29
REMARK   13  A    between atoms: O_29  and  C_30
REMARK   14  A    between atoms: C_30  and  C_31
REMARK                            x       y       z     vdW  Elec       q    Type
REMARK                         _______ _______ _______ _____ _____    ______ ____
ROOT
ATOM      1  N   UNL     1      -4.785   2.044  -1.334  0.00  0.00    +0.387 N 
ATOM      2  C   UNL     1      -5.188   2.132  -2.744  0.00  0.00    -0.063 C 
ATOM      3  C   UNL     1      -5.351   3.602  -3.138  0.00  0.00    +0.066 C 
ATOM      4  N   UNL     1      -6.368   4.226  -2.280  0.00  0.00    -0.303 NA
ATOM      5  C   UNL     1      -5.991   4.123  -0.863  0.00  0.00    +0.066 C 
ATOM      6  C   UNL     1      -5.823   2.649  -0.489  0.00  0.00    -0.063 C 
ATOM      7  H   UNL     1      -3.914   2.536  -1.202  0.00  0.00    -0.081 HD
ENDROOT
BRANCH   1   8
ATOM      8  C   UNL     1      -4.612   0.633  -0.962  0.00  0.00    +0.019 C 
BRANCH   8  12
ATOM      9  C   UNL     1      -1.481  -0.576  -2.326  0.00  0.00    +0.164 A 
ATOM     10  C   UNL     1      -2.339  -0.945  -3.317  0.00  0.00    +0.230 A 
ATOM     11  O   UNL     1      -3.566  -0.551  -2.939  0.00  0.00    -0.449 OA
ATOM     12  C   UNL     1      -3.465   0.045  -1.743  0.00  0.00    +0.179 A 
ATOM     13  N   UNL     1      -2.223   0.033  -1.362  0.00  0.00    -0.210 NA
BRANCH   9  15
ATOM     14  N   UNL     1       0.687  -0.483  -1.200  0.00  0.00    -0.292 N 
ATOM     15  C   UNL     1      -0.025  -0.801  -2.300  0.00  0.00    +0.268 C 
ATOM     16  O   UNL     1       0.535  -1.272  -3.272  0.00  0.00    -0.268 OA
BRANCH  14  18
ATOM     17  C   UNL     1      -0.203   1.491  -0.065  0.00  0.00    +0.024 C 
ATOM     18  C   UNL     1      -0.001  -0.024   0.009  0.00  0.00    +0.105 C 
ENDBRANCH  14  18
BRANCH  14  19
ATOM     19  C   UNL     1       2.147  -0.598  -1.214  0.00  0.00    +0.143 C 
BRANCH  19  20
ATOM     20  C   UNL     1       2.546  -1.981  -0.766  0.00  0.00    -0.030 A 
ATOM     21  C   UNL     1       2.765  -2.236   0.575  0.00  0.00    +0.005 A 
ATOM     22  C   UNL     1       3.131  -3.504   0.986  0.00  0.00    +0.000 A 
ATOM     23  C   UNL     1       3.279  -4.517   0.056  0.00  0.00    +0.000 A 
ATOM     24  C   UNL     1       3.060  -4.261  -1.284  0.00  0.00    +0.000 A 
ATOM     25  C   UNL     1       2.689  -2.994  -1.695  0.00  0.00    +0.005 A 
ENDBRANCH  19  20
ENDBRANCH  14  19
ENDBRANCH   9  15
ENDBRANCH   8  12
ENDBRANCH   1   8
BRANCH   4  26
ATOM     26  C   UNL     1      -6.595   5.625  -2.664  0.00  0.00    +0.117 C 
BRANCH  26  27
ATOM     27  C   UNL     1      -7.822   6.165  -1.927  0.00  0.00    +0.154 C 
BRANCH  27  28
ATOM     28  O   UNL     1      -8.967   5.384  -2.274  0.00  0.00    -0.388 OA
ATOM     29  H   UNL     1      -9.176   5.390  -3.218  0.00  0.00    +0.210 HD
ENDBRANCH  27  28
BRANCH  27  30
ATOM     30  C   UNL     1      -8.057   7.622  -2.327  0.00  0.00    +0.193 C 
BRANCH  30  31
ATOM     31  O   UNL     1      -9.131   8.161  -1.553  0.00  0.00    -0.370 OA
BRANCH  31  32
ATOM     32  C   UNL     1      -9.434   9.526  -1.851  0.00  0.00    +0.234 C 
BRANCH  32  33
ATOM     33  C   UNL     1     -10.575   9.988  -0.981  0.00  0.00    +0.130 A 
ATOM     34  C   UNL     1     -10.458  10.558   0.232  0.00  0.00    +0.047 A 
ATOM     35  C   UNL     1     -11.770  10.830   0.685  0.00  0.00    +0.041 A 
ATOM     36  C   UNL     1     -12.609  10.409  -0.279  0.00  0.00    +0.195 A 
ATOM     37  O   UNL     1     -11.880   9.906  -1.287  0.00  0.00    -0.465 OA
ENDBRANCH  32  33
ENDBRANCH  31  32
ENDBRANCH  30  31
ENDBRANCH  27  30
ENDBRANCH  26  27
ENDBRANCH   4  26
TORSDOF 13
