REMARK  Name = ZINC10267904
REMARK  6 active torsions:
REMARK  status: ('A' for Active; 'I' for Inactive)
REMARK    1  A    between atoms: C_1  and  C_2
REMARK    2  A    between atoms: C_7  and  N_8
REMARK    3  A    between atoms: C_11  and  C_16
REMARK    4  A    between atoms: C_16  and  O_17
REMARK    5  A    between atoms: O_17  and  C_18
REMARK    6  A    between atoms: C_18  and  C_20
REMARK                            x       y       z     vdW  Elec       q    Type
REMARK                         _______ _______ _______ _____ _____    ______ ____
ROOT
ATOM      1  N   UNL     1       3.510  -0.634  -0.034  0.00  0.00    -0.283 N 
ATOM      2  C   UNL     1       2.301   0.034  -0.017  0.00  0.00    +0.224 A 
ATOM      3  N   UNL     1       2.275   1.365   0.008  0.00  0.00    -0.196 NA
ATOM      4  C   UNL     1       1.119   2.005   0.026  0.00  0.00    +0.173 A 
ATOM      5  N   UNL     1      -0.015   1.327   0.019  0.00  0.00    -0.196 NA
ATOM      6  C   UNL     1       0.002  -0.003  -0.006  0.00  0.00    +0.217 A 
ATOM      7  N   UNL     1       1.163  -0.650  -0.024  0.00  0.00    -0.181 NA
ATOM      8  N   UNL     1      -1.183  -0.710  -0.013  0.00  0.00    -0.327 N 
ATOM      9  H   UNL     1       4.338  -0.135  -0.115  0.00  0.00    +0.155 HD
ATOM     10  H   UNL     1      -2.030  -0.237  -0.000  0.00  0.00    +0.145 HD
ATOM     11  H   UNL     1      -1.169  -1.680  -0.032  0.00  0.00    +0.145 HD
ENDROOT
BRANCH   1  18
ATOM     12  C   UNL     1       5.748  -2.010  -1.127  0.00  0.00    +0.045 C 
ATOM     13  C   UNL     1       4.613  -2.740  -0.456  0.00  0.00    -0.029 A 
ATOM     14  C   UNL     1       4.641  -4.117  -0.353  0.00  0.00    +0.005 A 
ATOM     15  C   UNL     1       3.598  -4.788   0.257  0.00  0.00    +0.000 A 
ATOM     16  C   UNL     1       2.525  -4.083   0.771  0.00  0.00    +0.002 A 
ATOM     17  C   UNL     1       2.493  -2.705   0.676  0.00  0.00    +0.023 A 
ATOM     18  C   UNL     1       3.539  -2.028   0.064  0.00  0.00    +0.036 A 
ENDBRANCH   1  18
BRANCH   4  19
ATOM     19  C   UNL     1       1.095   3.512   0.054  0.00  0.00    +0.308 C 
BRANCH  19  20
ATOM     20  O   UNL     1       1.093   3.970   1.431  0.00  0.00    -0.455 OA
BRANCH  20  21
ATOM     21  C   UNL     1       1.072   5.297   1.632  0.00  0.00    +0.343 C 
ATOM     22  O   UNL     1       1.056   6.051   0.687  0.00  0.00    -0.247 OA
BRANCH  21  23
ATOM     23  C   UNL     1       1.069   5.848   3.035  0.00  0.00    +0.190 C 
ATOM     24  C   UNL     1      -0.080   5.306   3.900  0.00  0.00    +0.059 C 
ATOM     25  C   UNL     1      -1.156   6.381   3.674  0.00  0.00    +0.100 C 
ATOM     26  C   UNL     1      -0.377   7.627   3.317  0.00  0.00    +0.221 C 
ATOM     27  O   UNL     1      -0.851   8.740   3.236  0.00  0.00    -0.275 OA
ATOM     28  N   UNL     1       0.927   7.325   3.101  0.00  0.00    -0.245 N 
ATOM     29  C   UNL     1       2.168   7.991   3.014  0.00  0.00    +0.052 A 
ATOM     30  C   UNL     1       2.404   9.254   2.458  0.00  0.00    +0.025 A 
ATOM     31  C   UNL     1       3.653   9.831   2.522  0.00  0.00    +0.002 A 
ATOM     32  C   UNL     1       4.710   9.182   3.134  0.00  0.00    +0.001 A 
ATOM     33  C   UNL     1       4.514   7.912   3.653  0.00  0.00    +0.016 A 
ATOM     34  C   UNL     1       3.277   7.322   3.551  0.00  0.00    +0.032 A 
ATOM     35  S   UNL     1       2.684   5.677   3.895  0.00  0.00    -0.086 S 
ENDBRANCH  21  23
ENDBRANCH  20  21
ENDBRANCH  19  20
ENDBRANCH   4  19
TORSDOF 5
