REMARK  Name = ZINC08791064
REMARK  7 active torsions:
REMARK  status: ('A' for Active; 'I' for Inactive)
REMARK    1  A    between atoms: C_1  and  C_2
REMARK    2  A    between atoms: C_2  and  C_4
REMARK    3  A    between atoms: C_2  and  C_5
REMARK    4  A    between atoms: C_5  and  C_7
REMARK    5  A    between atoms: C_5  and  N_16
REMARK    6  A    between atoms: N_9  and  C_10
REMARK    7  A    between atoms: C_17  and  C_19
REMARK                            x       y       z     vdW  Elec       q    Type
REMARK                         _______ _______ _______ _____ _____    ______ ____
ROOT
ATOM      1  C   UNL     1      -0.183   1.351  -0.462  0.00  0.00    +0.167 C 
ATOM      2  C   UNL     1      -0.318  -0.165  -0.671  0.00  0.00    +0.069 C 
ATOM      3  C   UNL     1      -1.564  -0.471  -1.465  0.00  0.00    -0.015 A 
ATOM      4  C   UNL     1      -2.215  -1.760  -1.615  0.00  0.00    +0.003 A 
ATOM      5  C   UNL     1      -1.925  -3.028  -1.103  0.00  0.00    +0.010 A 
ATOM      6  C   UNL     1      -2.772  -4.049  -1.459  0.00  0.00    +0.001 A 
ATOM      7  C   UNL     1      -3.865  -3.844  -2.286  0.00  0.00    +0.002 A 
ATOM      8  C   UNL     1      -4.174  -2.599  -2.807  0.00  0.00    +0.026 A 
ATOM      9  C   UNL     1      -3.331  -1.544  -2.462  0.00  0.00    +0.047 A 
ATOM     10  N   UNL     1      -3.343  -0.219  -2.788  0.00  0.00    -0.356 N 
ATOM     11  H   UNL     1      -3.998   0.209  -3.361  0.00  0.00    +0.166 HD
ATOM     12  C   UNL     1      -2.291   0.415  -2.183  0.00  0.00    +0.046 A 
ATOM     13  C   UNL     1      -1.948   1.882  -2.270  0.00  0.00    +0.155 C 
ATOM     14  N   UNL     1      -0.584   2.014  -1.707  0.00  0.00    -0.273 N 
ATOM     15  C   UNL     1       0.145   2.773  -2.536  0.00  0.00    +0.248 C 
ATOM     16  O   UNL     1       1.228   3.258  -2.271  0.00  0.00    -0.270 OA
ATOM     17  C   UNL     1      -0.563   2.929  -3.810  0.00  0.00    +0.042 A 
ATOM     18  C   UNL     1      -1.848   2.365  -3.676  0.00  0.00    -0.009 A 
ATOM     19  C   UNL     1      -2.742   2.351  -4.724  0.00  0.00    +0.006 A 
ATOM     20  C   UNL     1      -2.325   2.930  -5.919  0.00  0.00    +0.000 A 
ATOM     21  C   UNL     1      -1.074   3.498  -6.055  0.00  0.00    +0.001 A 
ATOM     22  C   UNL     1      -0.162   3.518  -5.011  0.00  0.00    +0.013 A 
ENDROOT
BRANCH   1  24
ATOM     23  N   UNL     1       2.207   1.538  -1.073  0.00  0.00    -0.302 N 
ATOM     24  C   UNL     1       1.248   1.695  -0.139  0.00  0.00    +0.235 C 
ATOM     25  O   UNL     1       1.537   2.114   0.962  0.00  0.00    -0.274 OA
ATOM     26  H   UNL     1       1.976   1.203  -1.954  0.00  0.00    +0.150 HD
BRANCH  23  27
ATOM     27  C   UNL     1       3.598   1.873  -0.759  0.00  0.00    +0.161 C 
BRANCH  27  28
ATOM     28  C   UNL     1       4.334   2.207  -2.031  0.00  0.00    +0.234 C 
ATOM     29  O   UNL     1       3.969   1.732  -3.085  0.00  0.00    -0.274 OA
ATOM     30  N   UNL     1       5.399   3.033  -1.996  0.00  0.00    -0.311 N 
ATOM     31  H   UNL     1       5.646   3.471  -1.167  0.00  0.00    +0.149 HD
BRANCH  30  32
ATOM     32  C   UNL     1       6.182   3.269  -3.212  0.00  0.00    +0.073 C 
ATOM     33  C   UNL     1       7.229   2.164  -3.365  0.00  0.00    +0.022 C 
ATOM     34  C   UNL     1       8.048   2.410  -4.634  0.00  0.00    +0.002 C 
ATOM     35  C   UNL     1       8.749   3.767  -4.534  0.00  0.00    +0.000 C 
ATOM     36  C   UNL     1       7.701   4.871  -4.380  0.00  0.00    +0.002 C 
ATOM     37  C   UNL     1       6.883   4.625  -3.111  0.00  0.00    +0.022 C 
ENDBRANCH  30  32
ENDBRANCH  27  28
BRANCH  27  39
ATOM     38  C   UNL     1       3.556   0.374   1.239  0.00  0.00    +0.009 C 
ATOM     39  C   UNL     1       4.269   0.678  -0.080  0.00  0.00    +0.012 C 
ATOM     40  C   UNL     1       5.737   1.007   0.198  0.00  0.00    +0.009 C 
ENDBRANCH  27  39
ENDBRANCH  23  27
ENDBRANCH   1  24
TORSDOF 5
