REMARK  Name = ZINC36063977
REMARK  12 active torsions:
REMARK  status: ('A' for Active; 'I' for Inactive)
REMARK    1  A    between atoms: C_1  and  C_2
REMARK    2  A    between atoms: C_5  and  C_8
REMARK    3  A    between atoms: C_8  and  N_9
REMARK    4  A    between atoms: N_9  and  C_10
REMARK    5  A    between atoms: N_9  and  C_22
REMARK    6  A    between atoms: C_10  and  C_11
REMARK    7  A    between atoms: C_11  and  C_12
REMARK    8  A    between atoms: C_22  and  C_23
REMARK    9  A    between atoms: C_25  and  C_28
REMARK   10  A    between atoms: N_30  and  C_31
REMARK   11  A    between atoms: N_30  and  C_32
REMARK   12  A    between atoms: C_32  and  C_33
REMARK                            x       y       z     vdW  Elec       q    Type
REMARK                         _______ _______ _______ _____ _____    ______ ____
ROOT
ATOM      1  N   UNL     1       1.012  -6.008   0.525  0.00  0.00    +0.388 N 
ATOM      2  H   UNL     1       1.308  -5.231  -0.047  0.00  0.00    -0.081 HD
ENDROOT
BRANCH   1   3
ATOM      3  C   UNL     1      -0.444  -6.168   0.419  0.00  0.00    -0.042 C 
BRANCH   3   8
ATOM      4  C   UNL     1      -2.166 -10.488   3.848  0.00  0.00    +0.044 C 
ATOM      5  C   UNL     1      -1.717  -9.361   2.954  0.00  0.00    -0.050 A 
ATOM      6  C   UNL     1      -1.629  -8.075   3.453  0.00  0.00    +0.003 A 
ATOM      7  C   UNL     1      -1.217  -7.042   2.633  0.00  0.00    +0.002 A 
ATOM      8  C   UNL     1      -0.892  -7.295   1.313  0.00  0.00    -0.064 A 
ATOM      9  C   UNL     1      -0.980  -8.581   0.814  0.00  0.00    +0.002 A 
ATOM     10  C   UNL     1      -1.388  -9.615   1.635  0.00  0.00    +0.003 A 
ENDBRANCH   3   8
ENDBRANCH   1   3
BRANCH   1  11
ATOM     11  C   UNL     1       1.376  -5.752   1.925  0.00  0.00    -0.073 C 
BRANCH  11  12
ATOM     12  C   UNL     1       0.833  -4.386   2.351  0.00  0.00    +0.019 C 
BRANCH  12  13
ATOM     13  C   UNL     1       1.131  -4.161   3.811  0.00  0.00    -0.024 A 
ATOM     14  C   UNL     1       0.310  -4.418   4.842  0.00  0.00    +0.087 A 
ATOM     15  N   UNL     1       0.923  -4.085   6.019  0.00  0.00    -0.360 N 
ATOM     16  H   UNL     1       0.528  -4.181   6.900  0.00  0.00    +0.165 HD
ATOM     17  C   UNL     1       2.184  -3.594   5.768  0.00  0.00    +0.047 A 
ATOM     18  C   UNL     1       2.372  -3.625   4.374  0.00  0.00    +0.003 A 
ATOM     19  C   UNL     1       3.577  -3.186   3.823  0.00  0.00    +0.010 A 
ATOM     20  C   UNL     1       4.571  -2.730   4.643  0.00  0.00    +0.001 A 
ATOM     21  C   UNL     1       4.393  -2.700   6.019  0.00  0.00    +0.002 A 
ATOM     22  C   UNL     1       3.208  -3.121   6.583  0.00  0.00    +0.026 A 
ENDBRANCH  12  13
ENDBRANCH  11  12
ENDBRANCH   1  11
BRANCH   1  23
ATOM     23  C   UNL     1       1.674  -7.236   0.064  0.00  0.00    +0.019 C 
BRANCH  23  24
ATOM     24  C   UNL     1       1.401  -7.433  -1.405  0.00  0.00    +0.179 A 
ATOM     25  N   UNL     1       2.136  -6.978  -2.375  0.00  0.00    -0.210 NA
ATOM     26  C   UNL     1       1.575  -7.356  -3.555  0.00  0.00    +0.164 A 
ATOM     27  C   UNL     1       0.454  -8.067  -3.256  0.00  0.00    +0.230 A 
ATOM     28  O   UNL     1       0.363  -8.110  -1.917  0.00  0.00    -0.449 OA
BRANCH  26  29
ATOM     29  C   UNL     1       2.084  -7.051  -4.905  0.00  0.00    +0.268 C 
ATOM     30  O   UNL     1       1.449  -7.388  -5.885  0.00  0.00    -0.268 OA
ATOM     31  N   UNL     1       3.255  -6.398  -5.052  0.00  0.00    -0.295 N 
ATOM     32  C   UNL     1       4.063  -6.070  -3.875  0.00  0.00    +0.132 C 
BRANCH  31  33
ATOM     33  C   UNL     1       3.719  -6.018  -6.388  0.00  0.00    +0.142 C 
BRANCH  33  34
ATOM     34  C   UNL     1       3.200  -4.645  -6.728  0.00  0.00    -0.030 A 
ATOM     35  C   UNL     1       1.978  -4.504  -7.359  0.00  0.00    +0.005 A 
ATOM     36  C   UNL     1       1.502  -3.244  -7.671  0.00  0.00    +0.000 A 
ATOM     37  C   UNL     1       2.248  -2.125  -7.352  0.00  0.00    +0.000 A 
ATOM     38  C   UNL     1       3.469  -2.266  -6.720  0.00  0.00    +0.000 A 
ATOM     39  C   UNL     1       3.943  -3.525  -6.404  0.00  0.00    +0.005 A 
ENDBRANCH  33  34
ENDBRANCH  31  33
ENDBRANCH  26  29
ENDBRANCH  23  24
ENDBRANCH   1  23
TORSDOF 10
