REMARK  Name = ZINC39229991
REMARK  5 active torsions:
REMARK  status: ('A' for Active; 'I' for Inactive)
REMARK    1  A    between atoms: C_1  and  C_2
REMARK    2  A    between atoms: C_10  and  C_15
REMARK    3  A    between atoms: N_17  and  C_18
REMARK    4  A    between atoms: C_18  and  C_26
REMARK    5  A    between atoms: C_23  and  O_25
REMARK                            x       y       z     vdW  Elec       q    Type
REMARK                         _______ _______ _______ _____ _____    ______ ____
ROOT
ATOM      1  C   UNL     1      -1.145  -4.849   0.362  0.00  0.00    +0.248 C 
ATOM      2  O   UNL     1      -0.658  -4.149   1.229  0.00  0.00    -0.270 OA
ATOM      3  N   UNL     1      -0.881  -6.170   0.336  0.00  0.00    -0.299 N 
ATOM      4  H   UNL     1      -1.233  -6.721  -0.381  0.00  0.00    +0.150 HD
ENDROOT
BRANCH   1  13
ATOM      5  C   UNL     1      -2.707   0.352   2.909  0.00  0.00    -0.012 C 
ATOM      6  C   UNL     1      -2.130  -0.098   1.565  0.00  0.00    -0.057 C 
ATOM      7  C   UNL     1      -2.259  -1.620   1.438  0.00  0.00    +0.090 C 
ATOM      8  N   UNL     1      -1.582  -2.042   0.202  0.00  0.00    -0.318 N 
ATOM      9  C   UNL     1      -0.209  -1.570  -0.034  0.00  0.00    +0.087 C 
ATOM     10  C   UNL     1      -0.178  -0.051   0.163  0.00  0.00    -0.063 C 
ATOM     11  N   UNL     1      -0.714   0.281   1.489  0.00  0.00    +0.383 N 
ATOM     12  C   UNL     1      -2.219  -2.861  -0.713  0.00  0.00    +0.133 A 
ATOM     13  C   UNL     1      -2.024  -4.252  -0.660  0.00  0.00    +0.077 A 
ATOM     14  C   UNL     1      -2.680  -5.060  -1.595  0.00  0.00    +0.018 A 
ATOM     15  C   UNL     1      -3.494  -4.451  -2.534  0.00  0.00    +0.021 A 
ATOM     16  C   UNL     1      -3.636  -3.075  -2.523  0.00  0.00    +0.113 A 
ATOM     17  N   UNL     1      -3.014  -2.331  -1.630  0.00  0.00    -0.240 NA
ATOM     18  H   UNL     1      -0.624   1.273   1.648  0.00  0.00    -0.085 HD
ATOM     19  H   UNL     1      -0.195  -0.219   2.195  0.00  0.00    -0.085 HD
ENDBRANCH   1  13
BRANCH   3  20
ATOM     20  C   UNL     1      -0.063  -6.775   1.390  0.00  0.00    +0.086 C 
ATOM     21  C   UNL     1      -0.074  -8.297   1.234  0.00  0.00    +0.033 C 
ATOM     22  C   UNL     1       0.497  -8.674  -0.134  0.00  0.00    +0.003 C 
ATOM     23  C   UNL     1       1.933  -8.161  -0.247  0.00  0.00    +0.003 C 
ATOM     24  C   UNL     1       1.945  -6.638  -0.091  0.00  0.00    +0.034 C 
ATOM     25  C   UNL     1       1.374  -6.261   1.278  0.00  0.00    +0.142 C 
BRANCH  20  26
ATOM     26  C   UNL     1      -0.625  -6.404   2.738  0.00  0.00    -0.022 A 
ATOM     27  C   UNL     1       0.224  -6.202   3.809  0.00  0.00    +0.006 A 
ATOM     28  C   UNL     1      -0.291  -5.862   5.046  0.00  0.00    +0.000 A 
ATOM     29  C   UNL     1      -1.657  -5.722   5.210  0.00  0.00    +0.000 A 
ATOM     30  C   UNL     1      -2.506  -5.922   4.139  0.00  0.00    +0.000 A 
ATOM     31  C   UNL     1      -1.990  -6.259   2.901  0.00  0.00    +0.006 A 
ENDBRANCH  20  26
BRANCH  25  32
ATOM     32  O   UNL     1       1.384  -4.840   1.423  0.00  0.00    -0.389 OA
ATOM     33  H   UNL     1       2.265  -4.445   1.362  0.00  0.00    +0.210 HD
ENDBRANCH  25  32
ENDBRANCH   3  20
TORSDOF 4
