REMARK  Name = ZINC61591923
REMARK  6 active torsions:
REMARK  status: ('A' for Active; 'I' for Inactive)
REMARK    1  A    between atoms: C_1  and  C_2
REMARK    2  A    between atoms: C_8  and  C_10
REMARK    3  A    between atoms: C_10  and  N_11
REMARK    4  A    between atoms: C_17  and  S_18
REMARK    5  A    between atoms: S_18  and  C_19
REMARK    6  A    between atoms: C_19  and  C_20
REMARK                            x       y       z     vdW  Elec       q    Type
REMARK                         _______ _______ _______ _____ _____    ______ ____
ROOT
ATOM      1  N   UNL     1       2.849  -0.367   2.474  0.00  0.00    -0.270 N 
ATOM      2  C   UNL     1       2.868   0.350   3.616  0.00  0.00    +0.345 A 
ATOM      3  O   UNL     1       2.332   1.428   3.797  0.00  0.00    -0.245 OA
ATOM      4  N   UNL     1       3.589  -0.344   4.521  0.00  0.00    -0.226 N 
ATOM      5  H   UNL     1       3.774  -0.077   5.434  0.00  0.00    +0.194 HD
ATOM      6  N   UNL     1       4.019  -1.524   3.898  0.00  0.00    -0.145 NA
ATOM      7  C   UNL     1       3.565  -1.525   2.678  0.00  0.00    +0.193 A 
ENDROOT
BRANCH   1   8
ATOM      8  C   UNL     1       2.178   0.019   1.231  0.00  0.00    +0.132 C 
BRANCH   8  15
ATOM      9  C   UNL     1      -0.019   1.526   0.010  0.00  0.00    +0.008 C 
ATOM     10  C   UNL     1       0.002  -0.004   0.002  0.00  0.00    -0.009 C 
ATOM     11  C   UNL     1      -1.433  -0.534   0.013  0.00  0.00    +0.003 C 
ATOM     12  C   UNL     1      -1.413  -2.063   0.004  0.00  0.00    +0.000 C 
ATOM     13  C   UNL     1      -0.673  -2.570   1.244  0.00  0.00    +0.000 C 
ATOM     14  C   UNL     1       0.763  -2.041   1.233  0.00  0.00    +0.005 C 
ATOM     15  C   UNL     1       0.742  -0.511   1.242  0.00  0.00    +0.012 C 
ENDBRANCH   8  15
ENDBRANCH   1   8
BRANCH   7  16
ATOM     16  S   UNL     1       3.825  -2.795   1.485  0.00  0.00    -0.075 S 
BRANCH  16  17
ATOM     17  C   UNL     1       4.829  -4.024   2.364  0.00  0.00    +0.202 C 
BRANCH  17  18
ATOM     18  C   UNL     1       5.128  -5.180   1.445  0.00  0.00    +0.366 C 
ATOM     19  O   UNL     1       4.703  -5.175   0.302  0.00  0.00    -0.245 OA
ATOM     20  O   UNL     1       5.794  -6.120   1.844  0.00  0.00    -0.245 OA
ENDBRANCH  17  18
ENDBRANCH  16  17
ENDBRANCH   7  16
TORSDOF 5
