REMARK  Name = ZINC09303251
REMARK  12 active torsions:
REMARK  status: ('A' for Active; 'I' for Inactive)
REMARK    1  A    between atoms: C_1  and  C_2
REMARK    2  A    between atoms: C_2  and  N_3
REMARK    3  A    between atoms: C_4  and  C_22
REMARK    4  A    between atoms: C_7  and  S_8
REMARK    5  A    between atoms: S_8  and  C_9
REMARK    6  A    between atoms: C_9  and  C_11
REMARK    7  A    between atoms: C_9  and  C_12
REMARK    8  A    between atoms: C_17  and  C_21
REMARK    9  A    between atoms: C_18  and  C_20
REMARK   10  A    between atoms: C_22  and  C_24
REMARK   11  A    between atoms: C_22  and  N_25
REMARK   12  A    between atoms: C_26  and  C_28
REMARK                            x       y       z     vdW  Elec       q    Type
REMARK                         _______ _______ _______ _____ _____    ______ ____
ROOT
ATOM      1  N   UNL     1       2.047   0.663  -0.014  0.00  0.00    -0.305 N 
ATOM      2  C   UNL     1       1.232  -0.435  -0.012  0.00  0.00    +0.154 A 
ATOM      3  N   UNL     1       0.002  -0.004   0.002  0.00  0.00    -0.132 NA
ATOM      4  N   UNL     1      -0.015   1.281   0.009  0.00  0.00    -0.122 NA
ATOM      5  C   UNL     1       1.213   1.744  -0.000  0.00  0.00    +0.192 A 
ENDROOT
BRANCH   1   7
ATOM      6  C   UNL     1       4.009   0.689  -1.474  0.00  0.00    +0.027 C 
ATOM      7  C   UNL     1       3.512   0.676  -0.027  0.00  0.00    +0.122 C 
ENDBRANCH   1   7
BRANCH   2   8
ATOM      8  C   UNL     1       1.673  -1.875  -0.024  0.00  0.00    +0.138 C 
ATOM      9  C   UNL     1       1.452  -2.465  -1.419  0.00  0.00    +0.036 C 
BRANCH   8  10
ATOM     10  N   UNL     1       0.892  -2.634   0.956  0.00  0.00    -0.302 N 
ATOM     11  C   UNL     1       1.398  -3.762   1.493  0.00  0.00    +0.245 C 
ATOM     12  O   UNL     1       2.502  -4.149   1.165  0.00  0.00    -0.270 OA
ATOM     13  H   UNL     1       0.011  -2.325   1.218  0.00  0.00    +0.150 HD
BRANCH  11  14
ATOM     14  C   UNL     1       0.610  -4.527   2.482  0.00  0.00    +0.037 A 
ATOM     15  C   UNL     1      -0.656  -4.081   2.865  0.00  0.00    +0.014 A 
ATOM     16  C   UNL     1      -1.389  -4.803   3.784  0.00  0.00    +0.021 A 
ATOM     17  C   UNL     1      -0.867  -5.961   4.335  0.00  0.00    +0.041 A 
ATOM     18  C   UNL     1       0.392  -6.405   3.963  0.00  0.00    +0.021 A 
ATOM     19  C   UNL     1       1.131  -5.696   3.041  0.00  0.00    +0.014 A 
ATOM     20 CL   UNL     1      -1.792  -6.861   5.496  0.00  0.00    -0.084 Cl
ENDBRANCH  11  14
ENDBRANCH   8  10
ENDBRANCH   2   8
BRANCH   5  21
ATOM     21  S   UNL     1       1.694   3.439   0.004  0.00  0.00    -0.074 S 
BRANCH  21  22
ATOM     22  C   UNL     1       0.066   4.228   0.024  0.00  0.00    +0.137 C 
ATOM     23  C   UNL     1      -0.672   3.908  -1.278  0.00  0.00    +0.029 C 
BRANCH  22  24
ATOM     24  C   UNL     1       0.232   5.720   0.154  0.00  0.00    +0.232 C 
ATOM     25  O   UNL     1       1.257   6.251  -0.218  0.00  0.00    -0.274 OA
ATOM     26  N   UNL     1      -0.759   6.465   0.683  0.00  0.00    -0.264 N 
ATOM     27  C   UNL     1      -0.605   7.841   0.803  0.00  0.00    +0.165 A 
ATOM     28  N   UNL     1       0.424   8.593   0.465  0.00  0.00    -0.230 NA
ATOM     29  C   UNL     1       0.405   9.899   0.644  0.00  0.00    +0.050 A 
ATOM     30  C   UNL     1      -0.699  10.459   1.198  0.00  0.00    +0.011 A 
ATOM     31  S   UNL     1      -1.717   9.011   1.443  0.00  0.00    -0.057 S 
ATOM     32  C   UNL     1      -0.987  11.903   1.518  0.00  0.00    +0.053 C 
ATOM     33  C   UNL     1       1.585  10.749   0.248  0.00  0.00    +0.066 C 
ATOM     34  H   UNL     1      -1.579   6.040   0.981  0.00  0.00    +0.157 HD
ENDBRANCH  22  24
ENDBRANCH  21  22
ENDBRANCH   5  21
TORSDOF 7
