REMARK  Name = ZINC06410236
REMARK  14 active torsions:
REMARK  status: ('A' for Active; 'I' for Inactive)
REMARK    1  A    between atoms: C_1  and  C_2
REMARK    2  A    between atoms: C_7  and  C_15
REMARK    3  A    between atoms: C_13  and  C_14
REMARK    4  A    between atoms: C_15  and  N_16
REMARK    5  A    between atoms: N_16  and  C_17
REMARK    6  A    between atoms: N_16  and  C_27
REMARK    7  A    between atoms: C_17  and  C_18
REMARK    8  A    between atoms: C_27  and  N_29
REMARK    9  A    between atoms: N_29  and  C_30
REMARK   10  A    between atoms: C_30  and  C_31
REMARK   11  A    between atoms: C_31  and  C_32
REMARK   12  A    between atoms: C_32  and  N_66
REMARK   13  A    between atoms: C_33  and  N_66
REMARK   14  A    between atoms: C_34  and  N_66
REMARK                            x       y       z     vdW  Elec       q    Type
REMARK                         _______ _______ _______ _____ _____    ______ ____
ROOT
ATOM      1  N   UNL     1       3.057   3.791   1.349  0.00  0.00    -0.304 N 
ENDROOT
BRANCH   1   2
ATOM      2  C   UNL     1       3.871   2.798   1.760  0.00  0.00    +0.133 C 
ATOM      3  S   UNL     1       4.382   1.596   0.653  0.00  0.00    -0.019 S 
BRANCH   2   4
ATOM      4  N   UNL     1       4.284   2.752   3.042  0.00  0.00    -0.326 N 
ATOM      5  H   UNL     1       3.994   3.433   3.670  0.00  0.00    +0.148 HD
BRANCH   4   6
ATOM      6  C   UNL     1       5.168   1.673   3.489  0.00  0.00    +0.101 C 
BRANCH   6   7
ATOM      7  C   UNL     1       5.483   1.854   4.975  0.00  0.00    +0.000 C 
BRANCH   7   8
ATOM      8  C   UNL     1       6.407   0.727   5.441  0.00  0.00    -0.078 C 
BRANCH   8  11
ATOM      9  C   UNL     1       5.502   0.724   7.687  0.00  0.00    -0.097 C 
ATOM     10  C   UNL     1       7.774  -0.016   7.297  0.00  0.00    -0.097 C 
ATOM     11  N   UNL     1       6.718   0.927   6.872  0.00  0.00    +0.376 N 
ATOM     12  H   UNL     1       7.055   1.888   7.009  0.00  0.00    -0.083 HD
ENDBRANCH   8  11
ENDBRANCH   7   8
ENDBRANCH   6   7
ENDBRANCH   4   6
ENDBRANCH   2   4
ENDBRANCH   1   2
BRANCH   1  13
ATOM     13  C   UNL     1       2.525   3.784  -0.016  0.00  0.00    +0.147 C 
BRANCH  13  20
ATOM     14  C   UNL     1       7.755   7.150  -5.009  0.00  0.00    +0.044 C 
ATOM     15  C   UNL     1       6.869   6.312  -4.124  0.00  0.00    -0.046 A 
ATOM     16  C   UNL     1       7.046   4.936  -4.080  0.00  0.00    +0.004 A 
ATOM     17  C   UNL     1       6.254   4.158  -3.284  0.00  0.00    +0.010 A 
ATOM     18  C   UNL     1       5.254   4.753  -2.507  0.00  0.00    -0.001 A 
ATOM     19  C   UNL     1       4.387   3.949  -1.644  0.00  0.00    +0.020 A 
ATOM     20  C   UNL     1       3.434   4.581  -0.914  0.00  0.00    +0.035 A 
ATOM     21  C   UNL     1       3.292   5.983  -0.993  0.00  0.00    +0.254 A 
ATOM     22  O   UNL     1       2.430   6.531  -0.328  0.00  0.00    -0.268 OA
ATOM     23  N   UNL     1       4.084   6.729  -1.783  0.00  0.00    -0.322 N 
ATOM     24  H   UNL     1       3.958   7.691  -1.814  0.00  0.00    +0.169 HD
ATOM     25  C   UNL     1       5.067   6.147  -2.554  0.00  0.00    +0.052 A 
ATOM     26  C   UNL     1       5.891   6.920  -3.367  0.00  0.00    -0.024 A 
ATOM     27  C   UNL     1       5.709   8.415  -3.424  0.00  0.00    +0.046 C 
ENDBRANCH  13  20
ENDBRANCH   1  13
BRANCH   1  28
ATOM     28  C   UNL     1       2.705   4.876   2.267  0.00  0.00    +0.142 C 
BRANCH  28  29
ATOM     29  C   UNL     1       1.400   4.554   2.949  0.00  0.00    -0.026 A 
ATOM     30  C   UNL     1       0.203   4.868   2.331  0.00  0.00    +0.009 A 
ATOM     31  C   UNL     1      -0.996   4.569   2.949  0.00  0.00    +0.050 A 
ATOM     32  C   UNL     1      -1.002   3.966   4.196  0.00  0.00    +0.166 A 
ATOM     33  C   UNL     1       0.203   3.655   4.821  0.00  0.00    +0.167 A 
ATOM     34  C   UNL     1       1.401   3.951   4.192  0.00  0.00    +0.054 A 
ATOM     35  O   UNL     1      -0.068   3.073   6.026  0.00  0.00    -0.453 OA
ATOM     36  C   UNL     1      -1.440   3.402   6.312  0.00  0.00    +0.466 C 
ATOM     37  O   UNL     1      -2.028   3.579   5.010  0.00  0.00    -0.453 OA
ENDBRANCH  28  29
ENDBRANCH   1  28
TORSDOF 10
