REMARK  Name = ZINC39542884
REMARK  8 active torsions:
REMARK  status: ('A' for Active; 'I' for Inactive)
REMARK    1  A    between atoms: C_1  and  C_2
REMARK    2  A    between atoms: N_13  and  C_26
REMARK    3  A    between atoms: C_14  and  S_16
REMARK    4  A    between atoms: S_16  and  C_17
REMARK    5  A    between atoms: C_17  and  C_18
REMARK    6  A    between atoms: C_18  and  C_20
REMARK    7  A    between atoms: N_24  and  C_25
REMARK    8  A    between atoms: C_26  and  C_27
REMARK                            x       y       z     vdW  Elec       q    Type
REMARK                         _______ _______ _______ _____ _____    ______ ____
ROOT
ATOM      1  C   UNL     1      -0.019   1.526   0.010  0.00  0.00    +0.008 C 
ATOM      2  C   UNL     1       0.002  -0.004   0.002  0.00  0.00    -0.009 C 
ATOM      3  C   UNL     1      -1.433  -0.538   0.021  0.00  0.00    +0.008 C 
ATOM      4  C   UNL     1      -1.430  -2.045  -0.236  0.00  0.00    +0.037 C 
ATOM      5  C   UNL     1      -0.471  -2.712   0.746  0.00  0.00    -0.023 A 
ATOM      6  C   UNL     1       0.475  -1.986   1.383  0.00  0.00    -0.004 A 
ATOM      7  S   UNL     1       1.343  -3.147   2.407  0.00  0.00    -0.073 S 
ATOM      8  C   UNL     1       0.438  -4.601   1.981  0.00  0.00    +0.117 A 
ATOM      9  C   UNL     1      -0.517  -4.133   1.050  0.00  0.00    +0.076 A 
ATOM     10  C   UNL     1      -1.426  -5.096   0.503  0.00  0.00    +0.263 A 
ATOM     11  O   UNL     1      -2.284  -4.789  -0.307  0.00  0.00    -0.267 OA
ATOM     12  N   UNL     1      -1.274  -6.368   0.941  0.00  0.00    -0.283 N 
ATOM     13  C   UNL     1      -0.322  -6.731   1.845  0.00  0.00    +0.173 A 
ATOM     14  N   UNL     1       0.535  -5.866   2.370  0.00  0.00    -0.216 NA
ATOM     15  C   UNL     1       0.737  -0.516   1.249  0.00  0.00    +0.046 C 
ENDROOT
BRANCH  13  16
ATOM     16  S   UNL     1      -0.225  -8.421   2.336  0.00  0.00    -0.080 S 
BRANCH  16  17
ATOM     17  C   UNL     1       1.147  -8.455   3.522  0.00  0.00    +0.158 C 
BRANCH  17  18
ATOM     18  C   UNL     1       1.340  -9.862   4.027  0.00  0.00    +0.189 C 
ATOM     19  O   UNL     1       0.621 -10.755   3.626  0.00  0.00    -0.290 OA
BRANCH  18  20
ATOM     20  C   UNL     1       2.358 -10.142   4.967  0.00  0.00    +0.085 A 
ATOM     21  C   UNL     1       3.243  -9.229   5.513  0.00  0.00    +0.031 A 
ATOM     22  C   UNL     1       4.069  -9.936   6.388  0.00  0.00    +0.020 A 
ATOM     23  C   UNL     1       3.685 -11.237   6.364  0.00  0.00    +0.086 A 
ATOM     24  N   UNL     1       2.647 -11.374   5.513  0.00  0.00    -0.347 N 
ATOM     25  C   UNL     1       1.947 -12.626   5.215  0.00  0.00    +0.149 C 
ENDBRANCH  18  20
ENDBRANCH  17  18
ENDBRANCH  16  17
ENDBRANCH  13  16
BRANCH  12  26
ATOM     26  C   UNL     1      -2.174  -7.400   0.420  0.00  0.00    +0.154 C 
BRANCH  26  27
ATOM     27  C   UNL     1      -1.573  -8.010  -0.820  0.00  0.00    -0.013 C 
ATOM     28  C   UNL     1      -1.399  -9.306  -0.893  0.00  0.00    +0.005 C 
ENDBRANCH  26  27
ENDBRANCH  12  26
TORSDOF 6
