REMARK  Name = ZINC36065893
REMARK  14 active torsions:
REMARK  status: ('A' for Active; 'I' for Inactive)
REMARK    1  A    between atoms: C_1  and  C_2
REMARK    2  A    between atoms: C_5  and  C_34
REMARK    3  A    between atoms: C_6  and  C_8
REMARK    4  A    between atoms: C_8  and  N_9
REMARK    5  A    between atoms: N_9  and  C_10
REMARK    6  A    between atoms: N_9  and  C_20
REMARK    7  A    between atoms: C_10  and  C_11
REMARK    8  A    between atoms: C_20  and  C_21
REMARK    9  A    between atoms: C_23  and  C_26
REMARK   10  A    between atoms: N_28  and  C_29
REMARK   11  A    between atoms: C_29  and  C_30
REMARK   12  A    between atoms: C_30  and  N_31
REMARK   13  A    between atoms: N_31  and  C_32
REMARK   14  A    between atoms: N_31  and  C_33
REMARK                            x       y       z     vdW  Elec       q    Type
REMARK                         _______ _______ _______ _____ _____    ______ ____
ROOT
ATOM      1  N   UNL     1       2.418  -4.242   2.625  0.00  0.00    +0.391 N 
ATOM      2  H   UNL     1       2.794  -5.050   2.152  0.00  0.00    -0.080 HD
ENDROOT
BRANCH   1   3
ATOM      3  C   UNL     1       1.448  -3.570   1.749  0.00  0.00    -0.042 C 
BRANCH   3   9
ATOM      4  C   UNL     1       0.356  -7.824  -0.650  0.00  0.00    +0.044 C 
ATOM      5  C   UNL     1      -0.091  -6.606   0.116  0.00  0.00    -0.050 A 
ATOM      6  C   UNL     1      -1.435  -6.406   0.374  0.00  0.00    +0.003 A 
ATOM      7  C   UNL     1      -1.845  -5.289   1.076  0.00  0.00    +0.004 A 
ATOM      8  C   UNL     1      -0.912  -4.371   1.521  0.00  0.00    -0.049 A 
ATOM      9  C   UNL     1       0.431  -4.571   1.264  0.00  0.00    -0.061 A 
ATOM     10  C   UNL     1       0.842  -5.691   0.566  0.00  0.00    +0.005 A 
ATOM     11  C   UNL     1      -1.360  -3.152   2.286  0.00  0.00    +0.044 C 
ENDBRANCH   3   9
ENDBRANCH   1   3
BRANCH   1  12
ATOM     12  C   UNL     1       3.508  -3.313   2.951  0.00  0.00    -0.042 C 
BRANCH  12  13
ATOM     13  C   UNL     1       4.318  -3.034   1.711  0.00  0.00    -0.060 A 
ATOM     14  C   UNL     1       5.306  -3.918   1.319  0.00  0.00    +0.005 A 
ATOM     15  C   UNL     1       6.052  -3.667   0.183  0.00  0.00    +0.050 A 
ATOM     16  C   UNL     1       5.811  -2.527  -0.567  0.00  0.00    +0.166 A 
ATOM     17  C   UNL     1       4.815  -1.637  -0.172  0.00  0.00    +0.166 A 
ATOM     18  C   UNL     1       4.068  -1.898   0.965  0.00  0.00    +0.051 A 
ATOM     19  O   UNL     1       4.774  -0.605  -1.065  0.00  0.00    -0.453 OA
ATOM     20  C   UNL     1       6.023  -0.664  -1.779  0.00  0.00    +0.466 C 
ATOM     21  O   UNL     1       6.393  -2.054  -1.707  0.00  0.00    -0.453 OA
ENDBRANCH  12  13
ENDBRANCH   1  12
BRANCH   1  22
ATOM     22  C   UNL     1       1.749  -4.665   3.862  0.00  0.00    +0.020 C 
BRANCH  22  23
ATOM     23  C   UNL     1       0.857  -5.845   3.572  0.00  0.00    +0.179 A 
ATOM     24  N   UNL     1       1.253  -6.992   3.107  0.00  0.00    -0.210 NA
ATOM     25  C   UNL     1       0.169  -7.803   2.977  0.00  0.00    +0.163 A 
ATOM     26  C   UNL     1      -0.916  -7.090   3.387  0.00  0.00    +0.230 A 
ATOM     27  O   UNL     1      -0.470  -5.879   3.758  0.00  0.00    -0.449 OA
BRANCH  25  28
ATOM     28  C   UNL     1       0.168  -9.192   2.484  0.00  0.00    +0.265 C 
ATOM     29  O   UNL     1      -0.876  -9.812   2.415  0.00  0.00    -0.268 OA
ATOM     30  N   UNL     1       1.324  -9.775   2.109  0.00  0.00    -0.312 N 
ATOM     31  H   UNL     1       2.156  -9.280   2.164  0.00  0.00    +0.149 HD
BRANCH  30  32
ATOM     32  C   UNL     1       1.323 -11.155   1.619  0.00  0.00    +0.086 C 
BRANCH  32  33
ATOM     33  C   UNL     1       2.752 -11.571   1.264  0.00  0.00    -0.061 C 
BRANCH  33  34
ATOM     34  N   UNL     1       2.752 -12.956   0.772  0.00  0.00    +0.377 N 
ATOM     35  C   UNL     1       2.001 -13.027  -0.489  0.00  0.00    -0.097 C 
ATOM     36  C   UNL     1       4.135 -13.395   0.544  0.00  0.00    -0.097 C 
ATOM     37  H   UNL     1       2.316 -13.555   1.457  0.00  0.00    -0.083 HD
ENDBRANCH  33  34
ENDBRANCH  32  33
ENDBRANCH  30  32
ENDBRANCH  25  28
ENDBRANCH  22  23
ENDBRANCH   1  22
TORSDOF 10
