REMARK  Name = ZINC40481198
REMARK  6 active torsions:
REMARK  status: ('A' for Active; 'I' for Inactive)
REMARK    1  A    between atoms: C_1  and  C_2
REMARK    2  A    between atoms: C_2  and  C_3
REMARK    3  A    between atoms: C_2  and  C_6
REMARK    4  A    between atoms: C_2  and  N_20
REMARK    5  A    between atoms: N_8  and  C_9
REMARK    6  A    between atoms: C_10  and  C_17
REMARK                            x       y       z     vdW  Elec       q    Type
REMARK                         _______ _______ _______ _____ _____    ______ ____
ROOT
ATOM      1  C   UNL     1      -1.173  -1.024  -0.257  0.00  0.00    +0.206 C 
ATOM      2  O   UNL     1      -1.465  -1.819   0.612  0.00  0.00    -0.277 OA
ATOM      3  N   UNL     1      -2.102  -0.631  -1.151  0.00  0.00    -0.285 N 
ATOM      4  H   UNL     1      -1.893   0.063  -1.794  0.00  0.00    +0.155 HD
ENDROOT
BRANCH   3   5
ATOM      5  C   UNL     1      -3.363  -1.223  -1.150  0.00  0.00    +0.066 A 
ATOM      6  C   UNL     1      -3.889  -1.763  -2.334  0.00  0.00    +0.087 A 
ATOM      7  C   UNL     1      -5.157  -2.354  -2.320  0.00  0.00    +0.037 A 
ATOM      8  C   UNL     1      -5.880  -2.403  -1.147  0.00  0.00    +0.043 A 
ATOM      9  C   UNL     1      -5.356  -1.868   0.021  0.00  0.00    +0.042 A 
ATOM     10  C   UNL     1      -4.104  -1.287   0.024  0.00  0.00    +0.064 A 
ATOM     11 CL   UNL     1      -3.457  -0.628   1.494  0.00  0.00    -0.082 Cl
ATOM     12 CL   UNL     1      -7.452  -3.137  -1.131  0.00  0.00    -0.083 Cl
BRANCH   6  13
ATOM     13  C   UNL     1      -3.113  -1.707  -3.583  0.00  0.00    +0.388 C 
ATOM     14  O   UNL     1      -3.615  -2.084  -4.633  0.00  0.00    -0.241 OA
ATOM     15  O   UNL     1      -1.965  -1.284  -3.571  0.00  0.00    -0.241 OA
ENDBRANCH   6  13
ENDBRANCH   3   5
BRANCH   1  17
ATOM     16  C   UNL     1       0.295   0.862   0.403  0.00  0.00    -0.001 C 
ATOM     17  C   UNL     1       0.229  -0.476  -0.337  0.00  0.00    +0.007 C 
BRANCH  17  18
ATOM     18  N   UNL     1       0.597  -0.277  -1.744  0.00  0.00    +0.388 N 
ATOM     19  H   UNL     1       1.535   0.090  -1.798  0.00  0.00    -0.089 HD
ATOM     20  H   UNL     1       0.553  -1.159  -2.232  0.00  0.00    -0.089 HD
ATOM     21  H   UNL     1      -0.044   0.375  -2.171  0.00  0.00    -0.089 HD
ENDBRANCH  17  18
BRANCH  17  22
ATOM     22  C   UNL     1       1.200  -1.465   0.310  0.00  0.00    -0.014 C 
ATOM     23  C   UNL     1       1.776  -1.097   1.679  0.00  0.00    +0.003 C 
ATOM     24  C   UNL     1       2.664  -1.037   0.435  0.00  0.00    +0.003 C 
ENDBRANCH  17  22
ENDBRANCH   1  17
TORSDOF 5
