REMARK  Name = ZINC12139945
REMARK  10 active torsions:
REMARK  status: ('A' for Active; 'I' for Inactive)
REMARK    1  A    between atoms: C_1  and  N_2
REMARK    2  A    between atoms: C_6  and  C_23
REMARK    3  A    between atoms: C_8  and  C_16
REMARK    4  A    between atoms: C_10  and  C_11
REMARK    5  A    between atoms: C_10  and  O_15
REMARK    6  A    between atoms: C_16  and  C_18
REMARK    7  A    between atoms: C_27  and  O_31
REMARK    8  A    between atoms: C_28  and  O_29
REMARK    9  A    between atoms: O_29  and  C_30
REMARK   10  A    between atoms: O_31  and  C_32
REMARK                            x       y       z     vdW  Elec       q    Type
REMARK                         _______ _______ _______ _____ _____    ______ ____
ROOT
ATOM      1  C   UNL     1      -5.587   6.207  -0.250  0.00  0.00    +0.137 C 
ATOM      2  N   UNL     1      -4.243   6.153   0.331  0.00  0.00    -0.253 N 
ATOM      3  C   UNL     1      -4.105   5.943   1.649  0.00  0.00    +0.305 C 
ATOM      4  O   UNL     1      -5.106   5.813   2.327  0.00  0.00    -0.253 OA
ATOM      5  N   UNL     1      -2.907   5.870   2.247  0.00  0.00    -0.291 N 
ATOM      6  C   UNL     1      -1.661   6.029   1.488  0.00  0.00    +0.124 C 
ATOM      7  C   UNL     1      -1.892   5.557   0.049  0.00  0.00    +0.145 C 
ATOM      8  C   UNL     1      -3.079   6.329  -0.538  0.00  0.00    +0.245 C 
ATOM      9  H   UNL     1      -2.862   5.707   3.202  0.00  0.00    +0.151 HD
ENDROOT
BRANCH   6  10
ATOM     10  C   UNL     1      -0.570   5.204   2.120  0.00  0.00    +0.019 A 
ATOM     11  C   UNL     1      -0.894   4.099   2.886  0.00  0.00    +0.009 A 
ATOM     12  C   UNL     1       0.104   3.340   3.466  0.00  0.00    +0.004 A 
ATOM     13  C   UNL     1       1.432   3.682   3.284  0.00  0.00    +0.049 A 
ATOM     14  C   UNL     1       1.763   4.788   2.518  0.00  0.00    +0.162 A 
ATOM     15  C   UNL     1       0.758   5.549   1.929  0.00  0.00    +0.166 A 
BRANCH  15  16
ATOM     16  O   UNL     1       1.079   6.633   1.172  0.00  0.00    -0.491 OA
ATOM     17  C   UNL     1       1.189   7.887   1.848  0.00  0.00    +0.277 C 
ENDBRANCH  15  16
BRANCH  14  18
ATOM     18  O   UNL     1       3.068   5.125   2.338  0.00  0.00    -0.491 OA
ATOM     19  C   UNL     1       4.046   4.295   2.967  0.00  0.00    +0.277 C 
ENDBRANCH  14  18
ENDBRANCH   6  10
BRANCH   8  20
ATOM     20  C   UNL     1      -2.728   7.815  -0.628  0.00  0.00    +0.436 C 
ATOM     21  F   UNL     1      -1.610   7.982  -1.452  0.00  0.00    -0.166 F 
ATOM     22  F   UNL     1      -3.811   8.519  -1.163  0.00  0.00    -0.166 F 
ATOM     23  F   UNL     1      -2.440   8.304   0.651  0.00  0.00    -0.166 F 
ENDBRANCH   8  20
BRANCH   8  24
ATOM     24  O   UNL     1      -3.376   5.828  -1.843  0.00  0.00    -0.364 OA
ATOM     25  H   UNL     1      -4.119   6.272  -2.275  0.00  0.00    +0.212 HD
ENDBRANCH   8  24
BRANCH   7  26
ATOM     26  C   UNL     1      -2.197   4.081   0.043  0.00  0.00    +0.180 C 
ATOM     27  O   UNL     1      -3.349   3.699   0.052  0.00  0.00    -0.291 OA
BRANCH  26  28
ATOM     28  C   UNL     1      -1.141   3.142   0.029  0.00  0.00    +0.055 A 
ATOM     29  C   UNL     1      -1.204   1.752   0.017  0.00  0.00    +0.019 A 
ATOM     30  C   UNL     1      -0.013   1.076   0.008  0.00  0.00    +0.008 A 
ATOM     31  C   UNL     1       1.152   1.780   0.001  0.00  0.00    +0.046 A 
ATOM     32  S   UNL     1       0.619   3.429   0.014  0.00  0.00    -0.094 S 
ENDBRANCH  26  28
ENDBRANCH   7  26
TORSDOF 7
