REMARK  Name = ZINC39675160
REMARK  10 active torsions:
REMARK  status: ('A' for Active; 'I' for Inactive)
REMARK    1  A    between atoms: C_1  and  C_2
REMARK    2  A    between atoms: C_7  and  C_8
REMARK    3  A    between atoms: C_12  and  C_21
REMARK    4  A    between atoms: N_23  and  C_24
REMARK    5  A    between atoms: C_24  and  C_26
REMARK    6  A    between atoms: C_24  and  C_27
REMARK    7  A    between atoms: C_27  and  C_28
REMARK    8  A    between atoms: C_28  and  C_29
REMARK    9  A    between atoms: C_32  and  O_35
REMARK   10  A    between atoms: O_35  and  C_36
REMARK                            x       y       z     vdW  Elec       q    Type
REMARK                         _______ _______ _______ _____ _____    ______ ____
ROOT
ATOM      1  C   UNL     1       0.118   0.198   2.409  0.00  0.00    +0.247 C 
ATOM      2  O   UNL     1      -0.024   1.404   2.355  0.00  0.00    -0.270 OA
ATOM      3  N   UNL     1       0.321  -0.404   3.598  0.00  0.00    -0.296 N 
ATOM      4  C   UNL     1       0.602  -1.836   3.854  0.00  0.00    +0.121 C 
ATOM      5  C   UNL     1       1.656  -1.831   4.984  0.00  0.00    +0.100 C 
ATOM      6  C   UNL     1       1.462  -0.483   5.696  0.00  0.00    -0.004 C 
ATOM      7  C   UNL     1       0.321   0.218   4.943  0.00  0.00    +0.115 C 
ATOM      8  C   UNL     1       1.074  -0.706   7.155  0.00  0.00    -0.010 C 
ATOM      9  C   UNL     1       0.943   0.648   7.857  0.00  0.00    -0.082 C 
ATOM     10  N   UNL     1       2.219   1.370   7.774  0.00  0.00    +0.379 N 
ATOM     11  C   UNL     1       2.538   1.663   6.371  0.00  0.00    -0.082 C 
ATOM     12  C   UNL     1       2.736   0.351   5.606  0.00  0.00    -0.010 C 
ATOM     13  H   UNL     1       2.148   2.235   8.289  0.00  0.00    -0.086 HD
ATOM     14  H   UNL     1       2.951   0.802   8.173  0.00  0.00    -0.086 HD
ENDROOT
BRANCH   1  21
ATOM     15  C   UNL     1      -2.144   0.459   0.624  0.00  0.00    +0.044 C 
ATOM     16  C   UNL     1      -1.019  -0.491   0.302  0.00  0.00    -0.038 A 
ATOM     17  C   UNL     1      -1.058  -1.242  -0.854  0.00  0.00    +0.004 A 
ATOM     18  C   UNL     1      -0.025  -2.115  -1.151  0.00  0.00    +0.000 A 
ATOM     19  C   UNL     1       1.051  -2.240  -0.291  0.00  0.00    +0.001 A 
ATOM     20  C   UNL     1       1.102  -1.494   0.868  0.00  0.00    +0.013 A 
ATOM     21  C   UNL     1       0.067  -0.608   1.171  0.00  0.00    +0.040 A 
ENDBRANCH   1  21
BRANCH   5  22
ATOM     22  C   UNL     1       1.409  -2.972   5.937  0.00  0.00    +0.218 C 
ATOM     23  O   UNL     1       0.274  -3.329   6.174  0.00  0.00    -0.275 OA
ATOM     24  N   UNL     1       2.448  -3.595   6.527  0.00  0.00    -0.312 N 
ATOM     25  H   UNL     1       3.356  -3.309   6.338  0.00  0.00    +0.149 HD
BRANCH  24  26
ATOM     26  C   UNL     1       2.208  -4.703   7.454  0.00  0.00    +0.070 C 
ATOM     27  C   UNL     1       1.936  -4.148   8.853  0.00  0.00    +0.028 C 
BRANCH  26  28
ATOM     28  C   UNL     1       3.439  -5.610   7.495  0.00  0.00    +0.026 C 
BRANCH  28  29
ATOM     29  C   UNL     1       3.638  -6.263   6.126  0.00  0.00    +0.037 C 
BRANCH  29  30
ATOM     30  C   UNL     1       4.851  -7.156   6.167  0.00  0.00    -0.047 A 
ATOM     31  C   UNL     1       6.096  -6.644   5.852  0.00  0.00    +0.007 A 
ATOM     32  C   UNL     1       7.210  -7.460   5.888  0.00  0.00    +0.046 A 
ATOM     33  C   UNL     1       7.079  -8.795   6.241  0.00  0.00    +0.120 A 
ATOM     34  C   UNL     1       5.829  -9.307   6.557  0.00  0.00    +0.046 A 
ATOM     35  C   UNL     1       4.719  -8.485   6.524  0.00  0.00    +0.007 A 
BRANCH  33  36
ATOM     36  O   UNL     1       8.173  -9.601   6.277  0.00  0.00    -0.495 OA
ATOM     37  C   UNL     1       7.962 -10.964   6.649  0.00  0.00    +0.277 C 
ENDBRANCH  33  36
ENDBRANCH  29  30
ENDBRANCH  28  29
ENDBRANCH  26  28
ENDBRANCH  24  26
ENDBRANCH   5  22
TORSDOF 7
