REMARK  Name = ZINC27254977
REMARK  7 active torsions:
REMARK  status: ('A' for Active; 'I' for Inactive)
REMARK    1  A    between atoms: C_1  and  C_2
REMARK    2  A    between atoms: C_7  and  N_12
REMARK    3  A    between atoms: C_9  and  C_11
REMARK    4  A    between atoms: N_12  and  C_13
REMARK    5  A    between atoms: C_13  and  N_15
REMARK    6  A    between atoms: N_15  and  N_16
REMARK    7  A    between atoms: C_17  and  C_19
REMARK                            x       y       z     vdW  Elec       q    Type
REMARK                         _______ _______ _______ _____ _____    ______ ____
ROOT
ATOM      1  N   UNL     1       2.494  -0.273  -0.021  0.00  0.00    -0.231 N 
ATOM      2  C   UNL     1       2.475   1.075  -0.015  0.00  0.00    +0.260 C 
ATOM      3  O   UNL     1       3.519   1.698  -0.021  0.00  0.00    -0.269 OA
ATOM      4  H   UNL     1       1.550  -0.837  -0.015  0.00  0.00    +0.173 HD
ENDROOT
BRANCH   2   5
ATOM      5  C   UNL     1       1.187   1.794   0.000  0.00  0.00    +0.040 A 
ATOM      6  C   UNL     1      -0.013   1.076   0.008  0.00  0.00    +0.014 A 
ATOM      7  C   UNL     1      -1.213   1.750   0.017  0.00  0.00    +0.017 A 
ATOM      8  C   UNL     1      -1.231   3.139   0.030  0.00  0.00    +0.030 A 
ATOM      9  C   UNL     1      -0.038   3.870   0.019  0.00  0.00    +0.048 A 
ATOM     10  C   UNL     1       1.169   3.190   0.006  0.00  0.00    +0.037 A 
ATOM     11  N   UNL     1      -0.038   5.263   0.016  0.00  0.00    -0.284 N 
ATOM     12  C   UNL     1      -1.031   6.051   0.420  0.00  0.00    +0.227 C 
ATOM     13  O   UNL     1      -0.869   7.252   0.362  0.00  0.00    -0.275 OA
ATOM     14  C   UNL     1      -2.342   5.535   0.945  0.00  0.00    +0.170 C 
ATOM     15  S   UNL     1      -2.769   4.006   0.058  0.00  0.00    -0.114 S 
ATOM     16  H   UNL     1       0.843   5.812  -0.347  0.00  0.00    +0.155 HD
ENDBRANCH   2   5
BRANCH   1  17
ATOM     17  N   UNL     1       3.717  -0.956  -0.035  0.00  0.00    -0.246 N 
ATOM     18  H   UNL     1       4.662  -0.393  -0.041  0.00  0.00    +0.172 HD
BRANCH  17  19
ATOM     19  C   UNL     1       3.736  -2.304  -0.042  0.00  0.00    +0.147 C 
ATOM     20  S   UNL     1       5.231  -3.138  -0.059  0.00  0.00    -0.017 S 
BRANCH  19  21
ATOM     21  N   UNL     1       2.579  -2.994  -0.034  0.00  0.00    -0.322 N 
ATOM     22  H   UNL     1       1.619  -2.458  -0.023  0.00  0.00    +0.148 HD
BRANCH  21  28
ATOM     23  C   UNL     1       0.011  -7.041  -1.249  0.00  0.00    +0.008 C 
ATOM     24  C   UNL     1       1.316  -6.515  -0.649  0.00  0.00    -0.009 C 
ATOM     25  C   UNL     1       1.462  -7.029   0.785  0.00  0.00    +0.003 C 
ATOM     26  C   UNL     1       2.768  -6.504   1.385  0.00  0.00    +0.002 C 
ATOM     27  C   UNL     1       2.746  -4.974   1.392  0.00  0.00    +0.022 C 
ATOM     28  C   UNL     1       2.600  -4.459  -0.041  0.00  0.00    +0.075 C 
ATOM     29  C   UNL     1       1.295  -4.985  -0.641  0.00  0.00    +0.009 C 
ATOM     30  C   UNL     1       0.113  -4.496   0.199  0.00  0.00    +0.009 C 
ENDBRANCH  21  28
ENDBRANCH  19  21
ENDBRANCH  17  19
ENDBRANCH   1  17
TORSDOF 5
