REMARK  Name = ZINC36101824
REMARK  8 active torsions:
REMARK  status: ('A' for Active; 'I' for Inactive)
REMARK    1  A    between atoms: C_1  and  C_2
REMARK    2  A    between atoms: C_5  and  C_8
REMARK    3  A    between atoms: C_10  and  C_33
REMARK    4  A    between atoms: C_11  and  N_32
REMARK    5  A    between atoms: C_12  and  C_24
REMARK    6  A    between atoms: N_14  and  S_15
REMARK    7  A    between atoms: S_15  and  C_18
REMARK    8  A    between atoms: C_24  and  C_26
REMARK                            x       y       z     vdW  Elec       q    Type
REMARK                         _______ _______ _______ _____ _____    ______ ____
ROOT
ATOM      1  C   UNL     1       0.381  -4.275  -0.092  0.00  0.00    +0.153 C 
ATOM      2  C   UNL     1      -0.908  -5.026  -0.295  0.00  0.00    +0.071 C 
ATOM      3  C   UNL     1      -1.144  -5.808   0.771  0.00  0.00    +0.044 C 
ATOM      4  C   UNL     1      -0.032  -5.642   1.772  0.00  0.00    +0.196 C 
ATOM      5  N   UNL     1       0.924  -4.673   1.213  0.00  0.00    -0.148 NA
ENDROOT
BRANCH   1  10
ATOM      6  C   UNL     1      -0.636   1.413  -0.145  0.00  0.00    +0.044 C 
ATOM      7  C   UNL     1      -0.370  -0.070  -0.131  0.00  0.00    -0.050 A 
ATOM      8  C   UNL     1       0.159  -0.688  -1.249  0.00  0.00    +0.004 A 
ATOM      9  C   UNL     1       0.402  -2.049  -1.236  0.00  0.00    +0.006 A 
ATOM     10  C   UNL     1       0.117  -2.791  -0.106  0.00  0.00    -0.024 A 
ATOM     11  C   UNL     1      -0.412  -2.173   1.012  0.00  0.00    +0.006 A 
ATOM     12  C   UNL     1      -0.651  -0.812   1.001  0.00  0.00    +0.004 A 
ENDBRANCH   1  10
BRANCH   5  13
ATOM     13  S   UNL     1       2.326  -4.138   1.911  0.00  0.00    +0.063 S 
ATOM     14  O   UNL     1       2.730  -5.143   2.832  0.00  0.00    -0.153 OA
ATOM     15  O   UNL     1       3.164  -3.694   0.853  0.00  0.00    -0.153 OA
BRANCH  13  16
ATOM     16  C   UNL     1       1.922  -2.713   2.866  0.00  0.00    +0.106 A 
ATOM     17  C   UNL     1       1.967  -1.459   2.288  0.00  0.00    +0.028 A 
ATOM     18  C   UNL     1       1.650  -0.341   3.037  0.00  0.00    +0.002 A 
ATOM     19  C   UNL     1       1.288  -0.478   4.364  0.00  0.00    +0.000 A 
ATOM     20  C   UNL     1       1.243  -1.733   4.942  0.00  0.00    +0.002 A 
ATOM     21  C   UNL     1       1.556  -2.851   4.192  0.00  0.00    +0.028 A 
ENDBRANCH  13  16
ENDBRANCH   5  13
BRANCH   3  22
ATOM     22  N   UNL     1      -2.230  -6.631   0.924  0.00  0.00    -0.359 N 
ATOM     23  H   UNL     1      -2.945  -6.618   0.269  0.00  0.00    +0.142 HD
ATOM     24  H   UNL     1      -2.284  -7.225   1.689  0.00  0.00    +0.142 HD
ENDBRANCH   3  22
BRANCH   4  25
ATOM     25  C   UNL     1       0.654  -6.965   2.000  0.00  0.00    +0.187 C 
ATOM     26  O   UNL     1       1.659  -7.241   1.381  0.00  0.00    -0.290 OA
BRANCH  25  27
ATOM     27  C   UNL     1       0.103  -7.921   2.973  0.00  0.00    +0.019 A 
ATOM     28  C   UNL     1      -0.988  -7.562   3.771  0.00  0.00    +0.011 A 
ATOM     29  C   UNL     1      -1.499  -8.464   4.681  0.00  0.00    +0.001 A 
ATOM     30  C   UNL     1      -0.935  -9.722   4.805  0.00  0.00    +0.000 A 
ATOM     31  C   UNL     1       0.145 -10.084   4.019  0.00  0.00    +0.001 A 
ATOM     32  C   UNL     1       0.664  -9.196   3.101  0.00  0.00    +0.011 A 
ENDBRANCH  25  27
ENDBRANCH   4  25
BRANCH   2  33
ATOM     33  C   UNL     1      -1.752  -4.923  -1.448  0.00  0.00    +0.098 C 
ATOM     34  N   UNL     1      -2.422  -4.841  -2.362  0.00  0.00    -0.191 NA
ENDBRANCH   2  33
TORSDOF 7
