REMARK  Name = ZINC08985984
REMARK  8 active torsions:
REMARK  status: ('A' for Active; 'I' for Inactive)
REMARK    1  A    between atoms: C_1  and  C_2
REMARK    2  A    between atoms: C_2  and  C_22
REMARK    3  A    between atoms: N_5  and  C_9
REMARK    4  A    between atoms: C_9  and  N_54
REMARK    5  A    between atoms: C_10  and  N_54
REMARK    6  A    between atoms: C_11  and  C_12
REMARK    7  A    between atoms: C_11  and  N_54
REMARK    8  A    between atoms: C_15  and  C_18
REMARK                            x       y       z     vdW  Elec       q    Type
REMARK                         _______ _______ _______ _____ _____    ______ ____
ROOT
ATOM      1  C   UNL     1      -5.410   0.796   1.494  0.00  0.00    +0.047 C 
ATOM      2  C   UNL     1      -4.940   1.037   0.058  0.00  0.00    +0.135 C 
ATOM      3  C   UNL     1      -5.989   1.799  -0.729  0.00  0.00    +0.249 C 
ATOM      4  O   UNL     1      -6.416   2.909  -0.496  0.00  0.00    -0.272 OA
ATOM      5  N   UNL     1      -6.350   0.984  -1.740  0.00  0.00    -0.241 N 
ATOM      6  C   UNL     1      -5.681  -0.175  -1.702  0.00  0.00    +0.308 C 
ATOM      7  O   UNL     1      -5.835  -1.070  -2.509  0.00  0.00    -0.252 OA
ATOM      8  N   UNL     1      -4.821  -0.238  -0.670  0.00  0.00    -0.281 N 
ATOM      9  H   UNL     1      -4.235  -0.979  -0.448  0.00  0.00    +0.152 HD
ENDROOT
BRANCH   2  10
ATOM     10  C   UNL     1      -3.628   1.779   0.048  0.00  0.00    -0.015 A 
ATOM     11  C   UNL     1      -3.627   3.172   0.055  0.00  0.00    +0.007 A 
ATOM     12  C   UNL     1      -2.460   3.873   0.047  0.00  0.00    +0.009 A 
ATOM     13  C   UNL     1      -1.236   3.183   0.031  0.00  0.00    -0.018 A 
ATOM     14  C   UNL     1      -0.011   3.871   0.023  0.00  0.00    +0.008 A 
ATOM     15  C   UNL     1       1.155   3.170   0.008  0.00  0.00    +0.001 A 
ATOM     16  C   UNL     1       1.155   1.776   0.001  0.00  0.00    +0.001 A 
ATOM     17  C   UNL     1      -0.013   1.076   0.008  0.00  0.00    +0.008 A 
ATOM     18  C   UNL     1      -1.237   1.766   0.018  0.00  0.00    -0.018 A 
ATOM     19  C   UNL     1      -2.462   1.077   0.032  0.00  0.00    +0.014 A 
ENDBRANCH   2  10
BRANCH   5  20
ATOM     20  C   UNL     1      -7.350   1.324  -2.754  0.00  0.00    +0.043 C 
BRANCH  20  22
ATOM     21  C   UNL     1      -9.257   1.864  -1.362  0.00  0.00    -0.093 C 
ATOM     22  N   UNL     1      -8.674   0.865  -2.283  0.00  0.00    +0.391 N 
ATOM     23  H   UNL     1      -8.561  -0.024  -1.782  0.00  0.00    -0.079 HD
BRANCH  22  24
ATOM     24  C   UNL     1      -9.575   0.655  -3.436  0.00  0.00    -0.041 C 
BRANCH  24  25
ATOM     25  C   UNL     1     -10.835  -0.017  -2.953  0.00  0.00    -0.064 A 
ATOM     26  C   UNL     1     -10.910  -1.396  -2.913  0.00  0.00    +0.002 A 
ATOM     27  C   UNL     1     -12.064  -2.013  -2.466  0.00  0.00    +0.012 A 
ATOM     28  C   UNL     1     -13.145  -1.250  -2.066  0.00  0.00    +0.055 A 
ATOM     29  C   UNL     1     -13.071   0.130  -2.111  0.00  0.00    +0.012 A 
ATOM     30  C   UNL     1     -11.916   0.746  -2.555  0.00  0.00    +0.002 A 
BRANCH  28  31
ATOM     31  C   UNL     1     -14.404  -1.922  -1.583  0.00  0.00    +0.417 C 
ATOM     32  F   UNL     1     -15.260  -2.145  -2.667  0.00  0.00    -0.166 F 
ATOM     33  F   UNL     1     -14.080  -3.144  -0.985  0.00  0.00    -0.166 F 
ATOM     34  F   UNL     1     -15.041  -1.100  -0.647  0.00  0.00    -0.166 F 
ENDBRANCH  28  31
ENDBRANCH  24  25
ENDBRANCH  22  24
ENDBRANCH  20  22
ENDBRANCH   5  20
TORSDOF 6
