REMARK  Name = ZINC35855706
REMARK  7 active torsions:
REMARK  status: ('A' for Active; 'I' for Inactive)
REMARK    1  A    between atoms: C_1  and  C_2
REMARK    2  A    between atoms: C_2  and  C_3
REMARK    3  A    between atoms: C_2  and  C_4
REMARK    4  A    between atoms: C_4  and  C_6
REMARK    5  A    between atoms: C_4  and  N_15
REMARK    6  A    between atoms: N_8  and  C_9
REMARK    7  A    between atoms: C_16  and  C_18
REMARK                            x       y       z     vdW  Elec       q    Type
REMARK                         _______ _______ _______ _____ _____    ______ ____
ROOT
ATOM      1  N   UNL     1      -2.222  -0.885  -1.312  0.00  0.00    -0.302 N 
ATOM      2  C   UNL     1      -1.832  -1.879  -2.136  0.00  0.00    +0.231 C 
ATOM      3  O   UNL     1      -0.828  -2.512  -1.889  0.00  0.00    -0.274 OA
ATOM      4  H   UNL     1      -3.025  -0.379  -1.510  0.00  0.00    +0.150 HD
ENDROOT
BRANCH   2   5
ATOM      5  C   UNL     1      -2.644  -2.202  -3.363  0.00  0.00    +0.145 C 
ATOM      6  C   UNL     1      -2.307  -1.212  -4.478  0.00  0.00    +0.063 C 
ATOM      7  C   UNL     1      -2.925  -1.667  -5.775  0.00  0.00    -0.041 A 
ATOM      8  C   UNL     1      -3.044  -0.750  -6.809  0.00  0.00    +0.004 A 
ATOM      9  C   UNL     1      -3.601  -1.127  -8.014  0.00  0.00    +0.000 A 
ATOM     10  C   UNL     1      -4.042  -2.425  -8.192  0.00  0.00    +0.000 A 
ATOM     11  C   UNL     1      -3.926  -3.337  -7.164  0.00  0.00    +0.005 A 
ATOM     12  C   UNL     1      -3.369  -2.960  -5.950  0.00  0.00    -0.030 A 
ATOM     13  C   UNL     1      -3.274  -3.988  -4.854  0.00  0.00    +0.117 C 
ATOM     14  N   UNL     1      -2.321  -3.561  -3.826  0.00  0.00    -0.301 NA
ATOM     15  H   UNL     1      -1.374  -3.609  -4.173  0.00  0.00    +0.123 HD
ENDBRANCH   2   5
BRANCH   1  16
ATOM     16  C   UNL     1      -1.432  -0.571  -0.119  0.00  0.00    +0.161 C 
BRANCH  16  17
ATOM     17  C   UNL     1      -2.317   0.082   0.911  0.00  0.00    +0.234 C 
ATOM     18  O   UNL     1      -3.335   0.645   0.567  0.00  0.00    -0.274 OA
ATOM     19  N   UNL     1      -1.978   0.039   2.215  0.00  0.00    -0.311 N 
ATOM     20  H   UNL     1      -1.201  -0.468   2.498  0.00  0.00    +0.149 HD
BRANCH  19  21
ATOM     21  C   UNL     1      -2.782   0.760   3.205  0.00  0.00    +0.073 C 
ATOM     22  C   UNL     1      -2.314   2.215   3.281  0.00  0.00    +0.022 C 
ATOM     23  C   UNL     1      -3.155   2.967   4.315  0.00  0.00    +0.002 C 
ATOM     24  C   UNL     1      -2.990   2.305   5.685  0.00  0.00    +0.000 C 
ATOM     25  C   UNL     1      -3.458   0.851   5.609  0.00  0.00    +0.002 C 
ATOM     26  C   UNL     1      -2.618   0.098   4.575  0.00  0.00    +0.022 C 
ENDBRANCH  19  21
ENDBRANCH  16  17
BRANCH  16  28
ATOM     27  C   UNL     1       0.676  -0.327  -1.437  0.00  0.00    +0.009 C 
ATOM     28  C   UNL     1      -0.297   0.384  -0.495  0.00  0.00    +0.012 C 
ATOM     29  C   UNL     1      -0.878   1.615  -1.196  0.00  0.00    +0.009 C 
ENDBRANCH  16  28
ENDBRANCH   1  16
TORSDOF 5
