REMARK  Name = ZINC28051719
REMARK  5 active torsions:
REMARK  status: ('A' for Active; 'I' for Inactive)
REMARK    1  A    between atoms: C_1  and  C_2
REMARK    2  A    between atoms: C_10  and  C_12
REMARK    3  A    between atoms: C_15  and  N_18
REMARK    4  A    between atoms: C_19  and  C_21
REMARK    5  A    between atoms: C_25  and  C_28
REMARK                            x       y       z     vdW  Elec       q    Type
REMARK                         _______ _______ _______ _____ _____    ______ ____
ROOT
ATOM      1  C   UNL     1      -0.431   0.987   0.225  0.00  0.00    +0.069 C 
ATOM      2  C   UNL     1      -0.949   1.536   1.529  0.00  0.00    +0.087 A 
ATOM      3  C   UNL     1      -0.201   1.855   2.659  0.00  0.00    +0.049 A 
ATOM      4  C   UNL     1      -1.124   2.312   3.564  0.00  0.00    +0.226 A 
ATOM      5  O   UNL     1      -2.305   2.242   2.959  0.00  0.00    -0.339 OA
ATOM      6  N   UNL     1      -2.194   1.816   1.826  0.00  0.00    -0.081 NA
ATOM      7  N   UNL     1      -0.743   2.732   4.822  0.00  0.00    -0.286 N 
ATOM      8  C   UNL     1       0.591   2.965   5.060  0.00  0.00    +0.019 C 
ATOM      9  C   UNL     1       1.563   2.539   4.226  0.00  0.00    +0.024 C 
ATOM     10  C   UNL     1       1.261   1.767   2.958  0.00  0.00    +0.091 C 
ATOM     11  C   UNL     1       2.919   2.792   4.506  0.00  0.00    +0.162 C 
ATOM     12  O   UNL     1       3.767   2.414   3.722  0.00  0.00    -0.292 OA
ATOM     13  C   UNL     1       3.342   3.519   5.751  0.00  0.00    +0.088 C 
ATOM     14  C   UNL     1       2.294   3.282   6.844  0.00  0.00    +0.032 C 
ATOM     15  C   UNL     1       0.934   3.739   6.313  0.00  0.00    +0.059 C 
ATOM     16  H   UNL     1      -1.499   2.873   5.607  0.00  0.00    +0.155 HD
ENDROOT
BRANCH  10  17
ATOM     17  C   UNL     1       1.651   0.323   3.143  0.00  0.00    -0.035 A 
ATOM     18  C   UNL     1       1.064  -0.427   4.145  0.00  0.00    +0.006 A 
ATOM     19  C   UNL     1       1.416  -1.752   4.314  0.00  0.00    +0.023 A 
ATOM     20  C   UNL     1       2.368  -2.328   3.482  0.00  0.00    +0.033 A 
ATOM     21  C   UNL     1       2.959  -1.570   2.480  0.00  0.00    +0.023 A 
ATOM     22  C   UNL     1       2.599  -0.247   2.313  0.00  0.00    +0.006 A 
BRANCH  20  23
ATOM     23  N   UNL     1       2.730  -3.668   3.655  0.00  0.00    -0.286 N 
ATOM     24  C   UNL     1       3.993  -4.062   3.400  0.00  0.00    +0.214 C 
ATOM     25  O   UNL     1       4.839  -3.241   3.115  0.00  0.00    -0.276 OA
ATOM     26  C   UNL     1       4.355  -5.524   3.470  0.00  0.00    +0.109 C 
ATOM     27  H   UNL     1       1.984  -4.400   3.998  0.00  0.00    +0.155 HD
ENDBRANCH  20  23
ENDBRANCH  10  17
BRANCH  14  28
ATOM     28  C   UNL     1       2.653   4.077   8.073  0.00  0.00    -0.044 A 
ATOM     29  C   UNL     1       2.756   5.453   8.001  0.00  0.00    +0.004 A 
ATOM     30  C   UNL     1       3.081   6.183   9.129  0.00  0.00    +0.000 A 
ATOM     31  C   UNL     1       3.312   5.534  10.328  0.00  0.00    +0.000 A 
ATOM     32  C   UNL     1       3.214   4.157  10.399  0.00  0.00    +0.000 A 
ATOM     33  C   UNL     1       2.885   3.429   9.272  0.00  0.00    +0.004 A 
ENDBRANCH  14  28
TORSDOF 3
