REMARK  Name = ZINC04990872
REMARK  5 active torsions:
REMARK  status: ('A' for Active; 'I' for Inactive)
REMARK    1  A    between atoms: C_1  and  C_2
REMARK    2  A    between atoms: C_3  and  C_19
REMARK    3  A    between atoms: C_4  and  C_10
REMARK    4  A    between atoms: C_13  and  N_16
REMARK    5  A    between atoms: N_21  and  C_22
REMARK                            x       y       z     vdW  Elec       q    Type
REMARK                         _______ _______ _______ _____ _____    ______ ____
ROOT
ATOM      1  C   UNL     1       5.246  -4.308   0.107  0.00  0.00    +0.061 C 
ATOM      2  C   UNL     1       3.909  -5.001   0.062  0.00  0.00    +0.017 C 
ATOM      3  C   UNL     1       2.781  -4.263  -0.012  0.00  0.00    +0.056 C 
ATOM      4  C   UNL     1       1.457  -4.999  -0.048  0.00  0.00    +0.139 C 
ATOM      5  N   UNL     1       1.511  -6.470  -0.011  0.00  0.00    -0.315 N 
ATOM      6  C   UNL     1       2.717  -7.066   0.063  0.00  0.00    +0.135 C 
ATOM      7  S   UNL     1       2.795  -8.776   0.115  0.00  0.00    -0.019 S 
ATOM      8  N   UNL     1       3.857  -6.365   0.098  0.00  0.00    -0.300 N 
ATOM      9  H   UNL     1       0.697  -6.997  -0.035  0.00  0.00    +0.149 HD
ATOM     10  H   UNL     1       4.694  -6.853   0.151  0.00  0.00    +0.154 HD
ENDROOT
BRANCH   4  11
ATOM     11  C   UNL     1       0.736  -4.597  -1.309  0.00  0.00    -0.023 A 
ATOM     12  C   UNL     1       1.099  -5.155  -2.521  0.00  0.00    +0.008 A 
ATOM     13  C   UNL     1       0.435  -4.790  -3.677  0.00  0.00    +0.033 A 
ATOM     14  C   UNL     1      -0.585  -3.859  -3.623  0.00  0.00    +0.126 A 
ATOM     15  C   UNL     1      -0.945  -3.297  -2.412  0.00  0.00    +0.033 A 
ATOM     16  C   UNL     1      -0.284  -3.666  -1.256  0.00  0.00    +0.008 A 
BRANCH  14  17
ATOM     17  N   UNL     1      -1.293  -3.464  -4.862  0.00  0.00    +0.056 N 
ATOM     18  O   UNL     1      -2.192  -2.644  -4.814  0.00  0.00    -0.126 OA
ATOM     19  O   UNL     1      -0.976  -3.959  -5.928  0.00  0.00    -0.126 OA
ENDBRANCH  14  17
ENDBRANCH   4  11
BRANCH   3  20
ATOM     20  C   UNL     1       2.833  -2.848  -0.049  0.00  0.00    +0.248 C 
ATOM     21  O   UNL     1       2.537  -2.202   0.940  0.00  0.00    -0.270 OA
ATOM     22  N   UNL     1       3.210  -2.216  -1.178  0.00  0.00    -0.279 N 
ATOM     23  H   UNL     1       3.350  -2.723  -1.993  0.00  0.00    +0.155 HD
BRANCH  22  24
ATOM     24  C   UNL     1       3.401  -0.830  -1.174  0.00  0.00    +0.069 A 
ATOM     25  C   UNL     1       2.656  -0.027  -0.320  0.00  0.00    +0.026 A 
ATOM     26  C   UNL     1       2.847   1.341  -0.318  0.00  0.00    +0.002 A 
ATOM     27  C   UNL     1       3.778   1.913  -1.165  0.00  0.00    +0.003 A 
ATOM     28  C   UNL     1       4.522   1.118  -2.018  0.00  0.00    +0.040 A 
ATOM     29  C   UNL     1       4.337  -0.252  -2.025  0.00  0.00    +0.144 A 
ATOM     30  F   UNL     1       5.063  -1.029  -2.859  0.00  0.00    -0.204 F 
ENDBRANCH  22  24
ENDBRANCH   3  20
TORSDOF 4
