REMARK  Name = ZINC65003502
REMARK  9 active torsions:
REMARK  status: ('A' for Active; 'I' for Inactive)
REMARK    1  A    between atoms: C_1  and  C_2
REMARK    2  A    between atoms: C_4  and  C_33
REMARK    3  A    between atoms: C_5  and  S_9
REMARK    4  A    between atoms: C_6  and  C_8
REMARK    5  A    between atoms: S_9  and  N_12
REMARK    6  A    between atoms: N_12  and  C_13
REMARK    7  A    between atoms: C_13  and  C_14
REMARK    8  A    between atoms: C_21  and  C_24
REMARK    9  A    between atoms: C_25  and  C_27
REMARK                            x       y       z     vdW  Elec       q    Type
REMARK                         _______ _______ _______ _____ _____    ______ ____
ROOT
ATOM      1  C   UNL     1       2.649  -6.920   1.471  0.00  0.00    -0.030 A 
ATOM      2  C   UNL     1       1.749  -7.879   1.898  0.00  0.00    +0.005 A 
ATOM      3  C   UNL     1       2.130  -9.207   1.946  0.00  0.00    +0.006 A 
ATOM      4  C   UNL     1       3.406  -9.577   1.567  0.00  0.00    -0.024 A 
ATOM      5  C   UNL     1       4.316  -8.624   1.138  0.00  0.00    +0.040 A 
ATOM      6  C   UNL     1       3.922  -7.285   1.087  0.00  0.00    +0.028 A 
ATOM      7  N   UNL     1       5.545  -9.199   0.802  0.00  0.00    -0.264 N 
ATOM      8  C   UNL     1       5.495 -10.648   1.010  0.00  0.00    +0.083 C 
ATOM      9  C   UNL     1       4.074 -10.933   1.522  0.00  0.00    +0.059 C 
ATOM     10  C   UNL     1       5.742 -11.382  -0.310  0.00  0.00    +0.029 C 
ATOM     11  C   UNL     1       6.619  -8.519   0.354  0.00  0.00    +0.251 C 
ATOM     12  O   UNL     1       6.547  -7.319   0.174  0.00  0.00    -0.270 OA
ENDROOT
BRANCH  11  13
ATOM     13  C   UNL     1       7.884  -9.233   0.080  0.00  0.00    +0.037 A 
ATOM     14  C   UNL     1       8.005 -10.588   0.392  0.00  0.00    +0.013 A 
ATOM     15  C   UNL     1       9.189 -11.249   0.135  0.00  0.00    +0.001 A 
ATOM     16  C   UNL     1      10.254 -10.571  -0.432  0.00  0.00    +0.000 A 
ATOM     17  C   UNL     1      10.140  -9.227  -0.743  0.00  0.00    +0.001 A 
ATOM     18  C   UNL     1       8.960  -8.557  -0.496  0.00  0.00    +0.013 A 
ENDBRANCH  11  13
BRANCH   1  19
ATOM     19  C   UNL     1       2.236  -5.472   1.419  0.00  0.00    +0.141 C 
BRANCH  19  20
ATOM     20  N   UNL     1       1.661  -5.175   0.105  0.00  0.00    -0.186 NA
ATOM     21  H   UNL     1       1.791  -5.792  -0.632  0.00  0.00    +0.148 HD
BRANCH  20  22
ATOM     22  S   UNL     1       0.788  -3.786  -0.122  0.00  0.00    +0.059 S 
ATOM     23  O   UNL     1      -0.151  -3.718   0.942  0.00  0.00    -0.153 OA
ATOM     24  O   UNL     1       0.394  -3.773  -1.488  0.00  0.00    -0.153 OA
BRANCH  22  29
ATOM     25  C   UNL     1       4.583   0.845   0.623  0.00  0.00    +0.044 C 
ATOM     26  C   UNL     1       3.635  -0.312   0.436  0.00  0.00    -0.050 A 
ATOM     27  C   UNL     1       2.889  -0.773   1.505  0.00  0.00    +0.008 A 
ATOM     28  C   UNL     1       2.019  -1.834   1.334  0.00  0.00    -0.024 A 
ATOM     29  C   UNL     1       1.895  -2.433   0.095  0.00  0.00    +0.111 A 
ATOM     30  C   UNL     1       2.641  -1.972  -0.974  0.00  0.00    -0.024 A 
ATOM     31  C   UNL     1       3.507  -0.908  -0.804  0.00  0.00    +0.008 A 
ATOM     32  C   UNL     1       2.506  -2.626  -2.325  0.00  0.00    +0.046 C 
ATOM     33  C   UNL     1       1.206  -2.337   2.499  0.00  0.00    +0.046 C 
ENDBRANCH  22  29
ENDBRANCH  20  22
ENDBRANCH  19  20
ENDBRANCH   1  19
TORSDOF 5
