REMARK  Name = ZINC37058993
REMARK  7 active torsions:
REMARK  status: ('A' for Active; 'I' for Inactive)
REMARK    1  A    between atoms: C_1  and  C_2
REMARK    2  A    between atoms: C_2  and  C_3
REMARK    3  A    between atoms: C_3  and  C_5
REMARK    4  A    between atoms: C_3  and  N_13
REMARK    5  A    between atoms: C_10  and  O_11
REMARK    6  A    between atoms: N_13  and  C_14
REMARK    7  A    between atoms: C_19  and  N_20
REMARK                            x       y       z     vdW  Elec       q    Type
REMARK                         _______ _______ _______ _____ _____    ______ ____
ROOT
ATOM      1  C   UNL     1       0.479  -0.556  -1.505  0.00  0.00    +0.104 C 
ENDROOT
BRANCH   1   2
ATOM      2  C   UNL     1       0.942  -1.974  -1.725  0.00  0.00    +0.015 A 
ATOM      3  C   UNL     1       0.187  -2.835  -2.497  0.00  0.00    +0.024 A 
ATOM      4  C   UNL     1       0.612  -4.136  -2.700  0.00  0.00    +0.018 A 
ATOM      5  C   UNL     1       1.794  -4.577  -2.131  0.00  0.00    +0.019 A 
ATOM      6  C   UNL     1       2.552  -3.718  -1.359  0.00  0.00    +0.047 A 
ATOM      7  C   UNL     1       2.130  -2.412  -1.159  0.00  0.00    +0.122 A 
ATOM      8 BR   UNL     1      -0.424  -5.314  -3.756  0.00  0.00    -0.050 Br
BRANCH   7   9
ATOM      9  O   UNL     1       2.877  -1.564  -0.403  0.00  0.00    -0.506 OA
ATOM     10  H   UNL     1       2.654  -1.575   0.538  0.00  0.00    +0.292 HD
ENDBRANCH   7   9
ENDBRANCH   1   2
BRANCH   1  12
ATOM     11  C   UNL     1      -0.666   0.984   0.095  0.00  0.00    +0.006 C 
ATOM     12  C   UNL     1      -0.303  -0.474  -0.192  0.00  0.00    +0.024 C 
ENDBRANCH   1  12
BRANCH   1  13
ATOM     13  N   UNL     1      -0.385  -0.147  -2.614  0.00  0.00    -0.335 N 
ATOM     14  H   UNL     1      -1.170  -0.671  -2.837  0.00  0.00    +0.147 HD
BRANCH  13  15
ATOM     15  C   UNL     1      -0.079   0.999  -3.352  0.00  0.00    +0.058 A 
ATOM     16  C   UNL     1       0.981   1.811  -2.968  0.00  0.00    +0.025 A 
ATOM     17  C   UNL     1       1.281   2.943  -3.700  0.00  0.00    +0.002 A 
ATOM     18  C   UNL     1       0.529   3.268  -4.815  0.00  0.00    +0.002 A 
ATOM     19  C   UNL     1      -0.526   2.461  -5.199  0.00  0.00    +0.034 A 
ATOM     20  C   UNL     1      -0.829   1.325  -4.475  0.00  0.00    +0.147 A 
BRANCH  20  21
ATOM     21  N   UNL     1      -1.954   0.459  -4.891  0.00  0.00    +0.058 N 
ATOM     22  O   UNL     1      -1.861  -0.742  -4.793  0.00  0.00    -0.126 OA
ATOM     23  O   UNL     1      -2.967   0.953  -5.329  0.00  0.00    -0.126 OA
ENDBRANCH  20  21
ENDBRANCH  13  15
ENDBRANCH   1  13
TORSDOF 6
