REMARK  Name = ZINC39560192
REMARK  13 active torsions:
REMARK  status: ('A' for Active; 'I' for Inactive)
REMARK    1  A    between atoms: C_1  and  C_2
REMARK    2  A    between atoms: C_2  and  C_18
REMARK    3  A    between atoms: C_3  and  C_4
REMARK    4  A    between atoms: C_4  and  C_5
REMARK    5  A    between atoms: C_6  and  O_17
REMARK    6  A    between atoms: C_14  and  O_16
REMARK    7  A    between atoms: C_18  and  O_19
REMARK    8  A    between atoms: O_19  and  C_20
REMARK    9  A    between atoms: C_22  and  O_35
REMARK   10  A    between atoms: C_24  and  O_34
REMARK   11  A    between atoms: C_26  and  O_33
REMARK   12  A    between atoms: C_28  and  C_31
REMARK   13  A    between atoms: C_31  and  O_32
REMARK                            x       y       z     vdW  Elec       q    Type
REMARK                         _______ _______ _______ _____ _____    ______ ____
ROOT
ATOM      1  C   UNL     1      -0.168   1.491   0.017  0.00  0.00    +0.041 C 
ATOM      2  C   UNL     1      -0.070  -0.013   0.007  0.00  0.00    -0.051 C 
ATOM      3  C   UNL     1       0.121  -0.664   1.128  0.00  0.00    -0.021 C 
ENDROOT
BRANCH   3   4
ATOM      4  C   UNL     1       0.123   0.078   2.439  0.00  0.00    +0.069 C 
BRANCH   4   5
ATOM      5  C   UNL     1      -0.864  -0.562   3.381  0.00  0.00    +0.041 A 
ATOM      6  C   UNL     1      -2.182  -0.135   3.401  0.00  0.00    +0.124 A 
ATOM      7  C   UNL     1      -3.102  -0.721   4.268  0.00  0.00    +0.046 A 
ATOM      8  C   UNL     1      -2.717  -1.724   5.110  0.00  0.00    +0.015 A 
ATOM      9  C   UNL     1      -1.390  -2.168   5.102  0.00  0.00    +0.022 A 
ATOM     10  C   UNL     1      -0.457  -1.585   4.225  0.00  0.00    +0.146 A 
ATOM     11  O   UNL     1       0.822  -2.018   4.215  0.00  0.00    -0.419 OA
ATOM     12  C   UNL     1       1.234  -3.006   5.024  0.00  0.00    +0.379 A 
ATOM     13  O   UNL     1       2.397  -3.363   4.980  0.00  0.00    -0.241 OA
ATOM     14  C   UNL     1       0.349  -3.643   5.928  0.00  0.00    +0.203 A 
ATOM     15  C   UNL     1      -0.950  -3.243   5.995  0.00  0.00    +0.064 A 
BRANCH  14  16
ATOM     16  O   UNL     1       0.799  -4.641   6.734  0.00  0.00    -0.501 OA
ATOM     17  H   UNL     1       1.737  -4.847   6.620  0.00  0.00    +0.292 HD
ENDBRANCH  14  16
BRANCH   6  18
ATOM     18  O   UNL     1      -2.580   0.863   2.571  0.00  0.00    -0.506 OA
ATOM     19  H   UNL     1      -2.898   0.555   1.711  0.00  0.00    +0.292 HD
ENDBRANCH   6  18
ENDBRANCH   4   5
ENDBRANCH   3   4
BRANCH   2  20
ATOM     20  C   UNL     1      -0.190  -0.767  -1.292  0.00  0.00    +0.193 C 
BRANCH  20  21
ATOM     21  O   UNL     1      -0.064  -2.168  -1.042  0.00  0.00    -0.344 OA
BRANCH  21  22
ATOM     22  C   UNL     1      -0.164  -2.979  -2.215  0.00  0.00    +0.282 C 
ATOM     23  C   UNL     1       0.108  -4.441  -1.849  0.00  0.00    +0.201 C 
ATOM     24  C   UNL     1      -0.961  -4.919  -0.861  0.00  0.00    +0.179 C 
ATOM     25  C   UNL     1      -2.344  -4.724  -1.489  0.00  0.00    +0.177 C 
ATOM     26  C   UNL     1      -2.521  -3.251  -1.868  0.00  0.00    +0.178 C 
ATOM     27  O   UNL     1      -1.478  -2.863  -2.764  0.00  0.00    -0.341 OA
BRANCH  25  28
ATOM     28  O   UNL     1      -2.457  -5.537  -2.659  0.00  0.00    -0.386 OA
ATOM     29  H   UNL     1      -2.351  -6.483  -2.492  0.00  0.00    +0.210 HD
ENDBRANCH  25  28
BRANCH  24  30
ATOM     30  O   UNL     1      -0.757  -6.303  -0.570  0.00  0.00    -0.386 OA
ATOM     31  H   UNL     1       0.104  -6.499  -0.175  0.00  0.00    +0.210 HD
ENDBRANCH  24  30
BRANCH  23  32
ATOM     32  O   UNL     1       0.062  -5.245  -3.030  0.00  0.00    -0.384 OA
ATOM     33  H   UNL     1       0.711  -4.994  -3.702  0.00  0.00    +0.210 HD
ENDBRANCH  23  32
BRANCH  26  34
ATOM     34  C   UNL     1      -3.877  -3.059  -2.550  0.00  0.00    +0.190 C 
BRANCH  34  35
ATOM     35  O   UNL     1      -4.092  -1.669  -2.799  0.00  0.00    -0.392 OA
ATOM     36  H   UNL     1      -4.935  -1.472  -3.230  0.00  0.00    +0.210 HD
ENDBRANCH  34  35
ENDBRANCH  26  34
ENDBRANCH  21  22
ENDBRANCH  20  21
ENDBRANCH   2  20
TORSDOF 12
