REMARK  Name = ZINC09088996
REMARK  6 active torsions:
REMARK  status: ('A' for Active; 'I' for Inactive)
REMARK    1  A    between atoms: C_6  and  C_7
REMARK    2  A    between atoms: C_9  and  C_31
REMARK    3  A    between atoms: C_10  and  S_19
REMARK    4  A    between atoms: S_19  and  C_20
REMARK    5  A    between atoms: C_20  and  C_21
REMARK    6  A    between atoms: N_23  and  C_24
REMARK                            x       y       z     vdW  Elec       q    Type
REMARK                         _______ _______ _______ _____ _____    ______ ____
ROOT
ATOM      1  C   UNL     1      -0.067   6.022   0.033  0.00  0.00    +0.078 C 
ATOM      2  C   UNL     1      -0.740   6.491   1.288  0.00  0.00    +0.069 C 
ATOM      3  C   UNL     1      -1.873   7.269   1.251  0.00  0.00    +0.111 C 
ATOM      4  N   UNL     1      -2.432   7.647   0.097  0.00  0.00    -0.248 NA
ATOM      5  C   UNL     1      -1.946   7.310  -1.075  0.00  0.00    +0.031 C 
ATOM      6  C   UNL     1      -0.792   6.521  -1.191  0.00  0.00    +0.112 C 
ATOM      7  C   UNL     1      -0.295   6.186  -2.402  0.00  0.00    +0.143 C 
ATOM      8  C   UNL     1      -0.947   6.633  -3.680  0.00  0.00    +0.075 C 
ATOM      9  C   UNL     1      -1.655   7.971  -3.447  0.00  0.00    +0.013 C 
ATOM     10  C   UNL     1      -2.666   7.794  -2.312  0.00  0.00    +0.052 C 
ATOM     11  O   UNL     1       0.818   5.427  -2.466  0.00  0.00    -0.297 OA
ENDROOT
BRANCH   1  17
ATOM     12  C   UNL     1       1.160   3.841   0.002  0.00  0.00    +0.006 A 
ATOM     13  C   UNL     1       1.180   2.459  -0.014  0.00  0.00    +0.020 A 
ATOM     14  C   UNL     1      -0.009   1.751  -0.016  0.00  0.00    +0.041 A 
ATOM     15  C   UNL     1      -1.216   2.426  -0.007  0.00  0.00    +0.020 A 
ATOM     16  C   UNL     1      -1.234   3.808   0.014  0.00  0.00    +0.006 A 
ATOM     17  C   UNL     1      -0.046   4.515   0.016  0.00  0.00    -0.038 A 
ATOM     18 CL   UNL     1       0.015   0.015  -0.036  0.00  0.00    -0.084 Cl
ENDBRANCH   1  17
BRANCH   2  19
ATOM     19  C   UNL     1      -0.191   6.117   2.557  0.00  0.00    +0.098 C 
ATOM     20  N   UNL     1       0.245   5.821   3.563  0.00  0.00    -0.191 NA
ENDBRANCH   2  19
BRANCH   3  21
ATOM     21  S   UNL     1      -2.609   7.784   2.768  0.00  0.00    -0.096 S 
BRANCH  21  22
ATOM     22  C   UNL     1      -4.006   8.742   2.130  0.00  0.00    +0.172 C 
BRANCH  22  23
ATOM     23  C   UNL     1      -4.803   9.296   3.283  0.00  0.00    +0.227 C 
ATOM     24  O   UNL     1      -4.460   9.066   4.423  0.00  0.00    -0.275 OA
ATOM     25  N   UNL     1      -5.896  10.047   3.047  0.00  0.00    -0.285 N 
ATOM     26  H   UNL     1      -6.133  10.287   2.137  0.00  0.00    +0.155 HD
BRANCH  25  27
ATOM     27  C   UNL     1      -6.691  10.481   4.114  0.00  0.00    +0.034 A 
ATOM     28  C   UNL     1      -8.067  10.586   3.959  0.00  0.00    +0.026 A 
ATOM     29  C   UNL     1      -8.851  11.008   5.016  0.00  0.00    +0.040 A 
ATOM     30  C   UNL     1      -8.263  11.339   6.225  0.00  0.00    +0.124 A 
ATOM     31  C   UNL     1      -6.891  11.241   6.380  0.00  0.00    +0.040 A 
ATOM     32  C   UNL     1      -6.105  10.813   5.328  0.00  0.00    +0.026 A 
ATOM     33  F   UNL     1      -9.030  11.757   7.255  0.00  0.00    -0.205 F 
ENDBRANCH  25  27
ENDBRANCH  22  23
ENDBRANCH  21  22
ENDBRANCH   3  21
TORSDOF 6
