REMARK  Name = ZINC12484168
REMARK  6 active torsions:
REMARK  status: ('A' for Active; 'I' for Inactive)
REMARK    1  A    between atoms: C_4  and  N_7
REMARK    2  A    between atoms: N_10  and  C_13
REMARK    3  A    between atoms: C_15  and  O_34
REMARK    4  A    between atoms: C_17  and  N_26
REMARK    5  A    between atoms: N_26  and  C_27
REMARK    6  A    between atoms: C_27  and  C_28
REMARK                            x       y       z     vdW  Elec       q    Type
REMARK                         _______ _______ _______ _____ _____    ______ ____
ROOT
ATOM      1  C   UNL     1      -1.844   1.895   3.956  0.00  0.00    +0.140 C 
ATOM      2  C   UNL     1      -0.340   2.029   3.598  0.00  0.00    +0.125 C 
ATOM      3  C   UNL     1      -0.016   1.091   2.429  0.00  0.00    -0.009 C 
ATOM      4  C   UNL     1      -0.507  -0.322   2.786  0.00  0.00    +0.136 C 
ATOM      5  C   UNL     1      -0.057  -0.625   4.234  0.00  0.00    +0.193 C 
ATOM      6  O   UNL     1      -1.169  -0.157   5.054  0.00  0.00    -0.347 OA
ATOM      7  C   UNL     1      -2.149   0.403   4.160  0.00  0.00    +0.270 C 
ATOM      8  O   UNL     1      -1.951  -0.259   2.891  0.00  0.00    -0.346 OA
ENDROOT
BRANCH   1  12
ATOM      9  N   UNL     1      -4.625   4.172   1.736  0.00  0.00    -0.327 N 
ATOM     10  C   UNL     1      -4.954   2.768   2.018  0.00  0.00    +0.120 C 
ATOM     11  C   UNL     1      -4.113   2.278   3.199  0.00  0.00    +0.104 C 
ATOM     12  N   UNL     1      -2.687   2.426   2.876  0.00  0.00    -0.290 NA
ATOM     13  C   UNL     1      -2.357   3.830   2.593  0.00  0.00    +0.104 C 
ATOM     14  C   UNL     1      -3.199   4.321   1.413  0.00  0.00    +0.120 C 
BRANCH   9  18
ATOM     15  C   UNL     1      -7.012   5.678  -1.326  0.00  0.00    +0.000 A 
ATOM     16  C   UNL     1      -6.065   6.488  -0.727  0.00  0.00    +0.002 A 
ATOM     17  C   UNL     1      -5.272   5.992   0.288  0.00  0.00    +0.023 A 
ATOM     18  C   UNL     1      -5.426   4.677   0.709  0.00  0.00    +0.030 A 
ATOM     19  C   UNL     1      -6.375   3.864   0.102  0.00  0.00    +0.023 A 
ATOM     20  C   UNL     1      -7.168   4.368  -0.910  0.00  0.00    +0.002 A 
ENDBRANCH   9  18
ENDBRANCH   1  12
BRANCH   3  21
ATOM     21  N   UNL     1      -0.700   1.560   1.217  0.00  0.00    +0.385 N 
ATOM     22  H   UNL     1      -1.732   1.179   1.208  0.00  0.00    -0.085 HD
ATOM     23  H   UNL     1      -0.715   2.659   1.206  0.00  0.00    -0.085 HD
BRANCH  21  24
ATOM     24  C   UNL     1      -0.013   1.086   0.008  0.00  0.00    -0.079 C 
BRANCH  24  25
ATOM     25  C   UNL     1      -0.753   1.593  -1.232  0.00  0.00    -0.028 C 
ATOM     26  C   UNL     1      -2.147   0.964  -1.286  0.00  0.00    +0.002 C 
ATOM     27  C   UNL     1      -2.886   1.471  -2.526  0.00  0.00    +0.000 C 
ATOM     28  C   UNL     1      -2.103   1.083  -3.781  0.00  0.00    +0.000 C 
ATOM     29  C   UNL     1      -0.709   1.712  -3.727  0.00  0.00    +0.000 C 
ATOM     30  C   UNL     1       0.031   1.205  -2.487  0.00  0.00    +0.002 C 
ENDBRANCH  24  25
ENDBRANCH  21  24
ENDBRANCH   3  21
BRANCH   2  31
ATOM     31  O   UNL     1       0.462   1.678   4.727  0.00  0.00    -0.392 OA
ATOM     32  H   UNL     1       1.559   1.715   4.655  0.00  0.00    +0.210 HD
ENDBRANCH   2  31
TORSDOF 6
