REMARK  Name = ZINC09828866
REMARK  10 active torsions:
REMARK  status: ('A' for Active; 'I' for Inactive)
REMARK    1  A    between atoms: C_4  and  N_7
REMARK    2  A    between atoms: C_12  and  C_14
REMARK    3  A    between atoms: C_12  and  C_30
REMARK    4  A    between atoms: C_12  and  N_67
REMARK    5  A    between atoms: C_14  and  N_15
REMARK    6  A    between atoms: C_16  and  C_18
REMARK    7  A    between atoms: N_20  and  C_21
REMARK    8  A    between atoms: C_21  and  C_22
REMARK    9  A    between atoms: C_22  and  C_23
REMARK   10  A    between atoms: C_23  and  N_24
REMARK                            x       y       z     vdW  Elec       q    Type
REMARK                         _______ _______ _______ _____ _____    ______ ____
ROOT
ATOM      1  C   UNL     1       0.004  -0.004   0.003  0.00  0.00    +0.017 C 
ENDROOT
BRANCH   1   7
ATOM      2  N   UNL     1       2.473  -2.393   2.461  0.00  0.00    -0.333 N 
ATOM      3  C   UNL     1       2.006  -1.107   2.997  0.00  0.00    +0.086 C 
ATOM      4  C   UNL     1       0.781  -0.642   2.206  0.00  0.00    -0.059 C 
ATOM      5  C   UNL     1       1.601  -1.807   0.250  0.00  0.00    -0.059 C 
ATOM      6  C   UNL     1       2.827  -2.272   1.040  0.00  0.00    +0.086 C 
ATOM      7  N   UNL     1       1.156  -0.503   0.783  0.00  0.00    +0.389 N 
ATOM      8  H   UNL     1       1.928   0.170   0.706  0.00  0.00    -0.081 HD
BRANCH   2  12
ATOM      9  C   UNL     1       5.680  -3.857   4.677  0.00  0.00    +0.000 A 
ATOM     10  C   UNL     1       5.202  -4.576   3.598  0.00  0.00    +0.002 A 
ATOM     11  C   UNL     1       4.138  -4.094   2.861  0.00  0.00    +0.023 A 
ATOM     12  C   UNL     1       3.549  -2.884   3.205  0.00  0.00    +0.030 A 
ATOM     13  C   UNL     1       4.035  -2.161   4.287  0.00  0.00    +0.023 A 
ATOM     14  C   UNL     1       5.095  -2.652   5.023  0.00  0.00    +0.002 A 
ENDBRANCH   2  12
ENDBRANCH   1   7
BRANCH   1  15
ATOM     15  C   UNL     1      -1.142  -0.981   0.071  0.00  0.00    +0.093 A 
ATOM     16  C   UNL     1      -1.847  -1.441  -0.978  0.00  0.00    +0.043 A 
ATOM     17  C   UNL     1      -2.817  -2.331  -0.462  0.00  0.00    +0.041 A 
ATOM     18  C   UNL     1      -2.651  -2.356   0.873  0.00  0.00    +0.195 A 
ATOM     19  O   UNL     1      -1.636  -1.536   1.190  0.00  0.00    -0.469 OA
ENDBRANCH   1  15
BRANCH   1  20
ATOM     20  C   UNL     1      -0.440   1.343   0.577  0.00  0.00    +0.097 C 
BRANCH  20  21
ATOM     21  N   UNL     1       0.687   2.278   0.556  0.00  0.00    -0.309 N 
ATOM     22  C   UNL     1       0.559   3.500   1.109  0.00  0.00    +0.299 C 
ATOM     23  O   UNL     1      -0.490   3.826   1.624  0.00  0.00    -0.265 OA
ATOM     24  H   UNL     1       1.526   2.017   0.144  0.00  0.00    +0.149 HD
BRANCH  22  25
ATOM     25  C   UNL     1       1.709   4.454   1.087  0.00  0.00    +0.299 C 
ATOM     26  O   UNL     1       2.759   4.128   0.572  0.00  0.00    -0.265 OA
ATOM     27  N   UNL     1       1.581   5.677   1.640  0.00  0.00    -0.308 N 
ATOM     28  H   UNL     1       0.743   5.938   2.052  0.00  0.00    +0.149 HD
BRANCH  27  29
ATOM     29  C   UNL     1       2.709   6.612   1.619  0.00  0.00    +0.106 C 
BRANCH  29  30
ATOM     30  C   UNL     1       2.302   7.917   2.307  0.00  0.00    +0.038 C 
BRANCH  30  31
ATOM     31  C   UNL     1       3.480   8.893   2.284  0.00  0.00    +0.109 C 
BRANCH  31  32
ATOM     32  N   UNL     1       3.090  10.143   2.943  0.00  0.00    -0.301 N 
ATOM     33  C   UNL     1       2.491  11.291   2.253  0.00  0.00    +0.108 C 
ATOM     34  C   UNL     1       1.862  12.157   3.369  0.00  0.00    +0.028 C 
ATOM     35  C   UNL     1       2.724  11.768   4.591  0.00  0.00    +0.097 C 
ATOM     36  C   UNL     1       3.242  10.387   4.256  0.00  0.00    +0.216 C 
ATOM     37  O   UNL     1       3.723   9.612   5.056  0.00  0.00    -0.276 OA
ENDBRANCH  31  32
ENDBRANCH  30  31
ENDBRANCH  29  30
ENDBRANCH  27  29
ENDBRANCH  22  25
ENDBRANCH  20  21
ENDBRANCH   1  20
TORSDOF 10
