REMARK  Name = ZINC15239210
REMARK  10 active torsions:
REMARK  status: ('A' for Active; 'I' for Inactive)
REMARK    1  A    between atoms: C_1  and  C_2
REMARK    2  A    between atoms: C_2  and  C_3
REMARK    3  A    between atoms: C_2  and  C_4
REMARK    4  A    between atoms: C_2  and  C_5
REMARK    5  A    between atoms: C_8  and  O_11
REMARK    6  A    between atoms: O_11  and  C_12
REMARK    7  A    between atoms: C_12  and  C_13
REMARK    8  A    between atoms: C_13  and  C_15
REMARK    9  A    between atoms: C_13  and  O_32
REMARK   10  A    between atoms: C_15  and  N_16
REMARK                            x       y       z     vdW  Elec       q    Type
REMARK                         _______ _______ _______ _____ _____    ______ ____
ROOT
ATOM      1  N   UNL     1       6.556  -2.248  -7.476  0.00  0.00    -0.221 N 
ATOM      2  C   UNL     1       7.068  -3.490  -7.594  0.00  0.00    +0.251 C 
ATOM      3  O   UNL     1       7.182  -4.324  -6.721  0.00  0.00    -0.272 OA
ATOM      4  C   UNL     1       7.471  -3.625  -9.045  0.00  0.00    +0.144 C 
ATOM      5  C   UNL     1       8.973  -3.865  -9.159  0.00  0.00    +0.081 C 
ATOM      6  C   UNL     1       9.291  -4.262 -10.607  0.00  0.00    +0.232 C 
ATOM      7  O   UNL     1       8.637  -5.499 -10.891  0.00  0.00    -0.492 OA
ATOM      8  C   UNL     1       7.318  -5.609 -10.585  0.00  0.00    +0.126 A 
ATOM      9  C   UNL     1       6.703  -4.737  -9.700  0.00  0.00    +0.027 A 
ATOM     10  C   UNL     1       5.357  -4.888  -9.412  0.00  0.00    +0.010 A 
ATOM     11  C   UNL     1       4.625  -5.900 -10.003  0.00  0.00    +0.001 A 
ATOM     12  C   UNL     1       5.236  -6.769 -10.887  0.00  0.00    +0.004 A 
ATOM     13  C   UNL     1       6.578  -6.625 -11.178  0.00  0.00    +0.046 A 
ATOM     14  N   UNL     1       7.110  -2.331  -9.637  0.00  0.00    -0.281 N 
ATOM     15  C   UNL     1       6.577  -1.593  -8.644  0.00  0.00    +0.310 C 
ATOM     16  O   UNL     1       6.163  -0.460  -8.791  0.00  0.00    -0.252 OA
ATOM     17  H   UNL     1       7.229  -2.061 -10.561  0.00  0.00    +0.152 HD
ENDROOT
BRANCH   1  18
ATOM     18  C   UNL     1       6.035  -1.687  -6.227  0.00  0.00    +0.152 C 
BRANCH  18  19
ATOM     19  C   UNL     1       4.544  -2.009  -6.106  0.00  0.00    +0.170 C 
BRANCH  19  20
ATOM     20  O   UNL     1       3.843  -1.439  -7.213  0.00  0.00    -0.387 OA
ATOM     21  H   UNL     1       3.923  -0.477  -7.277  0.00  0.00    +0.210 HD
ENDBRANCH  19  20
BRANCH  19  22
ATOM     22  C   UNL     1       4.000  -1.423  -4.801  0.00  0.00    +0.261 C 
BRANCH  22  23
ATOM     23  O   UNL     1       2.639  -1.822  -4.631  0.00  0.00    -0.489 OA
BRANCH  23  27
ATOM     24  C   UNL     1       0.707  -0.490  -1.238  0.00  0.00    -0.042 A 
ATOM     25  C   UNL     1       0.035  -1.284  -2.148  0.00  0.00    +0.008 A 
ATOM     26  C   UNL     1       0.679  -1.732  -3.285  0.00  0.00    +0.046 A 
ATOM     27  C   UNL     1       2.002  -1.383  -3.514  0.00  0.00    +0.121 A 
ATOM     28  C   UNL     1       2.675  -0.585  -2.599  0.00  0.00    +0.046 A 
ATOM     29  C   UNL     1       2.024  -0.136  -1.466  0.00  0.00    +0.008 A 
BRANCH  24  31
ATOM     30  C   UNL     1      -0.019   1.526   0.010  0.00  0.00    +0.015 C 
ATOM     31  C   UNL     1       0.002  -0.004   0.002  0.00  0.00    -0.013 C 
ATOM     32  C   UNL     1       0.742  -0.511   1.242  0.00  0.00    +0.015 C 
ATOM     33  C   UNL     1      -1.433  -0.534   0.013  0.00  0.00    +0.015 C 
ENDBRANCH  24  31
ENDBRANCH  23  27
ENDBRANCH  22  23
ENDBRANCH  19  22
ENDBRANCH  18  19
ENDBRANCH   1  18
TORSDOF 7
