REMARK  Name = ZINC21730915
REMARK  7 active torsions:
REMARK  status: ('A' for Active; 'I' for Inactive)
REMARK    1  A    between atoms: C_1  and  C_2
REMARK    2  A    between atoms: C_5  and  C_8
REMARK    3  A    between atoms: C_10  and  S_13
REMARK    4  A    between atoms: S_13  and  C_14
REMARK    5  A    between atoms: C_14  and  C_16
REMARK    6  A    between atoms: C_14  and  C_17
REMARK    7  A    between atoms: N_19  and  C_20
REMARK                            x       y       z     vdW  Elec       q    Type
REMARK                         _______ _______ _______ _____ _____    ______ ____
ROOT
ATOM      1  C   UNL     1       3.978   2.713  -0.038  0.00  0.00    +0.137 C 
ATOM      2  C   UNL     1       3.418   3.292  -1.339  0.00  0.00    +0.029 C 
ENDROOT
BRANCH   1   3
ATOM      3  C   UNL     1       5.436   3.071   0.085  0.00  0.00    +0.230 C 
ATOM      4  O   UNL     1       6.286   2.290  -0.289  0.00  0.00    -0.274 OA
ATOM      5  N   UNL     1       5.797   4.259   0.610  0.00  0.00    -0.283 N 
ATOM      6  H   UNL     1       5.027   4.997   0.880  0.00  0.00    +0.155 HD
BRANCH   5   7
ATOM      7  C   UNL     1       7.151   4.553   0.810  0.00  0.00    +0.053 A 
ATOM      8  C   UNL     1       8.105   4.081  -0.081  0.00  0.00    +0.046 A 
ATOM      9  C   UNL     1       9.441   4.374   0.120  0.00  0.00    +0.061 A 
ATOM     10  C   UNL     1       9.828   5.138   1.208  0.00  0.00    +0.061 A 
ATOM     11  C   UNL     1       8.879   5.609   2.098  0.00  0.00    +0.043 A 
ATOM     12  C   UNL     1       7.542   5.324   1.899  0.00  0.00    +0.064 A 
ATOM     13 CL   UNL     1       6.351   5.922   3.012  0.00  0.00    -0.082 Cl
ATOM     14 CL   UNL     1      11.507   5.504   1.457  0.00  0.00    -0.082 Cl
ATOM     15 CL   UNL     1      10.634   3.784  -0.994  0.00  0.00    -0.082 Cl
ENDBRANCH   5   7
ENDBRANCH   1   3
BRANCH   1  16
ATOM     16  S   UNL     1       3.797   0.912  -0.053  0.00  0.00    -0.074 S 
BRANCH  16  19
ATOM     17  C   UNL     1      -0.005   0.013  -0.050  0.00  0.00    +0.182 A 
ATOM     18  N   UNL     1       1.314  -0.376  -0.057  0.00  0.00    -0.201 NA
ATOM     19  C   UNL     1       2.040   0.781  -0.049  0.00  0.00    +0.185 A 
ATOM     20  N   UNL     1       1.184   1.778  -0.039  0.00  0.00    -0.253 N 
ATOM     21  N   UNL     1      -0.019   1.326  -0.039  0.00  0.00    -0.152 NA
ATOM     22  H   UNL     1       1.364   2.863  -0.030  0.00  0.00    +0.191 HD
BRANCH  17  27
ATOM     23  C   UNL     1      -4.596  -3.457  -0.068  0.00  0.00    +0.044 C 
ATOM     24  C   UNL     1      -3.393  -2.548  -0.062  0.00  0.00    -0.050 A 
ATOM     25  C   UNL     1      -3.568  -1.175  -0.051  0.00  0.00    +0.004 A 
ATOM     26  C   UNL     1      -2.471  -0.338  -0.046  0.00  0.00    +0.012 A 
ATOM     27  C   UNL     1      -1.185  -0.878  -0.054  0.00  0.00    +0.021 A 
ATOM     28  C   UNL     1      -1.016  -2.263  -0.071  0.00  0.00    +0.012 A 
ATOM     29  C   UNL     1      -2.120  -3.090  -0.070  0.00  0.00    +0.004 A 
ENDBRANCH  17  27
ENDBRANCH  16  19
ENDBRANCH   1  16
TORSDOF 5
