REMARK  Name = ZINC04554105
REMARK  8 active torsions:
REMARK  status: ('A' for Active; 'I' for Inactive)
REMARK    1  A    between atoms: C_1  and  C_2
REMARK    2  A    between atoms: C_2  and  C_3
REMARK    3  A    between atoms: C_2  and  N_50
REMARK    4  A    between atoms: C_11  and  O_26
REMARK    5  A    between atoms: C_13  and  C_16
REMARK    6  A    between atoms: C_19  and  C_22
REMARK    7  A    between atoms: C_22  and  O_24
REMARK    8  A    between atoms: O_24  and  C_25
REMARK                            x       y       z     vdW  Elec       q    Type
REMARK                         _______ _______ _______ _____ _____    ______ ____
ROOT
ATOM      1  C   UNL     1      -1.532   3.558   2.409  0.00  0.00    -0.073 C 
ATOM      2  C   UNL     1      -1.238   5.045   2.625  0.00  0.00    +0.018 C 
ATOM      3  C   UNL     1      -1.423   5.765   1.294  0.00  0.00    -0.027 A 
ATOM      4  C   UNL     1      -1.431   5.058   0.138  0.00  0.00    -0.021 A 
ATOM      5  S   UNL     1      -1.669   6.268  -1.134  0.00  0.00    -0.080 S 
ATOM      6  C   UNL     1      -1.753   7.670  -0.155  0.00  0.00    +0.080 A 
ATOM      7  C   UNL     1      -1.594   7.198   1.155  0.00  0.00    +0.067 A 
ATOM      8  C   UNL     1      -1.636   8.204   2.248  0.00  0.00    +0.220 C 
ATOM      9  N   UNL     1      -1.599   9.465   1.916  0.00  0.00    -0.223 NA
ATOM     10  C   UNL     1      -1.425   9.960   0.556  0.00  0.00    +0.224 C 
ATOM     11  N   UNL     1      -1.935   9.001  -0.441  0.00  0.00    -0.313 N 
ATOM     12  C   UNL     1      -1.271   3.577   0.001  0.00  0.00    -0.035 C 
ATOM     13  H   UNL     1      -2.375   9.294  -1.254  0.00  0.00    +0.149 HD
ATOM     14  N   UNL     1      -0.724   3.058   1.278  0.00  0.00    +0.384 N 
ATOM     15  H   UNL     1       0.242   3.388   1.386  0.00  0.00    -0.081 HD
ENDROOT
BRANCH  10  16
ATOM     16  C   UNL     1       0.042  10.197   0.305  0.00  0.00    -0.005 A 
ATOM     17  C   UNL     1       0.546  10.096  -0.980  0.00  0.00    +0.008 A 
ATOM     18  C   UNL     1       1.886  10.318  -1.218  0.00  0.00    +0.015 A 
ATOM     19  C   UNL     1       2.738  10.633  -0.157  0.00  0.00    +0.059 A 
ATOM     20  C   UNL     1       2.224  10.728   1.138  0.00  0.00    +0.015 A 
ATOM     21  C   UNL     1       0.880  10.510   1.361  0.00  0.00    +0.008 A 
BRANCH  19  22
ATOM     22  C   UNL     1       4.176  10.865  -0.403  0.00  0.00    +0.339 C 
ATOM     23  O   UNL     1       4.914  11.139   0.522  0.00  0.00    -0.245 OA
BRANCH  22  24
ATOM     24  O   UNL     1       4.668  10.773  -1.653  0.00  0.00    -0.464 OA
ATOM     25  C   UNL     1       6.090  11.014  -1.821  0.00  0.00    +0.280 C 
ENDBRANCH  22  24
ENDBRANCH  19  22
ENDBRANCH  10  16
BRANCH  14  27
ATOM     26  C   UNL     1      -0.013   1.086   0.008  0.00  0.00    -0.014 C 
ATOM     27  C   UNL     1      -0.729   1.579   1.267  0.00  0.00    -0.074 C 
ATOM     28  C   UNL     1       0.011   1.072   2.506  0.00  0.00    -0.014 C 
ENDBRANCH  14  27
BRANCH   8  29
ATOM     29  O   UNL     1      -1.710   7.824   3.545  0.00  0.00    -0.492 OA
ATOM     30  H   UNL     1      -1.732   8.562   4.170  0.00  0.00    +0.294 HD
ENDBRANCH   8  29
TORSDOF 5
