REMARK  Name = ZINC38489897
REMARK  11 active torsions:
REMARK  status: ('A' for Active; 'I' for Inactive)
REMARK    1  A    between atoms: C_1  and  C_2
REMARK    2  A    between atoms: C_5  and  N_8
REMARK    3  A    between atoms: C_9  and  C_28
REMARK    4  A    between atoms: C_10  and  C_13
REMARK    5  A    between atoms: N_15  and  C_16
REMARK    6  A    between atoms: C_16  and  C_17
REMARK    7  A    between atoms: C_17  and  C_18
REMARK    8  A    between atoms: C_21  and  S_24
REMARK    9  A    between atoms: S_24  and  N_27
REMARK   10  A    between atoms: C_28  and  S_29
REMARK   11  A    between atoms: S_29  and  C_30
REMARK                            x       y       z     vdW  Elec       q    Type
REMARK                         _______ _______ _______ _____ _____    ______ ____
ROOT
ATOM      1  N   UNL     1       0.059  -4.173  -0.021  0.00  0.00    -0.215 N 
ATOM      2  C   UNL     1       0.692  -4.975   0.863  0.00  0.00    +0.087 A 
ATOM      3  C   UNL     1       0.444  -6.261   0.476  0.00  0.00    +0.171 A 
ATOM      4  N   UNL     1      -0.327  -6.234  -0.624  0.00  0.00    -0.124 NA
ATOM      5  N   UNL     1      -0.580  -5.013  -0.944  0.00  0.00    -0.060 NA
ENDROOT
BRANCH   1  10
ATOM      6  C   UNL     1      -0.018   1.503   0.010  0.00  0.00    +0.044 C 
ATOM      7  C   UNL     1       0.002  -0.004   0.002  0.00  0.00    -0.050 A 
ATOM      8  C   UNL     1       0.006  -0.688  -1.200  0.00  0.00    +0.005 A 
ATOM      9  C   UNL     1       0.025  -2.068  -1.211  0.00  0.00    +0.028 A 
ATOM     10  C   UNL     1       0.041  -2.771  -0.013  0.00  0.00    +0.067 A 
ATOM     11  C   UNL     1       0.037  -2.082   1.192  0.00  0.00    +0.028 A 
ATOM     12  C   UNL     1       0.023  -0.700   1.196  0.00  0.00    +0.005 A 
ENDBRANCH   1  10
BRANCH   3  13
ATOM     13  C   UNL     1       0.939  -7.475   1.152  0.00  0.00    +0.266 C 
ATOM     14  O   UNL     1       1.634  -7.378   2.146  0.00  0.00    -0.268 OA
ATOM     15  N   UNL     1       0.622  -8.693   0.669  0.00  0.00    -0.310 N 
ATOM     16  H   UNL     1       0.068  -8.771  -0.124  0.00  0.00    +0.149 HD
BRANCH  15  17
ATOM     17  C   UNL     1       1.113  -9.898   1.340  0.00  0.00    +0.109 C 
BRANCH  17  18
ATOM     18  C   UNL     1       0.613 -11.137   0.595  0.00  0.00    +0.054 C 
BRANCH  18  19
ATOM     19  C   UNL     1       1.119 -12.377   1.285  0.00  0.00    -0.046 A 
ATOM     20  C   UNL     1       2.333 -12.926   0.919  0.00  0.00    +0.005 A 
ATOM     21  C   UNL     1       2.797 -14.064   1.552  0.00  0.00    +0.029 A 
ATOM     22  C   UNL     1       2.047 -14.653   2.552  0.00  0.00    +0.105 A 
ATOM     23  C   UNL     1       0.832 -14.104   2.920  0.00  0.00    +0.029 A 
ATOM     24  C   UNL     1       0.370 -12.964   2.289  0.00  0.00    +0.005 A 
BRANCH  22  25
ATOM     25  S   UNL     1       2.638 -16.104   3.359  0.00  0.00    +0.056 S 
ATOM     26  O   UNL     1       1.497 -16.771   3.881  0.00  0.00    -0.153 OA
ATOM     27  O   UNL     1       3.541 -16.730   2.458  0.00  0.00    -0.153 OA
BRANCH  25  28
ATOM     28  N   UNL     1       3.534 -15.609   4.661  0.00  0.00    -0.204 NA
ATOM     29  H   UNL     1       3.642 -14.663   4.844  0.00  0.00    +0.144 HD
ATOM     30  H   UNL     1       3.950 -16.266   5.240  0.00  0.00    +0.144 HD
ENDBRANCH  25  28
ENDBRANCH  22  25
ENDBRANCH  18  19
ENDBRANCH  17  18
ENDBRANCH  15  17
ENDBRANCH   3  13
BRANCH   2  31
ATOM     31  C   UNL     1       1.514  -4.535   2.047  0.00  0.00    +0.135 C 
BRANCH  31  32
ATOM     32  S   UNL     1       0.444  -4.382   3.503  0.00  0.00    -0.080 S 
BRANCH  32  33
ATOM     33  C   UNL     1       1.538  -3.868   4.785  0.00  0.00    +0.189 A 
ATOM     34  N   UNL     1       2.822  -3.690   4.507  0.00  0.00    -0.230 NA
ATOM     35  C   UNL     1       3.670  -3.304   5.446  0.00  0.00    +0.115 A 
ATOM     36  C   UNL     1       3.201  -3.086   6.732  0.00  0.00    +0.039 A 
ATOM     37  C   UNL     1       1.853  -3.281   6.988  0.00  0.00    +0.115 A 
ATOM     38  N   UNL     1       1.057  -3.663   6.003  0.00  0.00    -0.230 NA
ENDBRANCH  32  33
ENDBRANCH  31  32
ENDBRANCH   2  31
TORSDOF 10
