REMARK  Name = ZINC24735054
REMARK  6 active torsions:
REMARK  status: ('A' for Active; 'I' for Inactive)
REMARK    1  A    between atoms: N_9  and  C_12
REMARK    2  A    between atoms: C_12  and  C_13
REMARK    3  A    between atoms: C_13  and  C_14
REMARK    4  A    between atoms: C_14  and  S_15
REMARK    5  A    between atoms: S_15  and  C_16
REMARK    6  A    between atoms: C_19  and  C_22
REMARK                            x       y       z     vdW  Elec       q    Type
REMARK                         _______ _______ _______ _____ _____    ______ ____
ROOT
ATOM      1  C   UNL     1       4.031  -1.293  -0.044  0.00  0.00    +0.079 C 
ENDROOT
BRANCH   1   2
ATOM      2  C   UNL     1       5.526  -1.621  -0.060  0.00  0.00    +0.030 C 
BRANCH   2   3
ATOM      3  C   UNL     1       5.715  -3.139  -0.070  0.00  0.00    +0.118 C 
BRANCH   3  12
ATOM      4  C   UNL     1      11.626  -4.438   0.556  0.00  0.00    +0.001 A 
ATOM      5  C   UNL     1      11.613  -4.431  -0.826  0.00  0.00    +0.001 A 
ATOM      6  C   UNL     1      10.439  -4.172  -1.516  0.00  0.00    +0.014 A 
ATOM      7  C   UNL     1       9.271  -3.917  -0.814  0.00  0.00    +0.049 A 
ATOM      8  C   UNL     1       9.285  -3.924   0.596  0.00  0.00    +0.049 A 
ATOM      9  C   UNL     1      10.466  -4.185   1.272  0.00  0.00    +0.014 A 
ATOM     10  C   UNL     1       7.901  -3.621   1.016  0.00  0.00    +0.254 C 
ATOM     11  O   UNL     1       7.510  -3.538   2.162  0.00  0.00    -0.270 OA
ATOM     12  N   UNL     1       7.146  -3.452  -0.086  0.00  0.00    -0.234 N 
ATOM     13  C   UNL     1       7.878  -3.615  -1.203  0.00  0.00    +0.254 C 
ATOM     14  O   UNL     1       7.463  -3.526  -2.341  0.00  0.00    -0.270 OA
ENDBRANCH   3  12
ENDBRANCH   2   3
ENDBRANCH   1   2
BRANCH   1  15
ATOM     15  S   UNL     1       3.807   0.503  -0.032  0.00  0.00    -0.086 S 
BRANCH  15  16
ATOM     16  C   UNL     1       2.048   0.591  -0.014  0.00  0.00    +0.185 A 
ATOM     17  N   UNL     1       1.294   1.730  -0.001  0.00  0.00    -0.201 NA
ATOM     18  H   UNL     1       1.422  -1.507  -0.019  0.00  0.00    +0.191 HD
ATOM     19  C   UNL     1      -0.016   1.308   0.009  0.00  0.00    +0.182 A 
ATOM     20  N   UNL     1       0.002  -0.004   0.003  0.00  0.00    -0.152 NA
ATOM     21  N   UNL     1       1.216  -0.426  -0.011  0.00  0.00    -0.253 N 
BRANCH  19  22
ATOM     22  C   UNL     1      -1.216   2.171   0.025  0.00  0.00    +0.021 A 
ATOM     23  C   UNL     1      -1.081   3.560   0.036  0.00  0.00    +0.013 A 
ATOM     24  C   UNL     1      -2.205   4.360   0.046  0.00  0.00    +0.021 A 
ATOM     25  C   UNL     1      -3.466   3.786   0.055  0.00  0.00    +0.041 A 
ATOM     26  C   UNL     1      -3.606   2.409   0.048  0.00  0.00    +0.021 A 
ATOM     27  C   UNL     1      -2.490   1.599   0.033  0.00  0.00    +0.013 A 
ATOM     28 CL   UNL     1      -4.876   4.799   0.074  0.00  0.00    -0.084 Cl
ENDBRANCH  19  22
ENDBRANCH  15  16
ENDBRANCH   1  15
TORSDOF 6
