REMARK  Name = ZINC28165348
REMARK  4 active torsions:
REMARK  status: ('A' for Active; 'I' for Inactive)
REMARK    1  A    between atoms: C_1  and  C_2
REMARK    2  A    between atoms: C_12  and  S_14
REMARK    3  A    between atoms: S_14  and  C_15
REMARK    4  A    between atoms: C_15  and  C_16
REMARK                            x       y       z     vdW  Elec       q    Type
REMARK                         _______ _______ _______ _____ _____    ______ ____
ROOT
ATOM      1  C   UNL     1      -0.018   1.485   0.020  0.00  0.00    +0.088 C 
ATOM      2  C   UNL     1       0.002  -0.021   0.008  0.00  0.00    +0.128 A 
ATOM      3  N   UNL     1       0.022  -0.675   1.154  0.00  0.00    -0.225 NA
ATOM      4  C   UNL     1       0.040  -1.994   1.167  0.00  0.00    +0.113 A 
ATOM      5  C   UNL     1       0.037  -2.740  -0.026  0.00  0.00    +0.043 A 
ATOM      6  C   UNL     1       0.056  -4.204   0.131  0.00  0.00    -0.025 A 
ATOM      7  C   UNL     1       0.076  -4.680   1.386  0.00  0.00    -0.004 A 
ATOM      8  S   UNL     1       0.069  -3.238   2.428  0.00  0.00    -0.073 S 
ATOM      9  C   UNL     1       0.098  -6.184   1.423  0.00  0.00    +0.043 C 
ATOM     10  C   UNL     1       0.526  -6.601  -0.001  0.00  0.00    +0.010 C 
ATOM     11  C   UNL     1       0.057  -5.392  -0.835  0.00  0.00    +0.037 C 
ATOM     12  C   UNL     1       0.016  -1.980  -1.228  0.00  0.00    +0.109 A 
ATOM     13  N   UNL     1      -0.006  -0.657  -1.150  0.00  0.00    -0.225 NA
ENDROOT
BRANCH  12  14
ATOM     14  S   UNL     1       0.013  -2.784  -2.795  0.00  0.00    -0.099 S 
BRANCH  14  15
ATOM     15  C   UNL     1      -0.016  -1.342  -3.888  0.00  0.00    +0.133 C 
BRANCH  15  16
ATOM     16  C   UNL     1      -0.023  -1.799  -5.324  0.00  0.00    +0.077 A 
ATOM     17  C   UNL     1       1.107  -2.028  -6.116  0.00  0.00    +0.097 A 
ATOM     18  C   UNL     1       0.680  -2.431  -7.343  0.00  0.00    +0.266 A 
ATOM     19  N   UNL     1      -0.671  -2.448  -7.321  0.00  0.00    -0.243 N 
ATOM     20  N   UNL     1      -1.086  -2.044  -6.045  0.00  0.00    -0.175 NA
ATOM     21  O   UNL     1       1.469  -2.758  -8.398  0.00  0.00    -0.266 OA
ATOM     22  H   UNL     1      -1.417  -2.708  -8.086  0.00  0.00    +0.192 HD
ENDBRANCH  15  16
ENDBRANCH  14  15
ENDBRANCH  12  14
TORSDOF 3
