REMARK  Name = ZINC12923509
REMARK  5 active torsions:
REMARK  status: ('A' for Active; 'I' for Inactive)
REMARK    1  A    between atoms: C_1  and  C_2
REMARK    2  A    between atoms: C_2  and  C_4
REMARK    3  A    between atoms: C_2  and  N_16
REMARK    4  A    between atoms: N_19  and  S_22
REMARK    5  A    between atoms: S_22  and  C_25
REMARK                            x       y       z     vdW  Elec       q    Type
REMARK                         _______ _______ _______ _____ _____    ______ ____
ROOT
ATOM      1  N   UNL     1      -1.376  -0.512   0.012  0.00  0.00    -0.290 NA
ATOM      2  C   UNL     1      -2.123  -0.032  -1.157  0.00  0.00    +0.102 C 
ATOM      3  C   UNL     1      -3.490  -0.724  -1.206  0.00  0.00    +0.125 C 
ATOM      4  N   UNL     1      -4.162  -0.524   0.086  0.00  0.00    -0.174 NA
ATOM      5  C   UNL     1      -3.422  -0.856   1.314  0.00  0.00    +0.125 C 
ATOM      6  C   UNL     1      -2.059  -0.158   1.264  0.00  0.00    +0.102 C 
ENDROOT
BRANCH   4   7
ATOM      7  S   UNL     1      -5.710   0.058   0.158  0.00  0.00    +0.062 S 
ATOM      8  O   UNL     1      -5.862   0.651   1.441  0.00  0.00    -0.153 OA
ATOM      9  O   UNL     1      -5.929   0.780  -1.046  0.00  0.00    -0.153 OA
BRANCH   7  10
ATOM     10  C   UNL     1      -6.792  -1.333   0.115  0.00  0.00    +0.125 A 
ATOM     11  C   UNL     1      -7.590  -1.621   1.206  0.00  0.00    +0.050 A 
ATOM     12  C   UNL     1      -8.440  -2.713   1.172  0.00  0.00    +0.043 A 
ATOM     13  C   UNL     1      -8.490  -3.516   0.046  0.00  0.00    +0.021 A 
ATOM     14  C   UNL     1      -7.691  -3.227  -1.044  0.00  0.00    +0.023 A 
ATOM     15  C   UNL     1      -6.846  -2.132  -1.012  0.00  0.00    +0.067 A 
ATOM     16 CL   UNL     1      -5.849  -1.765  -2.385  0.00  0.00    -0.082 Cl
ATOM     17 CL   UNL     1      -9.442  -3.075   2.542  0.00  0.00    -0.083 Cl
ENDBRANCH   7  10
ENDBRANCH   4   7
BRANCH   1  19
ATOM     18  C   UNL     1      -0.019   1.526   0.010  0.00  0.00    +0.032 C 
ATOM     19  C   UNL     1       0.002  -0.004   0.002  0.00  0.00    +0.120 C 
BRANCH  19  20
ATOM     20  C   UNL     1       0.707  -0.490  -1.238  0.00  0.00    +0.127 A 
ATOM     21  N   UNL     1       1.968  -0.044  -1.479  0.00  0.00    -0.309 N 
ATOM     22  H   UNL     1       2.387   0.572  -0.857  0.00  0.00    +0.170 HD
ATOM     23  C   UNL     1       2.644  -0.451  -2.578  0.00  0.00    +0.259 A 
ATOM     24  O   UNL     1       3.774  -0.060  -2.806  0.00  0.00    -0.267 OA
ATOM     25  C   UNL     1       1.961  -1.384  -3.486  0.00  0.00    +0.065 A 
ATOM     26  C   UNL     1       2.569  -1.863  -4.645  0.00  0.00    +0.015 A 
ATOM     27  C   UNL     1       1.883  -2.736  -5.461  0.00  0.00    +0.001 A 
ATOM     28  C   UNL     1       0.594  -3.140  -5.137  0.00  0.00    +0.002 A 
ATOM     29  C   UNL     1      -0.024  -2.678  -3.997  0.00  0.00    +0.028 A 
ATOM     30  C   UNL     1       0.651  -1.793  -3.154  0.00  0.00    +0.078 A 
ATOM     31  N   UNL     1       0.082  -1.318  -2.018  0.00  0.00    -0.232 NA
ENDBRANCH  19  20
ENDBRANCH   1  19
TORSDOF 4
