REMARK  Name = ZINC38780473
REMARK  2 active torsions:
REMARK  status: ('A' for Active; 'I' for Inactive)
REMARK    1  A    between atoms: C_1  and  C_2
REMARK    2  A    between atoms: N_14  and  N_15
REMARK                            x       y       z     vdW  Elec       q    Type
REMARK                         _______ _______ _______ _____ _____    ______ ____
ROOT
ATOM      1  C   UNL     1      -0.019   1.526   0.010  0.00  0.00    +0.007 C 
ATOM      2  C   UNL     1       0.002  -0.004   0.002  0.00  0.00    -0.012 C 
ATOM      3  C   UNL     1       0.702  -0.489  -1.265  0.00  0.00    +0.008 C 
ATOM      4  C   UNL     1       2.123   0.085  -1.344  0.00  0.00    +0.033 C 
ATOM      5  C   UNL     1       2.809  -0.264  -0.025  0.00  0.00    -0.042 C 
ATOM      6  C   UNL     1       3.968  -0.910   0.081  0.00  0.00    +0.069 C 
ATOM      7  C   UNL     1       4.411  -1.344   1.434  0.00  0.00    +0.089 C 
ATOM      8  N   UNL     1       5.513  -2.022   1.628  0.00  0.00    -0.323 N 
ATOM      9  C   UNL     1       6.257  -2.323   0.553  0.00  0.00    +0.200 C 
ATOM     10  N   UNL     1       5.965  -1.992  -0.688  0.00  0.00    -0.144 NA
ATOM     11  C   UNL     1       4.871  -1.306  -1.052  0.00  0.00    +0.273 C 
ATOM     12  O   UNL     1       4.628  -1.025  -2.214  0.00  0.00    -0.268 OA
ATOM     13  N   UNL     1       7.416  -3.032   0.763  0.00  0.00    -0.255 N 
ATOM     14  S   UNL     1       3.169  -0.735   2.531  0.00  0.00    -0.099 S 
ATOM     15  C   UNL     1       2.124   0.119   1.288  0.00  0.00    +0.080 C 
ATOM     16  C   UNL     1       0.729  -0.504   1.254  0.00  0.00    +0.022 C 
ATOM     17  H   UNL     1       5.783  -2.298   2.518  0.00  0.00    +0.169 HD
ATOM     18  H   UNL     1       7.668  -3.295   1.662  0.00  0.00    +0.169 HD
ENDROOT
BRANCH  13  19
ATOM     19  N   UNL     1       8.213  -3.366  -0.295  0.00  0.00    -0.254 NA
ATOM     20  H   UNL     1       8.483  -2.546  -0.817  0.00  0.00    +0.140 HD
ATOM     21  H   UNL     1       9.024  -3.882   0.012  0.00  0.00    +0.140 HD
ENDBRANCH  13  19
TORSDOF 1
