REMARK  Name = ZINC38806304
REMARK  9 active torsions:
REMARK  status: ('A' for Active; 'I' for Inactive)
REMARK    1  A    between atoms: C_1  and  C_2
REMARK    2  A    between atoms: C_2  and  C_34
REMARK    3  A    between atoms: C_5  and  C_30
REMARK    4  A    between atoms: C_6  and  N_13
REMARK    5  A    between atoms: C_9  and  C_11
REMARK    6  A    between atoms: C_9  and  C_12
REMARK    7  A    between atoms: C_14  and  C_16
REMARK    8  A    between atoms: C_30  and  O_32
REMARK    9  A    between atoms: O_32  and  C_33
REMARK                            x       y       z     vdW  Elec       q    Type
REMARK                         _______ _______ _______ _____ _____    ______ ____
ROOT
ATOM      1  C   UNL     1      -0.019   1.536   0.011  0.00  0.00    -0.010 C 
ATOM      2  C   UNL     1       0.002  -0.004   0.002  0.00  0.00    -0.069 C 
ATOM      3  C   UNL     1       0.693  -0.456  -1.291  0.00  0.00    +0.024 C 
ATOM      4  C   UNL     1       0.777  -1.974  -1.244  0.00  0.00    -0.024 A 
ATOM      5  C   UNL     1       0.751  -2.881  -2.370  0.00  0.00    +0.091 A 
ATOM      6  C   UNL     1       0.838  -4.239  -2.086  0.00  0.00    +0.086 A 
ATOM      7  S   UNL     1       0.951  -4.303  -0.412  0.00  0.00    -0.079 S 
ATOM      8  C   UNL     1       0.895  -2.576  -0.038  0.00  0.00    -0.016 A 
ATOM      9  C   UNL     1       0.969  -1.895   1.288  0.00  0.00    -0.041 C 
ATOM     10  N   UNL     1       0.711  -0.460   1.190  0.00  0.00    +0.389 N 
ATOM     11  C   UNL     1      -0.027  -2.550   2.255  0.00  0.00    -0.005 C 
ATOM     12  C   UNL     1       2.386  -2.102   1.859  0.00  0.00    -0.005 C 
ATOM     13  C   UNL     1      -1.448  -0.493   0.002  0.00  0.00    -0.010 C 
ATOM     14  H   UNL     1       1.603   0.035   1.244  0.00  0.00    -0.084 HD
ATOM     15  H   UNL     1       0.184  -0.167   2.015  0.00  0.00    -0.084 HD
ENDROOT
BRANCH   6  16
ATOM     16  N   UNL     1       0.832  -5.296  -2.982  0.00  0.00    -0.279 N 
ATOM     17  C   UNL     1       0.925  -6.562  -2.530  0.00  0.00    +0.230 C 
ATOM     18  O   UNL     1       1.014  -6.777  -1.340  0.00  0.00    -0.274 OA
ATOM     19  H   UNL     1       0.761  -5.125  -3.934  0.00  0.00    +0.155 HD
BRANCH  17  20
ATOM     20  C   UNL     1       0.919  -7.712  -3.504  0.00  0.00    +0.142 C 
ATOM     21  C   UNL     1      -0.356  -7.681  -4.303  0.00  0.00    +0.011 A 
ATOM     22  C   UNL     1      -0.482  -6.779  -5.345  0.00  0.00    +0.008 A 
ATOM     23  C   UNL     1      -1.645  -6.735  -6.090  0.00  0.00    +0.001 A 
ATOM     24  C   UNL     1      -2.688  -7.594  -5.796  0.00  0.00    +0.004 A 
ATOM     25  C   UNL     1      -2.568  -8.495  -4.758  0.00  0.00    +0.046 A 
ATOM     26  C   UNL     1      -1.399  -8.542  -4.006  0.00  0.00    +0.133 A 
ATOM     27  O   UNL     1      -1.299  -9.435  -2.992  0.00  0.00    -0.455 OA
ATOM     28  C   UNL     1      -0.080  -9.802  -2.529  0.00  0.00    +0.133 A 
ATOM     29  C   UNL     1       1.034  -9.007  -2.746  0.00  0.00    +0.011 A 
ATOM     30  C   UNL     1       2.268  -9.403  -2.263  0.00  0.00    +0.008 A 
ATOM     31  C   UNL     1       2.393 -10.589  -1.565  0.00  0.00    +0.001 A 
ATOM     32  C   UNL     1       1.284 -11.385  -1.347  0.00  0.00    +0.004 A 
ATOM     33  C   UNL     1       0.049 -10.994  -1.826  0.00  0.00    +0.046 A 
ENDBRANCH  17  20
ENDBRANCH   6  16
BRANCH   5  34
ATOM     34  C   UNL     1       0.642  -2.403  -3.750  0.00  0.00    +0.342 C 
ATOM     35  O   UNL     1       1.647  -2.153  -4.388  0.00  0.00    -0.245 OA
BRANCH  34  36
ATOM     36  O   UNL     1      -0.572  -2.239  -4.313  0.00  0.00    -0.464 OA
ATOM     37  C   UNL     1      -0.604  -1.770  -5.662  0.00  0.00    +0.280 C 
ENDBRANCH  34  36
ENDBRANCH   5  34
TORSDOF 4
