REMARK  Name = ZINC11783651
REMARK  13 active torsions:
REMARK  status: ('A' for Active; 'I' for Inactive)
REMARK    1  A    between atoms: C_1  and  C_2
REMARK    2  A    between atoms: C_2  and  C_3
REMARK    3  A    between atoms: C_2  and  C_4
REMARK    4  A    between atoms: C_4  and  C_5
REMARK    5  A    between atoms: C_5  and  C_6
REMARK    6  A    between atoms: C_6  and  C_17
REMARK    7  A    between atoms: N_9  and  C_13
REMARK    8  A    between atoms: C_13  and  C_14
REMARK    9  A    between atoms: C_14  and  N_71
REMARK   10  A    between atoms: C_15  and  N_71
REMARK   11  A    between atoms: C_16  and  N_71
REMARK   12  A    between atoms: C_23  and  C_25
REMARK   13  A    between atoms: C_26  and  C_27
REMARK                            x       y       z     vdW  Elec       q    Type
REMARK                         _______ _______ _______ _____ _____    ______ ____
ROOT
ATOM      1  C   UNL     1       9.025   1.621   2.513  0.00  0.00    +0.115 C 
ATOM      2  C   UNL     1      10.388   2.283   2.562  0.00  0.00    +0.247 C 
ATOM      3  O   UNL     1      11.268   2.212   1.731  0.00  0.00    -0.273 OA
ATOM      4  N   UNL     1      10.417   2.969   3.722  0.00  0.00    -0.226 N 
ATOM      5  C   UNL     1       9.275   2.833   4.405  0.00  0.00    +0.309 C 
ATOM      6  O   UNL     1       9.065   3.358   5.481  0.00  0.00    -0.252 OA
ATOM      7  N   UNL     1       8.386   2.050   3.768  0.00  0.00    -0.285 N 
ATOM      8  H   UNL     1       7.496   1.815   4.075  0.00  0.00    +0.151 HD
ENDROOT
BRANCH   1   9
ATOM      9  C   UNL     1       8.229   2.118   1.305  0.00  0.00    +0.024 C 
ATOM     10  C   UNL     1       8.055   3.635   1.398  0.00  0.00    +0.025 C 
ATOM     11  C   UNL     1       7.286   4.134   0.170  0.00  0.00    +0.108 C 
ATOM     12  N   UNL     1       6.025   3.387   0.066  0.00  0.00    -0.298 N 
ATOM     13  C   UNL     1       6.072   1.918   0.066  0.00  0.00    +0.108 C 
ATOM     14  C   UNL     1       6.854   1.445   1.289  0.00  0.00    +0.025 C 
ATOM     15  C   UNL     1       4.848   4.037  -0.021  0.00  0.00    +0.239 C 
ATOM     16  O   UNL     1       4.827   5.250  -0.108  0.00  0.00    -0.271 OA
BRANCH  15  17
ATOM     17  C   UNL     1       3.593   3.283  -0.011  0.00  0.00    +0.068 C 
ATOM     18  C   UNL     1       2.414   3.936   0.008  0.00  0.00    +0.014 C 
BRANCH  18  19
ATOM     19  C   UNL     1       1.153   3.178   0.018  0.00  0.00    -0.007 A 
ATOM     20  C   UNL     1       1.173   1.780   0.007  0.00  0.00    +0.009 A 
ATOM     21  C   UNL     1      -0.013   1.076   0.017  0.00  0.00    +0.001 A 
ATOM     22  C   UNL     1      -1.222   1.750   0.032  0.00  0.00    +0.001 A 
ATOM     23  C   UNL     1      -1.252   3.133   0.049  0.00  0.00    +0.020 A 
ATOM     24  C   UNL     1      -0.074   3.853   0.039  0.00  0.00    +0.048 A 
ATOM     25 CL   UNL     1      -0.113   5.588   0.053  0.00  0.00    -0.083 Cl
ENDBRANCH  18  19
ENDBRANCH  15  17
ENDBRANCH   1   9
BRANCH   1  26
ATOM     26  C   UNL     1       9.169   0.098   2.472  0.00  0.00    +0.036 C 
BRANCH  26  27
ATOM     27  C   UNL     1       9.859  -0.384   3.749  0.00  0.00    +0.005 C 
BRANCH  27  29
ATOM     28  C   UNL     1      10.801  -2.377   4.925  0.00  0.00    +0.007 C 
ATOM     29  C   UNL     1      10.002  -1.907   3.708  0.00  0.00    -0.017 C 
ATOM     30  C   UNL     1       8.614  -2.550   3.730  0.00  0.00    +0.007 C 
ENDBRANCH  27  29
ENDBRANCH  26  27
ENDBRANCH   1  26
BRANCH   4  31
ATOM     31  C   UNL     1      11.560   3.765   4.179  0.00  0.00    +0.099 C 
BRANCH  31  32
ATOM     32  C   UNL     1      11.419   5.200   3.667  0.00  0.00    -0.060 C 
BRANCH  32  35
ATOM     33  C   UNL     1      13.813   5.527   3.510  0.00  0.00    -0.097 C 
ATOM     34  C   UNL     1      12.352   7.426   3.858  0.00  0.00    -0.097 C 
ATOM     35  N   UNL     1      12.567   5.994   4.153  0.00  0.00    +0.377 N 
ATOM     36  H   UNL     1      12.650   5.872   5.169  0.00  0.00    -0.083 HD
ENDBRANCH  32  35
ENDBRANCH  31  32
ENDBRANCH   4  31
TORSDOF 9
