REMARK  Name = ZINC16938988
REMARK  10 active torsions:
REMARK  status: ('A' for Active; 'I' for Inactive)
REMARK    1  A    between atoms: C_1  and  C_2
REMARK    2  A    between atoms: C_2  and  C_3
REMARK    3  A    between atoms: C_3  and  C_4
REMARK    4  A    between atoms: C_4  and  N_5
REMARK    5  A    between atoms: C_9  and  C_11
REMARK    6  A    between atoms: C_11  and  S_12
REMARK    7  A    between atoms: S_12  and  C_13
REMARK    8  A    between atoms: C_21  and  C_25
REMARK    9  A    between atoms: N_28  and  C_29
REMARK   10  A    between atoms: C_29  and  C_30
REMARK                            x       y       z     vdW  Elec       q    Type
REMARK                         _______ _______ _______ _____ _____    ______ ____
ROOT
ATOM      1  C   UNL     1      -1.221   3.245   0.031  0.00  0.00    +0.173 A 
ATOM      2  N   UNL     1      -0.110   3.953   0.024  0.00  0.00    -0.216 NA
ATOM      3  C   UNL     1       1.076   3.356   0.010  0.00  0.00    +0.117 A 
ATOM      4  C   UNL     1       1.209   1.957   0.001  0.00  0.00    +0.076 A 
ATOM      5  C   UNL     1       2.581   1.445  -0.016  0.00  0.00    -0.023 A 
ATOM      6  C   UNL     1       3.574   2.357  -0.020  0.00  0.00    -0.004 A 
ATOM      7  S   UNL     1       2.756   3.929  -0.002  0.00  0.00    -0.073 S 
ATOM      8  C   UNL     1       5.049   2.093  -0.037  0.00  0.00    +0.046 C 
ATOM      9  C   UNL     1       5.274   0.624  -0.425  0.00  0.00    -0.009 C 
ATOM     10  C   UNL     1       4.342  -0.253   0.416  0.00  0.00    +0.008 C 
ATOM     11  C   UNL     1       2.893  -0.049  -0.028  0.00  0.00    +0.037 C 
ATOM     12  C   UNL     1       6.729   0.238  -0.151  0.00  0.00    +0.008 C 
ATOM     13  C   UNL     1      -0.015   1.215   0.009  0.00  0.00    +0.264 A 
ATOM     14  O   UNL     1       0.002  -0.004   0.002  0.00  0.00    -0.267 OA
ATOM     15  N   UNL     1      -1.184   1.881   0.018  0.00  0.00    -0.280 N 
ENDROOT
BRANCH   1  16
ATOM     16  S   UNL     1      -2.777   4.072   0.050  0.00  0.00    -0.078 S 
BRANCH  16  17
ATOM     17  C   UNL     1      -2.219   5.794   0.054  0.00  0.00    +0.173 C 
BRANCH  17  22
ATOM     18  N   UNL     1      -4.136  10.202   0.098  0.00  0.00    -0.299 N 
ATOM     19  C   UNL     1      -4.311   8.866   0.091  0.00  0.00    +0.306 C 
ATOM     20  O   UNL     1      -5.433   8.399   0.099  0.00  0.00    -0.252 OA
ATOM     21  N   UNL     1      -3.240   8.046   0.077  0.00  0.00    -0.240 N 
ATOM     22  C   UNL     1      -3.415   6.710   0.071  0.00  0.00    +0.231 C 
ATOM     23  O   UNL     1      -4.535   6.245   0.079  0.00  0.00    -0.274 OA
ATOM     24  H   UNL     1      -3.240  10.574   0.091  0.00  0.00    +0.150 HD
ATOM     25  H   UNL     1      -2.345   8.418   0.071  0.00  0.00    +0.159 HD
BRANCH  18  26
ATOM     26  C   UNL     1      -5.299  11.093   0.113  0.00  0.00    +0.106 C 
BRANCH  26  27
ATOM     27  C   UNL     1      -4.827  12.548   0.117  0.00  0.00    +0.018 C 
BRANCH  27  29
ATOM     28  C   UNL     1      -5.569  14.934   0.138  0.00  0.00    +0.004 C 
ATOM     29  C   UNL     1      -6.041  13.478   0.134  0.00  0.00    -0.002 C 
ENDBRANCH  27  29
ENDBRANCH  26  27
ENDBRANCH  18  26
ENDBRANCH  17  22
ENDBRANCH  16  17
ENDBRANCH   1  16
BRANCH  15  30
ATOM     30  C   UNL     1      -2.440   1.128   0.020  0.00  0.00    +0.201 C 
BRANCH  30  31
ATOM     31  C   UNL     1      -2.864   0.862   1.441  0.00  0.00    +0.125 A 
ATOM     32  C   UNL     1      -3.642   1.661   2.193  0.00  0.00    +0.046 A 
ATOM     33  C   UNL     1      -3.786   1.029   3.449  0.00  0.00    +0.041 A 
ATOM     34  C   UNL     1      -3.081  -0.115   3.393  0.00  0.00    +0.195 A 
ATOM     35  O   UNL     1      -2.524  -0.211   2.174  0.00  0.00    -0.466 OA
ENDBRANCH  30  31
ENDBRANCH  15  30
TORSDOF 8
