REMARK  Name = ZINC06919662
REMARK  5 active torsions:
REMARK  status: ('A' for Active; 'I' for Inactive)
REMARK    1  A    between atoms: C_1  and  C_2
REMARK    2  A    between atoms: C_4  and  S_9
REMARK    3  A    between atoms: S_9  and  N_12
REMARK    4  A    between atoms: N_12  and  C_13
REMARK    5  A    between atoms: C_17  and  N_19
REMARK                            x       y       z     vdW  Elec       q    Type
REMARK                         _______ _______ _______ _____ _____    ______ ____
ROOT
ATOM      1  S   UNL     1       0.924   6.086  -0.991  0.00  0.00    +0.072 S 
ATOM      2  O   UNL     1       0.655   7.463  -0.768  0.00  0.00    -0.150 OA
ATOM      3  O   UNL     1       2.224   5.530  -0.846  0.00  0.00    -0.150 OA
ENDROOT
BRANCH   1   7
ATOM      4  C   UNL     1      -2.003   7.105  -5.199  0.00  0.00    +0.045 C 
ATOM      5  C   UNL     1      -0.959   6.244  -4.536  0.00  0.00    -0.035 A 
ATOM      6  C   UNL     1      -0.552   6.521  -3.245  0.00  0.00    +0.033 A 
ATOM      7  C   UNL     1       0.405   5.731  -2.637  0.00  0.00    +0.109 A 
ATOM      8  C   UNL     1       0.960   4.666  -3.322  0.00  0.00    +0.030 A 
ATOM      9  C   UNL     1       0.549   4.384  -4.611  0.00  0.00    +0.017 A 
ATOM     10  C   UNL     1      -0.409   5.175  -5.220  0.00  0.00    +0.021 A 
ATOM     11 BR   UNL     1      -0.966   4.794  -6.987  0.00  0.00    -0.050 Br
ENDBRANCH   1   7
BRANCH   1  12
ATOM     12  N   UNL     1      -0.069   5.239   0.029  0.00  0.00    -0.216 N 
ATOM     13  H   UNL     1      -0.664   5.713   0.631  0.00  0.00    +0.174 HD
BRANCH  12  14
ATOM     14  C   UNL     1      -0.050   3.842   0.022  0.00  0.00    +0.050 A 
ATOM     15  C   UNL     1       1.161   3.163   0.007  0.00  0.00    +0.024 A 
ATOM     16  C   UNL     1       1.177   1.782   0.000  0.00  0.00    +0.004 A 
ATOM     17  C   UNL     1      -0.013   1.076   0.008  0.00  0.00    +0.033 A 
ATOM     18  C   UNL     1      -1.220   1.749   0.017  0.00  0.00    +0.128 A 
ATOM     19  C   UNL     1      -1.242   3.130   0.030  0.00  0.00    +0.057 A 
BRANCH  18  20
ATOM     20  N   UNL     1      -2.490   0.989   0.020  0.00  0.00    +0.056 N 
ATOM     21  O   UNL     1      -2.471  -0.229   0.013  0.00  0.00    -0.126 OA
ATOM     22  O   UNL     1      -3.554   1.582   0.028  0.00  0.00    -0.126 OA
ENDBRANCH  18  20
ENDBRANCH  12  14
ENDBRANCH   1  12
TORSDOF 4
