REMARK  Name = ZINC36499866
REMARK  8 active torsions:
REMARK  status: ('A' for Active; 'I' for Inactive)
REMARK    1  A    between atoms: C_3  and  C_6
REMARK    2  A    between atoms: C_6  and  N_7
REMARK    3  A    between atoms: N_7  and  C_8
REMARK    4  A    between atoms: C_8  and  C_10
REMARK    5  A    between atoms: C_8  and  C_19
REMARK    6  A    between atoms: N_21  and  C_22
REMARK    7  A    between atoms: C_28  and  C_30
REMARK    8  A    between atoms: C_32  and  N_37
REMARK                            x       y       z     vdW  Elec       q    Type
REMARK                         _______ _______ _______ _____ _____    ______ ____
ROOT
ATOM      1  C   UNL     1       4.058  -0.425   1.270  0.00  0.00    +0.193 C 
ENDROOT
BRANCH   1   2
ATOM      2  C   UNL     1       4.819  -1.074   0.144  0.00  0.00    -0.014 A 
ATOM      3  C   UNL     1       4.527  -0.744  -1.167  0.00  0.00    +0.010 A 
ATOM      4  C   UNL     1       5.223  -1.336  -2.204  0.00  0.00    +0.050 A 
ATOM      5  C   UNL     1       6.215  -2.264  -1.932  0.00  0.00    +0.166 A 
ATOM      6  C   UNL     1       6.510  -2.596  -0.612  0.00  0.00    +0.167 A 
ATOM      7  C   UNL     1       5.813  -1.994   0.422  0.00  0.00    +0.055 A 
ATOM      8  O   UNL     1       7.514  -3.521  -0.609  0.00  0.00    -0.453 OA
ATOM      9  C   UNL     1       7.550  -4.054  -1.947  0.00  0.00    +0.466 C 
ATOM     10  O   UNL     1       7.035  -2.980  -2.756  0.00  0.00    -0.453 OA
ENDBRANCH   1   2
BRANCH   1  11
ATOM     11  C   UNL     1       2.608  -0.830   1.196  0.00  0.00    +0.238 C 
ATOM     12  O   UNL     1       1.749   0.015   1.057  0.00  0.00    -0.273 OA
ATOM     13  N   UNL     1       2.267  -2.131   1.284  0.00  0.00    -0.311 N 
ATOM     14  H   UNL     1       2.954  -2.806   1.396  0.00  0.00    +0.149 HD
BRANCH  13  15
ATOM     15  C   UNL     1       0.857  -2.524   1.212  0.00  0.00    +0.073 C 
ATOM     16  C   UNL     1       0.226  -2.415   2.602  0.00  0.00    +0.022 C 
ATOM     17  C   UNL     1      -1.246  -2.826   2.526  0.00  0.00    +0.002 C 
ATOM     18  C   UNL     1      -1.347  -4.271   2.031  0.00  0.00    +0.000 C 
ATOM     19  C   UNL     1      -0.716  -4.379   0.642  0.00  0.00    +0.002 C 
ATOM     20  C   UNL     1       0.756  -3.968   0.717  0.00  0.00    +0.022 C 
ENDBRANCH  13  15
ENDBRANCH   1  11
BRANCH   1  21
ATOM     21  N   UNL     1       4.165   1.032   1.156  0.00  0.00    -0.275 N 
ATOM     22  C   UNL     1       3.639   1.823   2.113  0.00  0.00    +0.252 C 
ATOM     23  O   UNL     1       4.067   2.950   2.273  0.00  0.00    -0.270 OA
BRANCH  22  24
ATOM     24  C   UNL     1       2.544   1.322   2.965  0.00  0.00    +0.086 A 
ATOM     25  C   UNL     1       2.503  -0.024   3.337  0.00  0.00    +0.049 A 
ATOM     26  C   UNL     1       1.477  -0.485   4.133  0.00  0.00    +0.127 A 
ATOM     27  C   UNL     1       0.485   0.379   4.566  0.00  0.00    +0.036 A 
ATOM     28  C   UNL     1       0.513   1.712   4.205  0.00  0.00    +0.054 A 
ATOM     29  C   UNL     1       1.542   2.195   3.410  0.00  0.00    +0.191 A 
ATOM     30  O   UNL     1       1.574   3.505   3.059  0.00  0.00    -0.287 OA
BRANCH  26  31
ATOM     31  N   UNL     1       1.434  -1.912   4.526  0.00  0.00    +0.056 N 
ATOM     32  O   UNL     1       2.298  -2.669   4.150  0.00  0.00    -0.126 OA
ATOM     33  O   UNL     1       0.535  -2.320   5.225  0.00  0.00    -0.126 OA
ENDBRANCH  26  31
ENDBRANCH  22  24
BRANCH  21  34
ATOM     34  C   UNL     1       4.843   1.629   0.003  0.00  0.00    +0.183 C 
BRANCH  34  37
ATOM     35  C   UNL     1       8.480   1.368   0.536  0.00  0.00    +0.041 A 
ATOM     36  C   UNL     1       7.244   0.811   0.136  0.00  0.00    +0.046 A 
ATOM     37  C   UNL     1       6.313   1.768   0.302  0.00  0.00    +0.122 A 
ATOM     38  O   UNL     1       6.917   2.869   0.778  0.00  0.00    -0.466 OA
ATOM     39  C   UNL     1       8.231   2.632   0.922  0.00  0.00    +0.195 A 
ENDBRANCH  34  37
ENDBRANCH  21  34
ENDBRANCH   1  21
TORSDOF 8
