REMARK  Name = ZINC42526355
REMARK  8 active torsions:
REMARK  status: ('A' for Active; 'I' for Inactive)
REMARK    1  A    between atoms: C_1  and  C_2
REMARK    2  A    between atoms: C_3  and  C_20
REMARK    3  A    between atoms: C_7  and  C_8
REMARK    4  A    between atoms: C_8  and  N_10
REMARK    5  A    between atoms: N_11  and  C_12
REMARK    6  A    between atoms: N_11  and  C_15
REMARK    7  A    between atoms: C_12  and  C_13
REMARK    8  A    between atoms: C_13  and  O_14
REMARK                            x       y       z     vdW  Elec       q    Type
REMARK                         _______ _______ _______ _____ _____    ______ ____
ROOT
ATOM      1  C   UNL     1       2.621  -0.005  -1.035  0.00  0.00    +0.046 C 
ATOM      2  C   UNL     1       1.404  -0.857  -0.784  0.00  0.00    -0.015 A 
ATOM      3  C   UNL     1       0.248  -0.690  -1.529  0.00  0.00    +0.064 A 
ATOM      4  N   UNL     1      -0.807  -1.445  -1.294  0.00  0.00    -0.152 NA
ATOM      5  N   UNL     1      -0.822  -2.352  -0.388  0.00  0.00    -0.133 NA
ATOM      6  C   UNL     1       0.228  -2.598   0.384  0.00  0.00    +0.154 A 
ATOM      7  C   UNL     1       1.407  -1.847   0.207  0.00  0.00    +0.049 A 
ATOM      8  N   UNL     1       0.168  -3.586   1.351  0.00  0.00    -0.308 N 
ATOM      9  C   UNL     1       0.197   0.358  -2.610  0.00  0.00    +0.068 C 
ENDROOT
BRANCH   8  10
ATOM     10  C   UNL     1       0.499  -4.970   1.005  0.00  0.00    +0.075 C 
ATOM     11  C   UNL     1       1.926  -5.043   0.423  0.00  0.00    +0.022 C 
ATOM     12  C   UNL     1       1.829  -6.116  -0.689  0.00  0.00    +0.002 C 
ATOM     13  C   UNL     1       0.434  -5.845  -1.305  0.00  0.00    +0.002 C 
ATOM     14  C   UNL     1      -0.449  -5.480  -0.094  0.00  0.00    +0.022 C 
ENDBRANCH   8  10
BRANCH   7  15
ATOM     15  C   UNL     1       2.600  -2.092   1.039  0.00  0.00    +0.081 C 
ATOM     16  S   UNL     1       4.082  -1.327   0.656  0.00  0.00    -0.035 S 
BRANCH  15  17
ATOM     17  N   UNL     1       2.523  -2.919   2.101  0.00  0.00    -0.352 N 
ATOM     18  H   UNL     1       1.670  -3.303   2.356  0.00  0.00    +0.143 HD
ATOM     19  H   UNL     1       3.321  -3.129   2.610  0.00  0.00    +0.143 HD
ENDBRANCH  15  17
ENDBRANCH   7  15
BRANCH   8  20
ATOM     20  C   UNL     1      -0.227  -3.248   2.720  0.00  0.00    +0.134 C 
BRANCH  20  21
ATOM     21  C   UNL     1      -1.733  -3.460   2.884  0.00  0.00    +0.174 C 
BRANCH  21  22
ATOM     22  O   UNL     1      -2.046  -4.838   2.670  0.00  0.00    -0.393 OA
ATOM     23  H   UNL     1      -2.986  -5.046   2.758  0.00  0.00    +0.209 HD
ENDBRANCH  21  22
ENDBRANCH  20  21
ENDBRANCH   8  20
TORSDOF 6
