REMARK  Name = ZINC08479495
REMARK  7 active torsions:
REMARK  status: ('A' for Active; 'I' for Inactive)
REMARK    1  A    between atoms: C_1  and  C_2
REMARK    2  A    between atoms: C_5  and  O_9
REMARK    3  A    between atoms: C_6  and  C_8
REMARK    4  A    between atoms: O_9  and  C_10
REMARK    5  A    between atoms: C_10  and  C_12
REMARK    6  A    between atoms: C_10  and  C_13
REMARK    7  A    between atoms: N_15  and  C_16
REMARK                            x       y       z     vdW  Elec       q    Type
REMARK                         _______ _______ _______ _____ _____    ______ ____
ROOT
ATOM      1  C   UNL     1       3.657  -2.032  -0.186  0.00  0.00    +0.258 C 
ATOM      2  O   UNL     1       2.639  -2.671  -0.346  0.00  0.00    -0.271 OA
ATOM      3  N   UNL     1       3.636  -0.690  -0.313  0.00  0.00    -0.282 N 
ATOM      4  H   UNL     1       4.463  -0.185  -0.257  0.00  0.00    +0.155 HD
ENDROOT
BRANCH   3   5
ATOM      5  C   UNL     1       2.422  -0.025  -0.524  0.00  0.00    +0.037 A 
ATOM      6  C   UNL     1       1.253  -0.514   0.044  0.00  0.00    +0.027 A 
ATOM      7  C   UNL     1       0.056   0.141  -0.165  0.00  0.00    +0.051 A 
ATOM      8  C   UNL     1       0.016   1.289  -0.943  0.00  0.00    +0.162 A 
ATOM      9  C   UNL     1       1.184   1.783  -1.510  0.00  0.00    +0.164 A 
ATOM     10  C   UNL     1       2.386   1.124  -1.302  0.00  0.00    +0.072 A 
ATOM     11  O   UNL     1       1.166   2.913  -2.269  0.00  0.00    -0.485 OA
ATOM     12  C   UNL     1      -0.108   3.336  -2.765  0.00  0.00    +0.270 C 
ATOM     13  C   UNL     1      -1.119   3.270  -1.611  0.00  0.00    +0.270 C 
ATOM     14  O   UNL     1      -1.176   1.917  -1.144  0.00  0.00    -0.485 OA
ENDBRANCH   3   5
BRANCH   1  15
ATOM     15  C   UNL     1       4.944  -2.737   0.155  0.00  0.00    +0.256 C 
ATOM     16  C   UNL     1       5.984  -2.453  -0.931  0.00  0.00    +0.062 C 
BRANCH  15  17
ATOM     17  O   UNL     1       4.710  -4.145   0.233  0.00  0.00    -0.480 OA
BRANCH  17  22
ATOM     18  C   UNL     1       8.230  -7.149   3.443  0.00  0.00    +0.044 C 
ATOM     19  C   UNL     1       7.288  -6.345   2.584  0.00  0.00    -0.050 A 
ATOM     20  C   UNL     1       7.524  -4.998   2.375  0.00  0.00    +0.007 A 
ATOM     21  C   UNL     1       6.665  -4.261   1.584  0.00  0.00    +0.046 A 
ATOM     22  C   UNL     1       5.559  -4.870   1.007  0.00  0.00    +0.125 A 
ATOM     23  C   UNL     1       5.326  -6.220   1.218  0.00  0.00    -0.009 A 
ATOM     24  C   UNL     1       6.191  -6.955   2.006  0.00  0.00    +0.010 A 
ATOM     25  C   UNL     1       4.129  -6.886   0.589  0.00  0.00    +0.047 C 
ENDBRANCH  17  22
ENDBRANCH  15  17
ENDBRANCH   1  15
TORSDOF 4
