REMARK  Name = ZINC29050924
REMARK  9 active torsions:
REMARK  status: ('A' for Active; 'I' for Inactive)
REMARK    1  A    between atoms: C_1  and  C_2
REMARK    2  A    between atoms: C_2  and  O_3
REMARK    3  A    between atoms: O_3  and  C_4
REMARK    4  A    between atoms: C_4  and  C_6
REMARK    5  A    between atoms: C_7  and  C_29
REMARK    6  A    between atoms: C_9  and  N_11
REMARK    7  A    between atoms: C_12  and  C_14
REMARK    8  A    between atoms: C_14  and  N_15
REMARK    9  A    between atoms: C_24  and  C_26
REMARK                            x       y       z     vdW  Elec       q    Type
REMARK                         _______ _______ _______ _____ _____    ______ ____
ROOT
ATOM      1  C   UNL     1      -2.163   3.134  -0.717  0.00  0.00    +0.020 C 
ENDROOT
BRANCH   1   2
ATOM      2  N   UNL     1      -2.548   1.730  -0.521  0.00  0.00    +0.396 N 
ATOM      3  C   UNL     1      -2.846   1.083  -1.803  0.00  0.00    -0.041 C 
ATOM      4  C   UNL     1      -3.333  -0.325  -1.582  0.00  0.00    -0.061 A 
ATOM      5  C   UNL     1      -3.314  -1.206  -2.654  0.00  0.00    +0.002 A 
ATOM      6  C   UNL     1      -3.759  -2.504  -2.498  0.00  0.00    +0.000 A 
ATOM      7  C   UNL     1      -4.226  -2.929  -1.268  0.00  0.00    +0.000 A 
ATOM      8  C   UNL     1      -4.243  -2.054  -0.201  0.00  0.00    +0.004 A 
ATOM      9  C   UNL     1      -3.795  -0.751  -0.355  0.00  0.00    -0.047 A 
ATOM     10  C   UNL     1      -3.829   0.167   0.839  0.00  0.00    +0.029 C 
ATOM     11  C   UNL     1      -3.704   1.621   0.384  0.00  0.00    +0.024 C 
ATOM     12  H   UNL     1      -1.694   1.211  -0.063  0.00  0.00    -0.080 HD
BRANCH  11  13
ATOM     13  C   UNL     1      -3.493   2.511   1.582  0.00  0.00    +0.197 C 
ATOM     14  O   UNL     1      -2.377   2.671   2.030  0.00  0.00    -0.278 OA
ATOM     15  N   UNL     1      -4.544   3.128   2.156  0.00  0.00    -0.331 N 
ATOM     16  H   UNL     1      -4.390   3.778   3.031  0.00  0.00    +0.145 HD
ATOM     17  H   UNL     1      -5.556   2.983   1.750  0.00  0.00    +0.145 HD
ENDBRANCH  11  13
ENDBRANCH   1   2
BRANCH   1  19
ATOM     18  N   UNL     1      -0.214   4.391  -1.577  0.00  0.00    -0.282 N 
ATOM     19  C   UNL     1      -0.777   3.197  -1.304  0.00  0.00    +0.201 C 
ATOM     20  O   UNL     1      -0.169   2.173  -1.537  0.00  0.00    -0.278 OA
ATOM     21  H   UNL     1      -0.765   5.319  -1.366  0.00  0.00    +0.155 HD
BRANCH  18  25
ATOM     22  C   UNL     1       3.497   4.086  -3.154  0.00  0.00    +0.101 A 
ATOM     23  C   UNL     1       3.048   5.391  -2.995  0.00  0.00    -0.028 A 
ATOM     24  C   UNL     1       1.795   5.564  -2.472  0.00  0.00    +0.035 A 
ATOM     25  C   UNL     1       1.062   4.449  -2.123  0.00  0.00    +0.073 A 
ATOM     26  S   UNL     1       2.117   3.138  -2.539  0.00  0.00    -0.067 S 
ATOM     27  C   UNL     1       3.901   6.568  -3.391  0.00  0.00    +0.045 C 
BRANCH  22  28
ATOM     28  C   UNL     1       4.733   3.627  -3.670  0.00  0.00    +0.346 C 
ATOM     29  O   UNL     1       5.569   4.426  -4.049  0.00  0.00    -0.244 OA
BRANCH  28  30
ATOM     30  O   UNL     1       4.984   2.303  -3.743  0.00  0.00    -0.461 OA
BRANCH  30  32
ATOM     31  C   UNL     1       6.353   0.384  -4.279  0.00  0.00    +0.048 C 
ATOM     32  C   UNL     1       6.251   1.911  -4.275  0.00  0.00    +0.229 C 
ENDBRANCH  30  32
ENDBRANCH  28  30
ENDBRANCH  22  28
ENDBRANCH  18  25
ENDBRANCH   1  19
TORSDOF 7
