REMARK  Name = ZINC20759865
REMARK  7 active torsions:
REMARK  status: ('A' for Active; 'I' for Inactive)
REMARK    1  A    between atoms: C_1  and  S_2
REMARK    2  A    between atoms: S_2  and  C_3
REMARK    3  A    between atoms: C_3  and  C_4
REMARK    4  A    between atoms: C_4  and  C_5
REMARK    5  A    between atoms: C_5  and  C_7
REMARK    6  A    between atoms: C_5  and  N_24
REMARK    7  A    between atoms: C_25  and  C_27
REMARK                            x       y       z     vdW  Elec       q    Type
REMARK                         _______ _______ _______ _____ _____    ______ ____
ROOT
ATOM      1  C   UNL     1       1.983  -3.777  -2.945  0.00  0.00    +0.236 C 
ATOM      2  O   UNL     1       1.608  -4.477  -3.862  0.00  0.00    -0.274 OA
ATOM      3  N   UNL     1       2.653  -4.323  -1.911  0.00  0.00    -0.300 N 
ATOM      4  C   UNL     1       3.013  -3.512  -0.740  0.00  0.00    +0.110 C 
ATOM      5  C   UNL     1       2.489  -4.207   0.521  0.00  0.00    +0.047 C 
ATOM      6  C   UNL     1       3.013  -5.642   0.564  0.00  0.00    +0.064 C 
ATOM      7  C   UNL     1       2.512  -6.413  -0.658  0.00  0.00    +0.047 C 
ATOM      8  C   UNL     1       3.031  -5.743  -1.929  0.00  0.00    +0.110 C 
ATOM      9  C   UNL     1       2.537  -6.319   1.821  0.00  0.00    +0.057 A 
ATOM     10  C   UNL     1       3.330  -7.084   2.607  0.00  0.00    +0.039 A 
ATOM     11  N   UNL     1       2.597  -7.523   3.631  0.00  0.00    -0.349 N 
ATOM     12  C   UNL     1       1.377  -7.063   3.512  0.00  0.00    +0.171 A 
ATOM     13  N   UNL     1       1.304  -6.307   2.392  0.00  0.00    -0.348 N 
ATOM     14  H   UNL     1       0.519  -5.843   2.059  0.00  0.00    +0.166 HD
ATOM     15  C   UNL     1       4.784  -7.346   2.301  0.00  0.00    +0.070 C 
ATOM     16  C   UNL     1       5.032  -6.967   0.834  0.00  0.00    +0.088 C 
ATOM     17  N   UNL     1       4.484  -5.629   0.569  0.00  0.00    -0.305 NA
ATOM     18  H   UNL     1       4.846  -5.256  -0.296  0.00  0.00    +0.123 HD
ATOM     19  H   UNL     1       2.916  -8.092   4.348  0.00  0.00    +0.166 HD
ENDROOT
BRANCH   1  20
ATOM     20  C   UNL     1       1.700  -2.297  -2.963  0.00  0.00    +0.160 C 
BRANCH  20  21
ATOM     21  N   UNL     1       1.567  -1.842  -4.349  0.00  0.00    -0.300 N 
ATOM     22  C   UNL     1       1.813  -0.554  -4.662  0.00  0.00    +0.246 C 
ATOM     23  O   UNL     1       2.146   0.229  -3.794  0.00  0.00    -0.270 OA
ATOM     24  H   UNL     1       1.302  -2.467  -5.041  0.00  0.00    +0.150 HD
BRANCH  22  25
ATOM     25  C   UNL     1       1.679  -0.095  -6.060  0.00  0.00    +0.051 A 
ATOM     26  C   UNL     1       1.292  -0.990  -7.058  0.00  0.00    +0.014 A 
ATOM     27  C   UNL     1       1.168  -0.555  -8.361  0.00  0.00    +0.001 A 
ATOM     28  C   UNL     1       1.427   0.766  -8.681  0.00  0.00    +0.001 A 
ATOM     29  C   UNL     1       1.812   1.660  -7.697  0.00  0.00    +0.016 A 
ATOM     30  C   UNL     1       1.934   1.239  -6.388  0.00  0.00    +0.030 A 
ATOM     31 BR   UNL     1       2.452   2.463  -5.043  0.00  0.00    -0.050 Br
ENDBRANCH  22  25
ENDBRANCH  20  21
BRANCH  20  32
ATOM     32  C   UNL     1       0.400  -2.018  -2.207  0.00  0.00    +0.042 C 
BRANCH  32  33
ATOM     33  C   UNL     1       0.186  -0.506  -2.100  0.00  0.00    +0.071 C 
BRANCH  33  35
ATOM     34  C   UNL     1      -1.460   1.636  -1.165  0.00  0.00    +0.084 C 
ATOM     35  S   UNL     1      -1.355  -0.175  -1.204  0.00  0.00    -0.164 S 
ENDBRANCH  33  35
ENDBRANCH  32  33
ENDBRANCH  20  32
ENDBRANCH   1  20
TORSDOF 6
