REMARK  Name = ZINC13500688
REMARK  12 active torsions:
REMARK  status: ('A' for Active; 'I' for Inactive)
REMARK    1  A    between atoms: C_1  and  C_2
REMARK    2  A    between atoms: C_2  and  C_3
REMARK    3  A    between atoms: C_2  and  C_4
REMARK    4  A    between atoms: C_4  and  C_6
REMARK    5  A    between atoms: C_4  and  N_73
REMARK    6  A    between atoms: N_10  and  C_11
REMARK    7  A    between atoms: C_11  and  C_12
REMARK    8  A    between atoms: C_15  and  O_18
REMARK    9  A    between atoms: O_18  and  C_19
REMARK   10  A    between atoms: C_20  and  C_21
REMARK   11  A    between atoms: C_20  and  N_73
REMARK   12  A    between atoms: C_36  and  N_73
REMARK                            x       y       z     vdW  Elec       q    Type
REMARK                         _______ _______ _______ _____ _____    ______ ____
ROOT
ATOM      1  N   UNL     1      -1.089   1.706   2.605  0.00  0.00    +0.391 N 
ATOM      2  H   UNL     1      -0.642   2.087   3.447  0.00  0.00    -0.080 HD
ENDROOT
BRANCH   1   3
ATOM      3  C   UNL     1      -1.183   2.774   1.587  0.00  0.00    -0.067 C 
ATOM      4  C   UNL     1      -0.231   3.936   1.965  0.00  0.00    -0.015 C 
ATOM      5  C   UNL     1       0.015   4.632   0.603  0.00  0.00    -0.002 C 
ATOM      6  C   UNL     1       0.100   3.469  -0.406  0.00  0.00    -0.002 C 
ATOM      7  C   UNL     1      -0.662   2.287   0.219  0.00  0.00    -0.015 C 
ENDBRANCH   1   3
BRANCH   1   8
ATOM      8  C   UNL     1      -2.441   1.222   2.955  0.00  0.00    +0.006 C 
BRANCH   8   9
ATOM      9  C   UNL     1      -2.328  -0.113   3.644  0.00  0.00    +0.139 A 
ATOM     10  N   UNL     1      -1.525  -0.418   4.634  0.00  0.00    -0.115 NA
ATOM     11  N   UNL     1      -1.726  -1.652   4.944  0.00  0.00    -0.023 NA
ATOM     12  N   UNL     1      -2.636  -2.143   4.178  0.00  0.00    -0.044 NA
ATOM     13  N   UNL     1      -3.037  -1.224   3.366  0.00  0.00    -0.226 N 
BRANCH  13  14
ATOM     14  C   UNL     1      -4.066  -1.363   2.333  0.00  0.00    +0.182 C 
BRANCH  14  15
ATOM     15  C   UNL     1      -3.428  -1.809   1.044  0.00  0.00    -0.026 A 
ATOM     16  C   UNL     1      -2.978  -0.869   0.135  0.00  0.00    +0.009 A 
ATOM     17  C   UNL     1      -2.387  -1.276  -1.046  0.00  0.00    +0.046 A 
ATOM     18  C   UNL     1      -2.255  -2.629  -1.324  0.00  0.00    +0.120 A 
ATOM     19  C   UNL     1      -2.712  -3.570  -0.413  0.00  0.00    +0.046 A 
ATOM     20  C   UNL     1      -3.297  -3.158   0.769  0.00  0.00    +0.009 A 
BRANCH  18  21
ATOM     21  O   UNL     1      -1.678  -3.032  -2.487  0.00  0.00    -0.495 OA
ATOM     22  C   UNL     1      -1.230  -2.008  -3.378  0.00  0.00    +0.277 C 
ENDBRANCH  18  21
ENDBRANCH  14  15
ENDBRANCH  13  14
ENDBRANCH   8   9
BRANCH   8  24
ATOM     23  C   UNL     1      -2.150   2.510   5.076  0.00  0.00    +0.006 C 
ATOM     24  C   UNL     1      -3.092   2.231   3.904  0.00  0.00    -0.024 C 
ATOM     25  C   UNL     1      -3.369   3.534   3.150  0.00  0.00    +0.006 C 
ENDBRANCH   8  24
ENDBRANCH   1   8
BRANCH   1  26
ATOM     26  C   UNL     1      -0.271   0.588   2.091  0.00  0.00    -0.036 C 
BRANCH  26  27
ATOM     27  C   UNL     1       1.185   0.958   2.218  0.00  0.00    +0.001 A 
ATOM     28  C   UNL     1       1.573   1.863   3.152  0.00  0.00    +0.017 A 
ATOM     29  C   UNL     1       2.993   2.197   3.255  0.00  0.00    +0.002 A 
ATOM     30  C   UNL     1       3.451   3.121   4.202  0.00  0.00    +0.059 A 
ATOM     31  C   UNL     1       4.794   3.417   4.274  0.00  0.00    +0.167 A 
ATOM     32  C   UNL     1       5.701   2.798   3.403  0.00  0.00    +0.168 A 
ATOM     33  C   UNL     1       5.257   1.885   2.464  0.00  0.00    +0.075 A 
ATOM     34  C   UNL     1       3.905   1.576   2.379  0.00  0.00    +0.053 A 
ATOM     35  N   UNL     1       3.444   0.668   1.448  0.00  0.00    -0.322 N 
ATOM     36  H   UNL     1       4.073   0.242   0.844  0.00  0.00    +0.169 HD
ATOM     37  C   UNL     1       2.137   0.366   1.364  0.00  0.00    +0.251 A 
ATOM     38  O   UNL     1       1.766  -0.441   0.529  0.00  0.00    -0.268 OA
ATOM     39  O   UNL     1       6.953   3.262   3.682  0.00  0.00    -0.453 OA
ATOM     40  C   UNL     1       6.863   3.853   4.992  0.00  0.00    +0.466 C 
ATOM     41  O   UNL     1       5.487   4.265   5.090  0.00  0.00    -0.453 OA
ENDBRANCH  26  27
ENDBRANCH   1  26
TORSDOF 9
