REMARK  Name = ZINC03842076
REMARK  11 active torsions:
REMARK  status: ('A' for Active; 'I' for Inactive)
REMARK    1  A    between atoms: C_1  and  C_2
REMARK    2  A    between atoms: C_5  and  O_30
REMARK    3  A    between atoms: C_7  and  C_27
REMARK    4  A    between atoms: C_7  and  C_28
REMARK    5  A    between atoms: C_17  and  C_19
REMARK    6  A    between atoms: C_19  and  C_20
REMARK    7  A    between atoms: N_22  and  C_23
REMARK    8  A    between atoms: C_23  and  C_24
REMARK    9  A    between atoms: C_24  and  O_25
REMARK   10  A    between atoms: O_25  and  C_26
REMARK   11  A    between atoms: C_28  and  O_29
REMARK                            x       y       z     vdW  Elec       q    Type
REMARK                         _______ _______ _______ _____ _____    ______ ____
ROOT
ATOM      1  C   UNL     1      -0.345   1.004  -0.083  0.00  0.00    +0.012 C 
ATOM      2  C   UNL     1      -0.965   1.321   1.279  0.00  0.00    -0.019 C 
ATOM      3  C   UNL     1      -0.546   2.728   1.719  0.00  0.00    +0.010 C 
ATOM      4  C   UNL     1      -1.091   3.770   0.731  0.00  0.00    +0.032 C 
ATOM      5  C   UNL     1      -2.620   3.687   0.714  0.00  0.00    +0.123 C 
ATOM      6  C   UNL     1      -3.031   2.296   0.234  0.00  0.00    +0.021 C 
ATOM      7  C   UNL     1      -2.490   1.223   1.184  0.00  0.00    +0.011 C 
ATOM      8  C   UNL     1      -2.876  -0.135   0.588  0.00  0.00    +0.049 C 
ATOM      9  C   UNL     1      -2.087  -1.202   1.261  0.00  0.00    +0.015 A 
ATOM     10  C   UNL     1      -0.991  -1.054   2.046  0.00  0.00    +0.058 A 
ATOM     11  N   UNL     1      -0.463  -2.177   2.531  0.00  0.00    -0.230 NA
ATOM     12  C   UNL     1      -0.973  -3.362   2.266  0.00  0.00    +0.156 A 
ATOM     13  S   UNL     1      -2.322  -2.959   1.247  0.00  0.00    -0.057 S 
ATOM     14  N   UNL     1      -0.543  -4.610   2.691  0.00  0.00    -0.338 N 
ATOM     15  C   UNL     1      -0.436   0.334   2.328  0.00  0.00    +0.054 C 
ATOM     16  C   UNL     1      -4.558   2.210   0.190  0.00  0.00    +0.016 C 
ATOM     17  H   UNL     1       0.236  -4.686   3.264  0.00  0.00    +0.144 HD
ATOM     18  H   UNL     1      -1.021  -5.407   2.414  0.00  0.00    +0.144 HD
ENDROOT
BRANCH   5  19
ATOM     19  O   UNL     1      -3.143   4.675  -0.176  0.00  0.00    -0.391 OA
ATOM     20  H   UNL     1      -2.920   5.583   0.070  0.00  0.00    +0.210 HD
ENDBRANCH   5  19
BRANCH  15  21
ATOM     21  C   UNL     1       1.092   0.295   2.265  0.00  0.00    +0.106 C 
BRANCH  21  22
ATOM     22  C   UNL     1       1.622  -0.516   3.420  0.00  0.00    +0.214 C 
ATOM     23  O   UNL     1       0.852  -1.013   4.215  0.00  0.00    -0.276 OA
ATOM     24  N   UNL     1       2.950  -0.689   3.569  0.00  0.00    -0.313 N 
ATOM     25  H   UNL     1       3.565  -0.291   2.933  0.00  0.00    +0.149 HD
BRANCH  24  26
ATOM     26  C   UNL     1       3.465  -1.477   4.691  0.00  0.00    +0.132 C 
BRANCH  26  27
ATOM     27  C   UNL     1       4.993  -1.516   4.629  0.00  0.00    +0.178 C 
BRANCH  27  28
ATOM     28  O   UNL     1       5.512  -0.199   4.822  0.00  0.00    -0.381 OA
ATOM     29  C   UNL     1       6.938  -0.124   4.782  0.00  0.00    +0.194 C 
ENDBRANCH  27  28
ENDBRANCH  26  27
ENDBRANCH  24  26
ENDBRANCH  21  22
ENDBRANCH  15  21
BRANCH   6  30
ATOM     30  C   UNL     1      -2.470   2.059  -1.170  0.00  0.00    +0.165 C 
BRANCH  30  31
ATOM     31  O   UNL     1      -3.097   2.955  -2.091  0.00  0.00    -0.394 OA
ATOM     32  H   UNL     1      -2.789   2.860  -3.002  0.00  0.00    +0.209 HD
ENDBRANCH  30  31
ENDBRANCH   6  30
TORSDOF 8
