REMARK  Name = ZINC64492059
REMARK  10 active torsions:
REMARK  status: ('A' for Active; 'I' for Inactive)
REMARK    1  A    between atoms: C_1  and  C_2
REMARK    2  A    between atoms: C_4  and  C_27
REMARK    3  A    between atoms: C_5  and  C_26
REMARK    4  A    between atoms: C_7  and  C_8
REMARK    5  A    between atoms: C_14  and  C_17
REMARK    6  A    between atoms: N_19  and  C_20
REMARK    7  A    between atoms: C_27  and  O_29
REMARK    8  A    between atoms: O_29  and  C_30
REMARK    9  A    between atoms: C_30  and  C_31
REMARK   10  A    between atoms: C_30  and  C_32
REMARK                            x       y       z     vdW  Elec       q    Type
REMARK                         _______ _______ _______ _____ _____    ______ ____
ROOT
ATOM      1  C   UNL     1       2.034  -0.312   1.719  0.00  0.00    +0.261 C 
ATOM      2  O   UNL     1       2.822   0.262   0.994  0.00  0.00    -0.269 OA
ATOM      3  N   UNL     1       2.435  -0.772   2.921  0.00  0.00    -0.296 N 
ATOM      4  C   UNL     1       1.541  -1.599   3.742  0.00  0.00    +0.108 C 
ATOM      5  C   UNL     1       2.272  -2.893   4.115  0.00  0.00    +0.020 C 
ATOM      6  C   UNL     1       3.603  -2.547   4.787  0.00  0.00    +0.016 C 
ATOM      7  C   UNL     1       4.480  -1.762   3.811  0.00  0.00    +0.092 C 
ATOM      8  C   UNL     1       3.777  -0.460   3.432  0.00  0.00    +0.120 C 
ENDROOT
BRANCH   1  14
ATOM      9  C   UNL     1       0.172   1.313  -0.380  0.00  0.00    +0.019 C 
ATOM     10  C   UNL     1       0.055  -0.183  -0.080  0.00  0.00    +0.078 C 
ATOM     11  C   UNL     1      -1.401  -0.590   0.064  0.00  0.00    +0.066 C 
ATOM     12  C   UNL     1      -1.510  -1.047   1.334  0.00  0.00    +0.049 C 
ATOM     13  N   UNL     1      -0.350  -0.985   1.993  0.00  0.00    -0.250 NA
ATOM     14  C   UNL     1       0.634  -0.505   1.284  0.00  0.00    +0.111 C 
ATOM     15  C   UNL     1      -2.791  -1.566   1.934  0.00  0.00    +0.066 C 
BRANCH  11  16
ATOM     16  C   UNL     1      -2.456  -0.506  -0.949  0.00  0.00    +0.338 C 
ATOM     17  O   UNL     1      -3.584  -0.874  -0.683  0.00  0.00    -0.245 OA
BRANCH  16  18
ATOM     18  O   UNL     1      -2.176  -0.022  -2.176  0.00  0.00    -0.459 OA
BRANCH  18  19
ATOM     19  C   UNL     1      -3.253   0.031  -3.114  0.00  0.00    +0.171 C 
ATOM     20  C   UNL     1      -3.031   1.196  -4.081  0.00  0.00    +0.052 C 
ATOM     21  C   UNL     1      -3.311  -1.281  -3.900  0.00  0.00    +0.052 C 
ENDBRANCH  18  19
ENDBRANCH  16  18
ENDBRANCH  11  16
ENDBRANCH   1  14
BRANCH   7  22
ATOM     22  C   UNL     1       5.803  -1.450   4.462  0.00  0.00    +0.218 C 
ATOM     23  O   UNL     1       6.023  -1.820   5.596  0.00  0.00    -0.275 OA
ATOM     24  N   UNL     1       6.742  -0.761   3.784  0.00  0.00    -0.312 N 
ATOM     25  H   UNL     1       6.566  -0.465   2.877  0.00  0.00    +0.149 HD
BRANCH  24  26
ATOM     26  C   UNL     1       8.028  -0.458   4.417  0.00  0.00    +0.073 C 
ATOM     27  C   UNL     1       7.899   0.820   5.248  0.00  0.00    +0.022 C 
ATOM     28  C   UNL     1       9.242   1.136   5.910  0.00  0.00    +0.002 C 
ATOM     29  C   UNL     1      10.308   1.336   4.830  0.00  0.00    +0.000 C 
ATOM     30  C   UNL     1      10.437   0.058   3.999  0.00  0.00    +0.002 C 
ATOM     31  C   UNL     1       9.094  -0.259   3.338  0.00  0.00    +0.022 C 
ENDBRANCH  24  26
ENDBRANCH   7  22
TORSDOF 6
