REMARK  Name = ZINC36510601
REMARK  21 active torsions:
REMARK  status: ('A' for Active; 'I' for Inactive)
REMARK    1  A    between atoms: C_1  and  C_2
REMARK    2  A    between atoms: C_2  and  C_3
REMARK    3  A    between atoms: C_3  and  C_4
REMARK    4  A    between atoms: C_4  and  C_5
REMARK    5  A    between atoms: C_5  and  C_6
REMARK    6  A    between atoms: C_6  and  N_7
REMARK    7  A    between atoms: N_7  and  C_8
REMARK    8  A    between atoms: C_8  and  C_10
REMARK    9  A    between atoms: C_8  and  C_15
REMARK   10  A    between atoms: C_10  and  C_11
REMARK   11  A    between atoms: C_10  and  C_13
REMARK   12  A    between atoms: C_11  and  C_12
REMARK   13  A    between atoms: C_13  and  C_14
REMARK   14  A    between atoms: N_17  and  C_18
REMARK   15  A    between atoms: C_24  and  C_26
REMARK   16  A    between atoms: C_26  and  C_28
REMARK   17  A    between atoms: C_26  and  C_30
REMARK   18  A    between atoms: C_28  and  C_29
REMARK   19  A    between atoms: C_30  and  C_31
REMARK   20  A    between atoms: C_31  and  C_32
REMARK   21  A    between atoms: C_32  and  C_33
REMARK                            x       y       z     vdW  Elec       q    Type
REMARK                         _______ _______ _______ _____ _____    ______ ____
ROOT
ATOM      1  N   UNL     1      -3.250  -4.836  -0.271  0.00  0.00    -0.289 N 
ATOM      2  C   UNL     1      -3.612  -4.646   1.013  0.00  0.00    +0.219 C 
ATOM      3  O   UNL     1      -4.698  -5.024   1.399  0.00  0.00    -0.275 OA
ENDROOT
BRANCH   1   4
ATOM      4  C   UNL     1      -4.171  -5.492  -1.202  0.00  0.00    +0.165 C 
BRANCH   4   5
ATOM      5  C   UNL     1      -4.708  -6.752  -0.574  0.00  0.00    +0.234 C 
ATOM      6  O   UNL     1      -4.299  -7.111   0.509  0.00  0.00    -0.274 OA
ATOM      7  N   UNL     1      -5.643  -7.480  -1.217  0.00  0.00    -0.311 N 
ATOM      8  H   UNL     1      -5.917  -7.234  -2.114  0.00  0.00    +0.149 HD
BRANCH   7   9
ATOM      9  C   UNL     1      -6.245  -8.643  -0.561  0.00  0.00    +0.073 C 
ATOM     10  C   UNL     1      -5.353  -9.868  -0.776  0.00  0.00    +0.022 C 
ATOM     11  C   UNL     1      -5.982 -11.083  -0.091  0.00  0.00    +0.002 C 
ATOM     12  C   UNL     1      -7.365 -11.347  -0.689  0.00  0.00    +0.000 C 
ATOM     13  C   UNL     1      -8.256 -10.123  -0.473  0.00  0.00    +0.002 C 
ATOM     14  C   UNL     1      -7.628  -8.908  -1.159  0.00  0.00    +0.022 C 
ENDBRANCH   7   9
ENDBRANCH   4   5
BRANCH   4  15
ATOM     15  C   UNL     1      -5.331  -4.547  -1.522  0.00  0.00    +0.018 C 
BRANCH  15  16
ATOM     16  C   UNL     1      -5.993  -4.093  -0.220  0.00  0.00    +0.002 C 
ATOM     17  C   UNL     1      -6.699  -5.282   0.435  0.00  0.00    +0.004 C 
ENDBRANCH  15  16
BRANCH  15  18
ATOM     18  C   UNL     1      -4.802  -3.326  -2.278  0.00  0.00    +0.002 C 
ATOM     19  C   UNL     1      -4.125  -3.782  -3.572  0.00  0.00    +0.004 C 
ENDBRANCH  15  18
ENDBRANCH   4  15
ENDBRANCH   1   4
BRANCH   1  20
ATOM     20  C   UNL     1      -1.935  -4.388  -0.736  0.00  0.00    +0.108 C 
BRANCH  20  21
ATOM     21  C   UNL     1      -2.030  -2.937  -1.212  0.00  0.00    +0.019 C 
BRANCH  21  22
ATOM     22  C   UNL     1      -0.629  -2.415  -1.540  0.00  0.00    +0.002 C 
BRANCH  22  23
ATOM     23  C   UNL     1      -0.724  -0.965  -2.016  0.00  0.00    -0.000 C 
BRANCH  23  25
ATOM     24  C   UNL     1       0.582   1.008  -2.820  0.00  0.00    +0.004 C 
ATOM     25  C   UNL     1       0.677  -0.443  -2.343  0.00  0.00    -0.003 C 
ENDBRANCH  23  25
ENDBRANCH  22  23
ENDBRANCH  21  22
ENDBRANCH  20  21
ENDBRANCH   1  20
BRANCH   2  26
ATOM     26  C   UNL     1      -2.668  -3.963   1.969  0.00  0.00    +0.075 C 
BRANCH  26  27
ATOM     27  C   UNL     1      -3.351  -2.733   2.570  0.00  0.00    +0.009 C 
ATOM     28  C   UNL     1      -3.607  -1.703   1.468  0.00  0.00    +0.004 C 
ENDBRANCH  26  27
BRANCH  26  29
ATOM     29  C   UNL     1      -2.287  -4.933   3.089  0.00  0.00    +0.013 C 
BRANCH  29  30
ATOM     30  C   UNL     1      -1.493  -6.103   2.503  0.00  0.00    +0.000 C 
BRANCH  30  31
ATOM     31  C   UNL     1      -1.112  -7.073   3.623  0.00  0.00    -0.003 C 
ATOM     32  C   UNL     1      -0.319  -8.242   3.036  0.00  0.00    +0.004 C 
ENDBRANCH  30  31
ENDBRANCH  29  30
ENDBRANCH  26  29
ENDBRANCH   2  26
TORSDOF 16
