REMARK  Name = ZINC28868964
REMARK  11 active torsions:
REMARK  status: ('A' for Active; 'I' for Inactive)
REMARK    1  A    between atoms: C_1  and  C_2
REMARK    2  A    between atoms: C_2  and  C_3
REMARK    3  A    between atoms: C_4  and  C_32
REMARK    4  A    between atoms: C_9  and  S_21
REMARK    5  A    between atoms: N_10  and  C_13
REMARK    6  A    between atoms: C_13  and  C_14
REMARK    7  A    between atoms: C_17  and  C_20
REMARK    8  A    between atoms: S_21  and  C_22
REMARK    9  A    between atoms: C_22  and  C_23
REMARK   10  A    between atoms: N_28  and  C_29
REMARK   11  A    between atoms: C_29  and  C_30
REMARK                            x       y       z     vdW  Elec       q    Type
REMARK                         _______ _______ _______ _____ _____    ______ ____
ROOT
ATOM      1  C   UNL     1      -2.143   1.058   1.278  0.00  0.00    -0.005 A 
ATOM      2  C   UNL     1      -2.601  -0.091   1.797  0.00  0.00    -0.026 A 
ATOM      3  C   UNL     1      -4.017  -0.398   1.700  0.00  0.00    +0.075 A 
ATOM      4  C   UNL     1      -4.791   0.572   1.035  0.00  0.00    +0.117 A 
ATOM      5  S   UNL     1      -3.605   1.816   0.595  0.00  0.00    -0.073 S 
ATOM      6  N   UNL     1      -6.100   0.431   0.862  0.00  0.00    -0.216 NA
ATOM      7  C   UNL     1      -6.731  -0.634   1.312  0.00  0.00    +0.173 A 
ATOM      8  N   UNL     1      -6.057  -1.623   1.968  0.00  0.00    -0.283 N 
ATOM      9  C   UNL     1      -4.730  -1.544   2.177  0.00  0.00    +0.264 A 
ATOM     10  O   UNL     1      -4.143  -2.435   2.765  0.00  0.00    -0.267 OA
ATOM     11  C   UNL     1      -1.658  -1.048   2.479  0.00  0.00    +0.045 C 
ENDROOT
BRANCH   1  13
ATOM     12  C   UNL     1      -0.013   1.086   0.008  0.00  0.00    +0.009 C 
ATOM     13  C   UNL     1      -0.729   1.579   1.267  0.00  0.00    +0.039 C 
ENDBRANCH   1  13
BRANCH   8  14
ATOM     14  C   UNL     1      -6.792  -2.794   2.454  0.00  0.00    +0.162 C 
BRANCH  14  15
ATOM     15  C   UNL     1      -7.278  -2.536   3.856  0.00  0.00    -0.028 A 
ATOM     16  C   UNL     1      -6.487  -2.879   4.936  0.00  0.00    +0.005 A 
ATOM     17  C   UNL     1      -6.931  -2.639   6.223  0.00  0.00    +0.004 A 
ATOM     18  C   UNL     1      -8.170  -2.062   6.430  0.00  0.00    -0.050 A 
ATOM     19  C   UNL     1      -8.964  -1.723   5.350  0.00  0.00    +0.004 A 
ATOM     20  C   UNL     1      -8.518  -1.960   4.063  0.00  0.00    +0.005 A 
ATOM     21  C   UNL     1      -8.656  -1.803   7.832  0.00  0.00    +0.044 C 
ENDBRANCH  14  15
ENDBRANCH   8  14
BRANCH   7  22
ATOM     22  S   UNL     1      -8.469  -0.785   1.063  0.00  0.00    -0.078 S 
BRANCH  22  23
ATOM     23  C   UNL     1      -8.794   0.759   0.176  0.00  0.00    +0.173 C 
BRANCH  23  24
ATOM     24  C   UNL     1     -10.262   0.851  -0.151  0.00  0.00    +0.231 C 
ATOM     25  O   UNL     1     -11.014  -0.040   0.182  0.00  0.00    -0.274 OA
ATOM     26  N   UNL     1     -10.739   1.923  -0.814  0.00  0.00    -0.239 N 
ATOM     27  C   UNL     1     -12.052   2.005  -1.107  0.00  0.00    +0.306 C 
ATOM     28  O   UNL     1     -12.806   1.112  -0.773  0.00  0.00    -0.252 OA
ATOM     29  N   UNL     1     -12.529   3.077  -1.770  0.00  0.00    -0.296 N 
ATOM     30  H   UNL     1     -10.057   2.731  -1.117  0.00  0.00    +0.159 HD
ATOM     31  H   UNL     1     -11.847   3.885  -2.072  0.00  0.00    +0.151 HD
BRANCH  29  32
ATOM     32  C   UNL     1     -13.956   3.166  -2.088  0.00  0.00    +0.132 C 
BRANCH  32  33
ATOM     33  C   UNL     1     -14.227   4.452  -2.827  0.00  0.00    -0.016 C 
ATOM     34  C   UNL     1     -14.822   4.424  -3.993  0.00  0.00    +0.005 C 
ENDBRANCH  32  33
ENDBRANCH  29  32
ENDBRANCH  23  24
ENDBRANCH  22  23
ENDBRANCH   7  22
TORSDOF 8
