REMARK  Name = ZINC12083745
REMARK  9 active torsions:
REMARK  status: ('A' for Active; 'I' for Inactive)
REMARK    1  A    between atoms: C_1  and  C_2
REMARK    2  A    between atoms: C_2  and  C_3
REMARK    3  A    between atoms: C_3  and  O_4
REMARK    4  A    between atoms: O_4  and  C_5
REMARK    5  A    between atoms: C_5  and  C_7
REMARK    6  A    between atoms: C_11  and  N_13
REMARK    7  A    between atoms: C_14  and  C_16
REMARK    8  A    between atoms: C_17  and  N_28
REMARK    9  A    between atoms: C_19  and  C_27
REMARK                            x       y       z     vdW  Elec       q    Type
REMARK                         _______ _______ _______ _____ _____    ______ ____
ROOT
ATOM      1  N   UNL     1       7.069   1.164  -0.058  0.00  0.00    -0.281 N 
ATOM      2  C   UNL     1       6.594   2.188   0.679  0.00  0.00    +0.257 C 
ATOM      3  O   UNL     1       7.360   2.876   1.329  0.00  0.00    -0.269 OA
ATOM      4  H   UNL     1       6.454   0.569  -0.514  0.00  0.00    +0.155 HD
ENDROOT
BRANCH   2   5
ATOM      5  C   UNL     1       5.207   2.462   0.697  0.00  0.00    +0.097 A 
ATOM      6  C   UNL     1       4.539   3.457   1.383  0.00  0.00    +0.054 A 
ATOM      7  C   UNL     1       3.094   3.515   1.222  0.00  0.00    +0.030 A 
ATOM      8  C   UNL     1       2.178   4.436   1.815  0.00  0.00    -0.034 A 
ATOM      9  C   UNL     1       0.853   4.340   1.550  0.00  0.00    +0.074 A 
ATOM     10  C   UNL     1       0.363   3.339   0.693  0.00  0.00    +0.250 A 
ATOM     11  O   UNL     1      -0.833   3.261   0.467  0.00  0.00    -0.268 OA
ATOM     12  N   UNL     1       1.216   2.463   0.127  0.00  0.00    -0.317 N 
ATOM     13  H   UNL     1       0.876   1.772  -0.463  0.00  0.00    +0.169 HD
ATOM     14  C   UNL     1       2.549   2.538   0.377  0.00  0.00    +0.090 A 
ATOM     15  S   UNL     1       3.900   1.610  -0.159  0.00  0.00    -0.064 S 
ATOM     16  C   UNL     1       2.685   5.517   2.735  0.00  0.00    +0.044 C 
BRANCH   6  17
ATOM     17  N   UNL     1       5.215   4.361   2.190  0.00  0.00    -0.356 N 
ATOM     18  H   UNL     1       4.723   5.051   2.663  0.00  0.00    +0.142 HD
ATOM     19  H   UNL     1       6.179   4.303   2.282  0.00  0.00    +0.142 HD
ENDBRANCH   6  17
ENDBRANCH   2   5
BRANCH   1  24
ATOM     20  C   UNL     1      10.687   1.834  -0.265  0.00  0.00    +0.061 A 
ATOM     21  C   UNL     1      11.184   0.533  -0.377  0.00  0.00    +0.015 A 
ATOM     22  C   UNL     1      10.316  -0.539  -0.381  0.00  0.00    +0.003 A 
ATOM     23  C   UNL     1       8.953  -0.331  -0.275  0.00  0.00    +0.023 A 
ATOM     24  C   UNL     1       8.448   0.959  -0.164  0.00  0.00    +0.034 A 
ATOM     25  C   UNL     1       9.312   2.044  -0.164  0.00  0.00    +0.038 A 
BRANCH  20  26
ATOM     26  C   UNL     1      11.615   2.984  -0.260  0.00  0.00    +0.339 C 
ATOM     27  O   UNL     1      11.181   4.114  -0.163  0.00  0.00    -0.245 OA
BRANCH  26  28
ATOM     28  O   UNL     1      12.942   2.779  -0.364  0.00  0.00    -0.461 OA
BRANCH  28  29
ATOM     29  C   UNL     1      13.794   3.955  -0.352  0.00  0.00    +0.232 C 
BRANCH  29  31
ATOM     30  C   UNL     1      16.154   4.766  -0.467  0.00  0.00    +0.007 C 
ATOM     31  C   UNL     1      15.257   3.526  -0.479  0.00  0.00    +0.038 C 
ENDBRANCH  29  31
ENDBRANCH  28  29
ENDBRANCH  26  28
ENDBRANCH  20  26
ENDBRANCH   1  24
TORSDOF 7
