REMARK  Name = ZINC20616794
REMARK  7 active torsions:
REMARK  status: ('A' for Active; 'I' for Inactive)
REMARK    1  A    between atoms: C_1  and  C_2
REMARK    2  A    between atoms: C_7  and  N_8
REMARK    3  A    between atoms: C_9  and  C_11
REMARK    4  A    between atoms: C_13  and  C_17
REMARK    5  A    between atoms: N_14  and  C_16
REMARK    6  A    between atoms: N_19  and  C_20
REMARK    7  A    between atoms: C_25  and  C_26
REMARK                            x       y       z     vdW  Elec       q    Type
REMARK                         _______ _______ _______ _____ _____    ______ ____
ROOT
ATOM      1  C   UNL     1      -5.283  -2.625  -0.187  0.00  0.00    +0.148 A 
ATOM      2  C   UNL     1      -3.890  -2.409  -0.198  0.00  0.00    +0.067 A 
ATOM      3  C   UNL     1      -3.732  -1.052  -0.304  0.00  0.00    +0.124 A 
ATOM      4  N   UNL     1      -4.987  -0.511  -0.346  0.00  0.00    -0.262 N 
ATOM      5  N   UNL     1      -5.867  -1.445  -0.282  0.00  0.00    -0.166 NA
ATOM      6  C   UNL     1      -5.285   0.919  -0.453  0.00  0.00    +0.173 C 
ENDROOT
BRANCH   1   8
ATOM      7  N   UNL     1      -7.310  -3.992  -0.088  0.00  0.00    -0.280 N 
ATOM      8  C   UNL     1      -5.964  -3.932  -0.087  0.00  0.00    +0.268 C 
ATOM      9  O   UNL     1      -5.310  -4.953  -0.004  0.00  0.00    -0.268 OA
ATOM     10  H   UNL     1      -7.902  -3.074  -0.223  0.00  0.00    +0.155 HD
BRANCH   7  17
ATOM     11  C   UNL     1      -9.886  -4.001   1.120  0.00  0.00    +0.046 C 
ATOM     12  C   UNL     1      -9.214  -5.271   0.667  0.00  0.00    -0.027 A 
ATOM     13  C   UNL     1      -9.852  -6.486   0.830  0.00  0.00    +0.043 A 
ATOM     14  C   UNL     1      -9.233  -7.654   0.419  0.00  0.00    +0.124 A 
ATOM     15  C   UNL     1      -7.976  -7.608  -0.160  0.00  0.00    +0.040 A 
ATOM     16  C   UNL     1      -7.337  -6.395  -0.329  0.00  0.00    +0.026 A 
ATOM     17  C   UNL     1      -7.956  -5.222   0.082  0.00  0.00    +0.037 A 
ATOM     18  F   UNL     1      -9.856  -8.842   0.584  0.00  0.00    -0.205 F 
ENDBRANCH   7  17
ENDBRANCH   1   8
BRANCH   3  19
ATOM     19  C   UNL     1      -2.457  -0.318  -0.356  0.00  0.00    +0.266 C 
ATOM     20  O   UNL     1      -1.408  -0.906  -0.174  0.00  0.00    -0.268 OA
ATOM     21  N   UNL     1      -2.452   1.007  -0.605  0.00  0.00    -0.280 N 
ATOM     22  H   UNL     1      -3.402   1.558  -0.668  0.00  0.00    +0.155 HD
BRANCH  21  23
ATOM     23  C   UNL     1      -1.238   1.681  -0.783  0.00  0.00    +0.037 A 
ATOM     24  C   UNL     1      -0.103   0.979  -1.168  0.00  0.00    +0.026 A 
ATOM     25  C   UNL     1       1.092   1.647  -1.349  0.00  0.00    +0.040 A 
ATOM     26  C   UNL     1       1.160   3.014  -1.142  0.00  0.00    +0.124 A 
ATOM     27  C   UNL     1       0.032   3.715  -0.752  0.00  0.00    +0.043 A 
ATOM     28  C   UNL     1      -1.166   3.051  -0.570  0.00  0.00    -0.027 A 
ATOM     29  C   UNL     1      -2.394   3.814  -0.146  0.00  0.00    +0.046 C 
ATOM     30  F   UNL     1       2.330   3.666  -1.319  0.00  0.00    -0.205 F 
ENDBRANCH  21  23
ENDBRANCH   3  19
TORSDOF 4
