REMARK  Name = ZINC12788152
REMARK  10 active torsions:
REMARK  status: ('A' for Active; 'I' for Inactive)
REMARK    1  A    between atoms: C_1  and  C_2
REMARK    2  A    between atoms: C_4  and  C_23
REMARK    3  A    between atoms: C_6  and  C_22
REMARK    4  A    between atoms: C_7  and  S_8
REMARK    5  A    between atoms: S_8  and  N_11
REMARK    6  A    between atoms: N_11  and  C_12
REMARK    7  A    between atoms: C_14  and  C_19
REMARK    8  A    between atoms: C_23  and  C_24
REMARK    9  A    between atoms: C_23  and  C_25
REMARK   10  A    between atoms: C_23  and  C_26
REMARK                            x       y       z     vdW  Elec       q    Type
REMARK                         _______ _______ _______ _____ _____    ______ ____
ROOT
ATOM      1  S   UNL     1       3.749  -0.567  -1.200  0.00  0.00    +0.073 S 
ATOM      2  O   UNL     1       3.387  -1.774  -1.857  0.00  0.00    -0.150 OA
ATOM      3  O   UNL     1       4.543   0.432  -1.825  0.00  0.00    -0.150 OA
ENDROOT
BRANCH   1  10
ATOM      4  C   UNL     1       1.123  -2.021  -0.825  0.00  0.00    +0.046 C 
ATOM      5  C   UNL     1       1.093  -0.535  -0.571  0.00  0.00    -0.023 A 
ATOM      6  C   UNL     1      -0.087   0.077  -0.193  0.00  0.00    +0.009 A 
ATOM      7  C   UNL     1      -0.115   1.440   0.039  0.00  0.00    -0.041 A 
ATOM      8  C   UNL     1       1.037   2.189  -0.106  0.00  0.00    +0.009 A 
ATOM      9  C   UNL     1       2.217   1.577  -0.485  0.00  0.00    -0.023 A 
ATOM     10  C   UNL     1       2.245   0.214  -0.718  0.00  0.00    +0.114 A 
ATOM     11  C   UNL     1       3.473   2.394  -0.644  0.00  0.00    +0.046 C 
BRANCH   7  12
ATOM     12  C   UNL     1      -1.403   2.109   0.445  0.00  0.00    -0.013 C 
ATOM     13  C   UNL     1      -1.902   1.500   1.757  0.00  0.00    +0.015 C 
ATOM     14  C   UNL     1      -1.160   3.607   0.638  0.00  0.00    +0.015 C 
ATOM     15  C   UNL     1      -2.453   1.899  -0.647  0.00  0.00    +0.015 C 
ENDBRANCH   7  12
ENDBRANCH   1  10
BRANCH   1  16
ATOM     16  N   UNL     1       4.542  -1.002   0.188  0.00  0.00    -0.215 N 
ATOM     17  H   UNL     1       5.397  -0.598   0.404  0.00  0.00    +0.174 HD
BRANCH  16  18
ATOM     18  C   UNL     1       3.978  -1.950   1.046  0.00  0.00    +0.067 A 
ATOM     19  C   UNL     1       3.047  -1.560   1.995  0.00  0.00    +0.039 A 
ATOM     20  C   UNL     1       2.487  -2.511   2.849  0.00  0.00    +0.038 A 
ATOM     21  C   UNL     1       2.869  -3.849   2.743  0.00  0.00    +0.014 A 
ATOM     22  C   UNL     1       3.797  -4.229   1.795  0.00  0.00    +0.022 A 
ATOM     23  C   UNL     1       4.349  -3.287   0.944  0.00  0.00    +0.063 A 
ATOM     24 CL   UNL     1       5.511  -3.775  -0.250  0.00  0.00    -0.082 Cl
BRANCH  20  25
ATOM     25  C   UNL     1       1.493  -2.102   3.863  0.00  0.00    +0.242 C 
ATOM     26  O   UNL     1       1.161  -0.936   3.954  0.00  0.00    -0.270 OA
ATOM     27  N   UNL     1       0.954  -3.022   4.688  0.00  0.00    -0.325 N 
ATOM     28  H   UNL     1       1.218  -3.952   4.615  0.00  0.00    +0.145 HD
ATOM     29  H   UNL     1       0.301  -2.754   5.353  0.00  0.00    +0.145 HD
ENDBRANCH  20  25
ENDBRANCH  16  18
ENDBRANCH   1  16
TORSDOF 5
