REMARK  Name = ZINC63557520
REMARK  8 active torsions:
REMARK  status: ('A' for Active; 'I' for Inactive)
REMARK    1  A    between atoms: C_1  and  O_2
REMARK    2  A    between atoms: O_2  and  C_3
REMARK    3  A    between atoms: C_3  and  C_5
REMARK    4  A    between atoms: C_8  and  N_11
REMARK    5  A    between atoms: C_12  and  C_14
REMARK    6  A    between atoms: N_19  and  C_21
REMARK    7  A    between atoms: C_21  and  C_22
REMARK    8  A    between atoms: C_22  and  C_23
REMARK                            x       y       z     vdW  Elec       q    Type
REMARK                         _______ _______ _______ _____ _____    ______ ____
ROOT
ATOM      1  C   UNL     1       1.701  -8.351   2.230  0.00  0.00    +0.101 C 
ATOM      2  C   UNL     1       0.334  -9.049   2.413  0.00  0.00    +0.110 C 
ATOM      3  C   UNL     1       0.643 -10.251   3.278  0.00  0.00    +0.216 C 
ATOM      4  O   UNL     1      -0.087 -11.208   3.425  0.00  0.00    -0.276 OA
ATOM      5  N   UNL     1       1.847 -10.105   3.859  0.00  0.00    -0.300 N 
ATOM      6  C   UNL     1       2.471  -8.831   3.481  0.00  0.00    +0.121 C 
ENDROOT
BRANCH   1   8
ATOM      7  N   UNL     1       0.847  -6.244   1.256  0.00  0.00    -0.285 N 
ATOM      8  C   UNL     1       1.547  -6.852   2.234  0.00  0.00    +0.222 C 
ATOM      9  O   UNL     1       2.052  -6.193   3.118  0.00  0.00    -0.275 OA
ATOM     10  H   UNL     1       0.380  -6.775   0.592  0.00  0.00    +0.155 HD
BRANCH   7  14
ATOM     11  C   UNL     1       0.695  -2.085   1.080  0.00  0.00    +0.059 A 
ATOM     12  C   UNL     1       1.848  -2.725   1.543  0.00  0.00    +0.017 A 
ATOM     13  C   UNL     1       1.895  -4.100   1.600  0.00  0.00    +0.024 A 
ATOM     14  C   UNL     1       0.796  -4.852   1.197  0.00  0.00    +0.033 A 
ATOM     15  C   UNL     1      -0.353  -4.219   0.735  0.00  0.00    +0.024 A 
ATOM     16  C   UNL     1      -0.410  -2.845   0.681  0.00  0.00    +0.017 A 
BRANCH  11  17
ATOM     17  C   UNL     1       0.640  -0.613   1.018  0.00  0.00    +0.339 C 
ATOM     18  O   UNL     1      -0.365  -0.058   0.621  0.00  0.00    -0.245 OA
BRANCH  17  20
ATOM     19  C   UNL     1       1.583   1.538   1.317  0.00  0.00    +0.280 C 
ATOM     20  O   UNL     1       1.705   0.117   1.403  0.00  0.00    -0.464 OA
ENDBRANCH  17  20
ENDBRANCH  11  17
ENDBRANCH   7  14
ENDBRANCH   1   8
BRANCH   5  21
ATOM     21  C   UNL     1       2.458 -11.091   4.754  0.00  0.00    +0.112 C 
BRANCH  21  22
ATOM     22  C   UNL     1       3.295 -12.075   3.934  0.00  0.00    +0.052 C 
BRANCH  22  23
ATOM     23  C   UNL     1       3.924 -13.089   4.854  0.00  0.00    -0.040 C 
ATOM     24  C   UNL     1       3.446 -14.317   5.159  0.00  0.00    +0.002 A 
ATOM     25  C   UNL     1       2.244 -15.047   4.739  0.00  0.00    +0.048 A 
ATOM     26  C   UNL     1       2.030 -16.293   5.225  0.00  0.00    +0.124 A 
ATOM     27  C   UNL     1       2.928 -16.901   6.118  0.00  0.00    +0.040 A 
ATOM     28  C   UNL     1       4.052 -16.291   6.548  0.00  0.00    +0.029 A 
ATOM     29  C   UNL     1       4.376 -14.980   6.100  0.00  0.00    +0.043 A 
ATOM     30  N   UNL     1       5.389 -14.192   6.368  0.00  0.00    -0.380 N 
ATOM     31  C   UNL     1       5.220 -12.941   5.620  0.00  0.00    +0.144 C 
ATOM     32  F   UNL     1       0.925 -16.968   4.842  0.00  0.00    -0.205 F 
ATOM     33  H   UNL     1       6.129 -14.403   6.959  0.00  0.00    +0.160 HD
ENDBRANCH  22  23
ENDBRANCH  21  22
ENDBRANCH   5  21
TORSDOF 7
