REMARK  Name = ZINC57779751
REMARK  4 active torsions:
REMARK  status: ('A' for Active; 'I' for Inactive)
REMARK    1  A    between atoms: C_1  and  C_2
REMARK    2  A    between atoms: N_7  and  C_9
REMARK    3  A    between atoms: C_12  and  N_15
REMARK    4  A    between atoms: C_22  and  C_24
REMARK                            x       y       z     vdW  Elec       q    Type
REMARK                         _______ _______ _______ _____ _____    ______ ____
ROOT
ATOM      1  N   UNL     1       5.212  -5.127   1.729  0.00  0.00    -0.285 N 
ATOM      2  C   UNL     1       6.312  -4.649   2.391  0.00  0.00    +0.200 A 
ATOM      3  N   UNL     1       7.458  -5.385   2.397  0.00  0.00    -0.295 N 
ATOM      4  H   UNL     1       7.487  -6.237   1.936  0.00  0.00    +0.172 HD
ATOM      5  C   UNL     1       8.552  -4.930   3.043  0.00  0.00    +0.253 A 
ATOM      6  O   UNL     1       9.583  -5.583   3.053  0.00  0.00    -0.268 OA
ATOM      7  C   UNL     1       8.483  -3.693   3.703  0.00  0.00    +0.098 A 
ATOM      8  C   UNL     1       7.292  -2.984   3.666  0.00  0.00    +0.080 A 
ATOM      9  N   UNL     1       6.241  -3.486   3.002  0.00  0.00    -0.216 NA
ATOM     10  H   UNL     1       5.225  -6.018   1.347  0.00  0.00    +0.155 HD
ENDROOT
BRANCH   1  14
ATOM     11  C   UNL     1       1.805  -2.750   1.357  0.00  0.00    +0.030 A 
ATOM     12  C   UNL     1       3.065  -2.166   1.333  0.00  0.00    +0.025 A 
ATOM     13  C   UNL     1       4.193  -2.953   1.456  0.00  0.00    +0.025 A 
ATOM     14  C   UNL     1       4.067  -4.328   1.604  0.00  0.00    +0.034 A 
ATOM     15  C   UNL     1       2.807  -4.912   1.629  0.00  0.00    +0.025 A 
ATOM     16  C   UNL     1       1.679  -4.125   1.511  0.00  0.00    +0.025 A 
BRANCH  11  22
ATOM     17  C   UNL     1       0.041   1.557  -0.045  0.00  0.00    +0.009 C 
ATOM     18  C   UNL     1       0.054   0.028  -0.058  0.00  0.00    +0.003 C 
ATOM     19  C   UNL     1      -1.385  -0.495  -0.067  0.00  0.00    +0.006 C 
ATOM     20  C   UNL     1      -1.373  -2.025  -0.112  0.00  0.00    +0.019 C 
ATOM     21  C   UNL     1      -0.671  -2.564   1.138  0.00  0.00    +0.105 C 
ATOM     22  N   UNL     1       0.662  -1.952   1.232  0.00  0.00    -0.330 N 
ATOM     23  C   UNL     1       0.773  -0.488   1.193  0.00  0.00    +0.108 C 
ENDBRANCH  11  22
ENDBRANCH   1  14
BRANCH   8  24
ATOM     24  C   UNL     1       7.183  -1.675   4.351  0.00  0.00    +0.001 A 
ATOM     25  C   UNL     1       8.281  -1.149   5.032  0.00  0.00    +0.010 A 
ATOM     26  C   UNL     1       8.174   0.071   5.668  0.00  0.00    +0.001 A 
ATOM     27  C   UNL     1       6.981   0.771   5.633  0.00  0.00    +0.000 A 
ATOM     28  C   UNL     1       5.889   0.253   4.959  0.00  0.00    +0.001 A 
ATOM     29  C   UNL     1       5.985  -0.963   4.314  0.00  0.00    +0.010 A 
ENDBRANCH   8  24
TORSDOF 3
