REMARK  Name = ZINC07321229
REMARK  8 active torsions:
REMARK  status: ('A' for Active; 'I' for Inactive)
REMARK    1  A    between atoms: C_1  and  C_2
REMARK    2  A    between atoms: C_5  and  C_11
REMARK    3  A    between atoms: C_7  and  N_8
REMARK    4  A    between atoms: N_13  and  C_14
REMARK    5  A    between atoms: C_14  and  C_15
REMARK    6  A    between atoms: N_17  and  N_18
REMARK    7  A    between atoms: C_19  and  C_20
REMARK    8  A    between atoms: C_23  and  C_26
REMARK                            x       y       z     vdW  Elec       q    Type
REMARK                         _______ _______ _______ _____ _____    ______ ____
ROOT
ATOM      1  C   UNL     1       2.391   0.799   0.366  0.00  0.00    +0.249 C 
ATOM      2  O   UNL     1       2.180  -0.374   0.587  0.00  0.00    -0.272 OA
ATOM      3  N   UNL     1       3.655   1.268   0.366  0.00  0.00    -0.206 N 
ATOM      4  H   UNL     1       3.824   2.207   0.189  0.00  0.00    +0.177 HD
ENDROOT
BRANCH   3   5
ATOM      5  N   UNL     1       4.724   0.400   0.623  0.00  0.00    -0.188 NA
ATOM      6  C   UNL     1       5.941   0.852   0.624  0.00  0.00    +0.138 C 
BRANCH   6   7
ATOM      7  C   UNL     1       7.066  -0.062   0.894  0.00  0.00    -0.005 A 
ATOM      8  C   UNL     1       6.826  -1.413   1.155  0.00  0.00    +0.010 A 
ATOM      9  C   UNL     1       7.884  -2.264   1.401  0.00  0.00    +0.013 A 
ATOM     10  C   UNL     1       9.180  -1.779   1.401  0.00  0.00    +0.055 A 
ATOM     11  C   UNL     1       9.425  -0.441   1.149  0.00  0.00    +0.013 A 
ATOM     12  C   UNL     1       8.377   0.420   0.896  0.00  0.00    +0.010 A 
BRANCH  10  13
ATOM     13  C   UNL     1      10.330  -2.713   1.678  0.00  0.00    +0.417 C 
ATOM     14  F   UNL     1      10.588  -2.740   3.053  0.00  0.00    -0.166 F 
ATOM     15  F   UNL     1      10.002  -4.000   1.239  0.00  0.00    -0.166 F 
ATOM     16  F   UNL     1      11.468  -2.264   0.999  0.00  0.00    -0.166 F 
ENDBRANCH  10  13
ENDBRANCH   6   7
ENDBRANCH   3   5
BRANCH   1  17
ATOM     17  C   UNL     1       1.241   1.733   0.090  0.00  0.00    +0.202 C 
BRANCH  17  20
ATOM     18  C   UNL     1      -1.187   1.620  -0.077  0.00  0.00    +0.245 C 
ATOM     19  O   UNL     1      -1.197   2.811  -0.319  0.00  0.00    -0.270 OA
ATOM     20  N   UNL     1      -0.018   0.987   0.145  0.00  0.00    -0.303 N 
ATOM     21  H   UNL     1      -0.010   0.036   0.338  0.00  0.00    +0.150 HD
BRANCH  18  26
ATOM     22  C   UNL     1      -6.132  -1.317   0.118  0.00  0.00    +0.046 C 
ATOM     23  C   UNL     1      -4.837  -0.548   0.066  0.00  0.00    -0.020 A 
ATOM     24  C   UNL     1      -3.639  -1.201   0.295  0.00  0.00    +0.006 A 
ATOM     25  C   UNL     1      -2.449  -0.504   0.245  0.00  0.00    +0.013 A 
ATOM     26  C   UNL     1      -2.457   0.866  -0.027  0.00  0.00    +0.039 A 
ATOM     27  C   UNL     1      -3.670   1.518  -0.257  0.00  0.00    +0.046 A 
ATOM     28  C   UNL     1      -4.851   0.808  -0.209  0.00  0.00    +0.130 A 
BRANCH  28  29
ATOM     29  N   UNL     1      -6.138   1.498  -0.452  0.00  0.00    +0.057 N 
ATOM     30  O   UNL     1      -6.165   2.709  -0.577  0.00  0.00    -0.126 OA
ATOM     31  O   UNL     1      -7.170   0.855  -0.526  0.00  0.00    -0.126 OA
ENDBRANCH  28  29
ENDBRANCH  18  26
ENDBRANCH  17  20
ENDBRANCH   1  17
TORSDOF 7
