REMARK  Name = ZINC20324190
REMARK  11 active torsions:
REMARK  status: ('A' for Active; 'I' for Inactive)
REMARK    1  A    between atoms: C_1  and  C_2
REMARK    2  A    between atoms: C_2  and  C_3
REMARK    3  A    between atoms: C_3  and  N_20
REMARK    4  A    between atoms: N_10  and  C_13
REMARK    5  A    between atoms: C_16  and  C_19
REMARK    6  A    between atoms: N_20  and  C_21
REMARK    7  A    between atoms: C_21  and  C_23
REMARK    8  A    between atoms: C_21  and  C_34
REMARK    9  A    between atoms: C_23  and  C_24
REMARK   10  A    between atoms: C_34  and  O_36
REMARK   11  A    between atoms: O_36  and  C_37
REMARK                            x       y       z     vdW  Elec       q    Type
REMARK                         _______ _______ _______ _____ _____    ______ ____
ROOT
ATOM      1  C   UNL     1       0.555  -0.122  -1.182  0.00  0.00    +0.022 C 
ATOM      2  C   UNL     1       1.899  -0.449  -1.171  0.00  0.00    +0.116 C 
ATOM      3  C   UNL     1       2.577  -0.957  -2.376  0.00  0.00    +0.258 C 
ATOM      4  O   UNL     1       1.970  -1.103  -3.420  0.00  0.00    -0.270 OA
ATOM      5  N   UNL     1       3.890  -1.255  -2.291  0.00  0.00    -0.235 N 
ATOM      6  C   UNL     1       4.571  -1.099  -1.147  0.00  0.00    +0.320 C 
ATOM      7  O   UNL     1       5.752  -1.385  -1.137  0.00  0.00    -0.251 OA
ATOM      8  N   UNL     1       4.019  -0.642  -0.015  0.00  0.00    -0.190 N 
ATOM      9  C   UNL     1       2.716  -0.299   0.046  0.00  0.00    +0.265 C 
ATOM     10  O   UNL     1       2.228   0.119   1.079  0.00  0.00    -0.269 OA
ATOM     11  H   UNL     1       4.351  -1.591  -3.075  0.00  0.00    +0.159 HD
ENDROOT
BRANCH   8  12
ATOM     12  C   UNL     1       4.815  -0.513   1.132  0.00  0.00    +0.046 A 
ATOM     13  C   UNL     1       4.528  -1.261   2.266  0.00  0.00    +0.024 A 
ATOM     14  C   UNL     1       5.315  -1.133   3.394  0.00  0.00    +0.005 A 
ATOM     15  C   UNL     1       6.388  -0.260   3.394  0.00  0.00    -0.050 A 
ATOM     16  C   UNL     1       6.676   0.486   2.266  0.00  0.00    +0.005 A 
ATOM     17  C   UNL     1       5.896   0.358   1.134  0.00  0.00    +0.024 A 
ATOM     18  C   UNL     1       7.244  -0.122   4.627  0.00  0.00    +0.044 C 
ENDBRANCH   8  12
BRANCH   1  20
ATOM     19  C   UNL     1      -0.573  -0.531   0.988  0.00  0.00    +0.010 C 
ATOM     20  C   UNL     1      -0.070   0.540   0.019  0.00  0.00    +0.048 C 
ENDBRANCH   1  20
BRANCH   1  21
ATOM     21  N   UNL     1      -0.195  -0.395  -2.268  0.00  0.00    -0.334 N 
ATOM     22  H   UNL     1       0.183  -0.900  -3.005  0.00  0.00    +0.147 HD
BRANCH  21  23
ATOM     23  C   UNL     1      -1.583   0.070  -2.335  0.00  0.00    +0.184 C 
BRANCH  23  24
ATOM     24  C   UNL     1      -1.614   1.486  -2.849  0.00  0.00    +0.328 C 
ATOM     25  O   UNL     1      -0.583   2.049  -3.130  0.00  0.00    -0.249 OA
BRANCH  24  26
ATOM     26  O   UNL     1      -2.787   2.122  -2.994  0.00  0.00    -0.467 OA
ATOM     27  C   UNL     1      -2.742   3.462  -3.486  0.00  0.00    +0.280 C 
ENDBRANCH  24  26
ENDBRANCH  23  24
BRANCH  23  28
ATOM     28  C   UNL     1      -2.378  -0.833  -3.280  0.00  0.00    +0.071 C 
BRANCH  28  29
ATOM     29  C   UNL     1      -2.451  -2.224  -2.704  0.00  0.00    -0.020 A 
ATOM     30  C   UNL     1      -1.629  -3.248  -2.982  0.00  0.00    +0.087 A 
ATOM     31  N   UNL     1      -2.003  -4.354  -2.269  0.00  0.00    -0.360 N 
ATOM     32  H   UNL     1      -1.560  -5.216  -2.305  0.00  0.00    +0.165 HD
ATOM     33  C   UNL     1      -3.103  -4.062  -1.495  0.00  0.00    +0.047 A 
ATOM     34  C   UNL     1      -3.428  -2.712  -1.728  0.00  0.00    +0.003 A 
ATOM     35  C   UNL     1      -4.511  -2.132  -1.065  0.00  0.00    +0.010 A 
ATOM     36  C   UNL     1      -5.249  -2.878  -0.189  0.00  0.00    +0.001 A 
ATOM     37  C   UNL     1      -4.930  -4.207   0.048  0.00  0.00    +0.002 A 
ATOM     38  C   UNL     1      -3.871  -4.803  -0.603  0.00  0.00    +0.026 A 
ENDBRANCH  28  29
ENDBRANCH  23  28
ENDBRANCH  21  23
ENDBRANCH   1  21
TORSDOF 8
