REMARK  Name = ZINC52627524
REMARK  8 active torsions:
REMARK  status: ('A' for Active; 'I' for Inactive)
REMARK    1  A    between atoms: C_7  and  C_10
REMARK    2  A    between atoms: C_10  and  C_11
REMARK    3  A    between atoms: C_11  and  C_13
REMARK    4  A    between atoms: C_11  and  N_29
REMARK    5  A    between atoms: C_13  and  O_14
REMARK    6  A    between atoms: O_14  and  C_15
REMARK    7  A    between atoms: C_17  and  C_21
REMARK    8  A    between atoms: C_22  and  C_23
REMARK                            x       y       z     vdW  Elec       q    Type
REMARK                         _______ _______ _______ _____ _____    ______ ____
ROOT
ATOM      1  C   UNL     1       0.457  -3.653  -1.462  0.00  0.00    -0.033 C 
ENDROOT
BRANCH   1   2
ATOM      2  N   UNL     1       1.715  -4.163  -2.022  0.00  0.00    +0.382 N 
ATOM      3  H   UNL     1       2.042  -4.938  -1.465  0.00  0.00    -0.089 HD
ATOM      4  H   UNL     1       1.561  -4.471  -2.970  0.00  0.00    -0.089 HD
ATOM      5  H   UNL     1       2.408  -3.429  -2.015  0.00  0.00    -0.089 HD
ENDBRANCH   1   2
BRANCH   1   6
ATOM      6  C   UNL     1       0.691  -3.186  -0.024  0.00  0.00    +0.020 C 
BRANCH   6  13
ATOM      7  C   UNL     1      -0.016   1.348   0.009  0.00  0.00    +0.001 A 
ATOM      8  C   UNL     1       1.166   2.101   0.002  0.00  0.00    +0.002 A 
ATOM      9  C   UNL     1       2.391   1.535  -0.013  0.00  0.00    +0.026 A 
ATOM     10  C   UNL     1       2.529   0.120  -0.022  0.00  0.00    +0.043 A 
ATOM     11  N   UNL     1       3.587  -0.654  -0.037  0.00  0.00    -0.380 N 
ATOM     12  C   UNL     1       3.143  -2.053  -0.041  0.00  0.00    +0.144 C 
ATOM     13  C   UNL     1       1.631  -2.008  -0.025  0.00  0.00    -0.043 C 
ATOM     14  C   UNL     1       1.295  -0.698  -0.014  0.00  0.00    -0.001 A 
ATOM     15  C   UNL     1       0.002  -0.004   0.002  0.00  0.00    +0.010 A 
ATOM     16  H   UNL     1       4.509  -0.353  -0.045  0.00  0.00    +0.160 HD
ENDBRANCH   6  13
ENDBRANCH   1   6
BRANCH   1  17
ATOM     17  C   UNL     1      -0.593  -4.766  -1.471  0.00  0.00    +0.213 C 
BRANCH  17  18
ATOM     18  O   UNL     1      -0.897  -5.123  -2.821  0.00  0.00    -0.492 OA
BRANCH  18  19
ATOM     19  C   UNL     1      -1.819  -6.104  -3.008  0.00  0.00    +0.139 A 
ATOM     20  C   UNL     1      -2.163  -6.510  -4.290  0.00  0.00    +0.056 A 
ATOM     21  C   UNL     1      -3.118  -7.525  -4.430  0.00  0.00    -0.003 A 
ATOM     22  C   UNL     1      -3.682  -8.084  -3.281  0.00  0.00    +0.118 A 
ATOM     23  N   UNL     1      -3.324  -7.666  -2.085  0.00  0.00    -0.259 NA
ATOM     24  C   UNL     1      -2.423  -6.717  -1.919  0.00  0.00    +0.156 A 
BRANCH  21  25
ATOM     25  C   UNL     1      -3.522  -7.995  -5.768  0.00  0.00    +0.010 C 
ATOM     26  C   UNL     1      -4.438  -8.968  -5.889  0.00  0.00    +0.008 C 
BRANCH  26  27
ATOM     27  C   UNL     1      -4.841  -9.438  -7.226  0.00  0.00    -0.022 A 
ATOM     28  C   UNL     1      -4.277  -8.886  -8.384  0.00  0.00    +0.027 A 
ATOM     29  C   UNL     1      -4.685  -9.356  -9.615  0.00  0.00    +0.111 A 
ATOM     30  N   UNL     1      -5.591 -10.310  -9.710  0.00  0.00    -0.263 NA
ATOM     31  C   UNL     1      -6.148 -10.857  -8.646  0.00  0.00    +0.111 A 
ATOM     32  C   UNL     1      -5.796 -10.453  -7.376  0.00  0.00    +0.027 A 
ENDBRANCH  26  27
ENDBRANCH  21  25
ENDBRANCH  18  19
ENDBRANCH  17  18
ENDBRANCH   1  17
TORSDOF 8
