REMARK  Name = ZINC53098379
REMARK  2 active torsions:
REMARK  status: ('A' for Active; 'I' for Inactive)
REMARK    1  A    between atoms: C_4  and  C_18
REMARK    2  A    between atoms: C_6  and  N_7
REMARK                            x       y       z     vdW  Elec       q    Type
REMARK                         _______ _______ _______ _____ _____    ______ ____
ROOT
ATOM      1  N   UNL     1      -1.175  -0.706   0.010  0.00  0.00    -0.226 NA
ATOM      2  C   UNL     1      -2.143  -0.357   0.826  0.00  0.00    +0.155 C 
ATOM      3  N   UNL     1      -3.376  -0.943   0.973  0.00  0.00    -0.317 N 
ATOM      4  C   UNL     1      -4.441  -0.216   1.646  0.00  0.00    +0.043 C 
ATOM      5  C   UNL     1      -5.614  -0.009   0.679  0.00  0.00    +0.026 C 
ATOM      6  C   UNL     1      -6.132  -1.369   0.210  0.00  0.00    +0.002 C 
ATOM      7  C   UNL     1      -6.611  -2.179   1.417  0.00  0.00    +0.000 C 
ATOM      8  C   UNL     1      -5.446  -2.383   2.387  0.00  0.00    +0.002 C 
ATOM      9  C   UNL     1      -4.928  -1.022   2.857  0.00  0.00    +0.026 C 
ATOM     10  C   UNL     1      -3.983   1.176   2.150  0.00  0.00    +0.102 C 
ATOM     11  S   UNL     1      -2.155   0.986   2.004  0.00  0.00    -0.088 S 
ATOM     12  H   UNL     1      -3.536  -1.836   0.629  0.00  0.00    +0.149 HD
ENDROOT
BRANCH   1  18
ATOM     13  C   UNL     1      -0.017   1.393   0.010  0.00  0.00    +0.031 A 
ATOM     14  C   UNL     1       1.167   2.103   0.002  0.00  0.00    +0.042 A 
ATOM     15  C   UNL     1       2.379   1.438  -0.013  0.00  0.00    +0.141 A 
ATOM     16  C   UNL     1       2.412   0.039  -0.021  0.00  0.00    +0.089 A 
ATOM     17  C   UNL     1       1.219  -0.682  -0.013  0.00  0.00    +0.049 A 
ATOM     18  C   UNL     1       0.002  -0.004   0.002  0.00  0.00    +0.068 A 
ATOM     19  F   UNL     1       3.534   2.140  -0.021  0.00  0.00    -0.204 F 
BRANCH  16  20
ATOM     20  C   UNL     1       3.668  -0.649  -0.038  0.00  0.00    +0.102 C 
ATOM     21  N   UNL     1       4.663  -1.196  -0.051  0.00  0.00    -0.191 NA
ENDBRANCH  16  20
ENDBRANCH   1  18
TORSDOF 2
