REMARK  Name = ZINC06016802
REMARK  8 active torsions:
REMARK  status: ('A' for Active; 'I' for Inactive)
REMARK    1  A    between atoms: C_1  and  C_2
REMARK    2  A    between atoms: C_3  and  N_15
REMARK    3  A    between atoms: N_6  and  C_9
REMARK    4  A    between atoms: N_7  and  C_8
REMARK    5  A    between atoms: N_15  and  C_16
REMARK    6  A    between atoms: N_15  and  S_17
REMARK    7  A    between atoms: S_17  and  C_20
REMARK    8  A    between atoms: C_24  and  C_26
REMARK                            x       y       z     vdW  Elec       q    Type
REMARK                         _______ _______ _______ _____ _____    ______ ____
ROOT
ATOM      1  C   UNL     1       9.190  -0.347  -0.814  0.00  0.00    +0.109 A 
ATOM      2  C   UNL     1       9.976   0.723  -1.202  0.00  0.00    +0.029 A 
ATOM      3  C   UNL     1       9.393   1.865  -1.720  0.00  0.00    +0.003 A 
ATOM      4  C   UNL     1       8.022   1.945  -1.853  0.00  0.00    +0.013 A 
ATOM      5  C   UNL     1       7.223   0.869  -1.464  0.00  0.00    +0.039 A 
ATOM      6  C   UNL     1       7.818  -0.280  -0.937  0.00  0.00    +0.042 A 
ENDROOT
BRANCH   5   7
ATOM      7  C   UNL     1       5.754   0.947  -1.603  0.00  0.00    +0.250 C 
ATOM      8  O   UNL     1       5.061   0.008  -1.262  0.00  0.00    -0.270 OA
ATOM      9  N   UNL     1       5.183   2.058  -2.107  0.00  0.00    -0.252 N 
ATOM     10  C   UNL     1       3.807   2.131  -2.236  0.00  0.00    +0.201 A 
ATOM     11  N   UNL     1       2.933   1.142  -1.889  0.00  0.00    -0.326 N 
ATOM     12  H   UNL     1       3.170   0.251  -1.500  0.00  0.00    +0.169 HD
ATOM     13  C   UNL     1       1.659   1.602  -2.173  0.00  0.00    +0.067 A 
ATOM     14  C   UNL     1       0.389   1.060  -2.040  0.00  0.00    +0.028 A 
ATOM     15  C   UNL     1      -0.714   1.791  -2.431  0.00  0.00    +0.002 A 
ATOM     16  C   UNL     1      -0.562   3.071  -2.945  0.00  0.00    +0.002 A 
ATOM     17  C   UNL     1       0.691   3.624  -3.085  0.00  0.00    +0.030 A 
ATOM     18  C   UNL     1       1.818   2.894  -2.699  0.00  0.00    +0.091 A 
ATOM     19  N   UNL     1       3.151   3.159  -2.712  0.00  0.00    -0.214 NA
ATOM     20  H   UNL     1       5.736   2.808  -2.378  0.00  0.00    +0.158 HD
ENDBRANCH   5   7
BRANCH   1  21
ATOM     21  S   UNL     1       9.943  -1.798  -0.154  0.00  0.00    +0.075 S 
ATOM     22  O   UNL     1       9.031  -2.865  -0.375  0.00  0.00    -0.150 OA
ATOM     23  O   UNL     1      11.276  -1.822  -0.644  0.00  0.00    -0.150 OA
BRANCH  21  24
ATOM     24  N   UNL     1      10.045  -1.593   1.486  0.00  0.00    -0.199 N 
ATOM     25  C   UNL     1       8.879  -1.861   2.332  0.00  0.00    +0.158 C 
BRANCH  24  28
ATOM     26  C   UNL     1      10.793  -1.997   4.428  0.00  0.00    +0.067 C 
ATOM     27  C   UNL     1      11.615  -1.323   3.360  0.00  0.00    +0.061 A 
ATOM     28  C   UNL     1      11.255  -1.161   2.069  0.00  0.00    +0.137 A 
ATOM     29  C   UNL     1      12.308  -0.487   1.400  0.00  0.00    +0.295 A 
ATOM     30  O   UNL     1      12.329  -0.178   0.222  0.00  0.00    -0.264 OA
ATOM     31  N   UNL     1      13.280  -0.245   2.303  0.00  0.00    -0.216 N 
ATOM     32  N   UNL     1      12.860  -0.767   3.534  0.00  0.00    -0.282 N 
ATOM     33  C   UNL     1      13.616  -0.728   4.788  0.00  0.00    +0.171 C 
BRANCH  31  34
ATOM     34  C   UNL     1      14.493   0.404   2.055  0.00  0.00    +0.067 A 
ATOM     35  C   UNL     1      14.510   1.606   1.359  0.00  0.00    +0.028 A 
ATOM     36  C   UNL     1      15.710   2.247   1.121  0.00  0.00    +0.002 A 
ATOM     37  C   UNL     1      16.894   1.688   1.563  0.00  0.00    +0.000 A 
ATOM     38  C   UNL     1      16.882   0.488   2.251  0.00  0.00    +0.002 A 
ATOM     39  C   UNL     1      15.685  -0.155   2.498  0.00  0.00    +0.028 A 
ENDBRANCH  31  34
ENDBRANCH  24  28
ENDBRANCH  21  24
ENDBRANCH   1  21
TORSDOF 5
