REMARK  Name = ZINC07471362
REMARK  6 active torsions:
REMARK  status: ('A' for Active; 'I' for Inactive)
REMARK    1  A    between atoms: C_1  and  C_2
REMARK    2  A    between atoms: N_4  and  C_5
REMARK    3  A    between atoms: C_13  and  C_16
REMARK    4  A    between atoms: C_16  and  S_17
REMARK    5  A    between atoms: S_17  and  C_18
REMARK    6  A    between atoms: C_20  and  C_24
REMARK                            x       y       z     vdW  Elec       q    Type
REMARK                         _______ _______ _______ _____ _____    ______ ____
ROOT
ATOM      1  C   UNL     1       0.073  -0.782   1.303  0.00  0.00    +0.110 C 
ATOM      2  C   UNL     1       0.018  -0.013   0.008  0.00  0.00    +0.223 C 
ATOM      3  O   UNL     1      -0.102   1.194   0.025  0.00  0.00    -0.275 OA
ATOM      4  N   UNL     1       0.102  -0.666  -1.167  0.00  0.00    -0.219 N 
ATOM      5  C   UNL     1       0.167   0.050  -2.358  0.00  0.00    +0.172 A 
ATOM      6  N   UNL     1       0.075   1.350  -2.536  0.00  0.00    -0.228 NA
ATOM      7  C   UNL     1       0.157   1.882  -3.741  0.00  0.00    +0.061 A 
ATOM      8  C   UNL     1       0.339   1.029  -4.780  0.00  0.00    +0.072 A 
ATOM      9  S   UNL     1       0.389  -0.535  -3.921  0.00  0.00    -0.060 S 
ENDROOT
BRANCH   4  10
ATOM     10  C   UNL     1       0.124  -2.067  -1.191  0.00  0.00    +0.043 A 
ATOM     11  C   UNL     1      -0.993  -2.787  -0.786  0.00  0.00    +0.024 A 
ATOM     12  C   UNL     1      -0.968  -4.168  -0.810  0.00  0.00    +0.002 A 
ATOM     13  C   UNL     1       0.167  -4.833  -1.236  0.00  0.00    +0.000 A 
ATOM     14  C   UNL     1       1.280  -4.119  -1.639  0.00  0.00    +0.002 A 
ATOM     15  C   UNL     1       1.260  -2.738  -1.624  0.00  0.00    +0.024 A 
ENDBRANCH   4  10
BRANCH   7  16
ATOM     16  C   UNL     1       0.053   3.370  -3.954  0.00  0.00    +0.133 C 
BRANCH  16  17
ATOM     17  S   UNL     1       1.706   4.112  -3.861  0.00  0.00    -0.080 S 
BRANCH  17  18
ATOM     18  C   UNL     1       1.417   5.830  -4.126  0.00  0.00    +0.185 A 
ATOM     19  N   UNL     1       0.248   6.393  -4.338  0.00  0.00    -0.201 NA
ATOM     20  C   UNL     1       0.408   7.715  -4.497  0.00  0.00    +0.182 A 
ATOM     21  N   UNL     1       1.684   8.006  -4.387  0.00  0.00    -0.152 NA
ATOM     22  H   UNL     1       3.313   6.684  -4.011  0.00  0.00    +0.191 HD
ATOM     23  N   UNL     1       2.359   6.800  -4.141  0.00  0.00    -0.253 N 
BRANCH  20  24
ATOM     24  C   UNL     1      -0.680   8.691  -4.755  0.00  0.00    +0.021 A 
ATOM     25  C   UNL     1      -2.001   8.257  -4.846  0.00  0.00    +0.011 A 
ATOM     26  C   UNL     1      -3.010   9.168  -5.087  0.00  0.00    +0.001 A 
ATOM     27  C   UNL     1      -2.710  10.510  -5.238  0.00  0.00    +0.000 A 
ATOM     28  C   UNL     1      -1.401  10.946  -5.149  0.00  0.00    +0.001 A 
ATOM     29  C   UNL     1      -0.386  10.044  -4.903  0.00  0.00    +0.011 A 
ENDBRANCH  20  24
ENDBRANCH  17  18
ENDBRANCH  16  17
ENDBRANCH   7  16
TORSDOF 5
