REMARK  Name = ZINC64982832
REMARK  11 active torsions:
REMARK  status: ('A' for Active; 'I' for Inactive)
REMARK    1  A    between atoms: C_1  and  C_2
REMARK    2  A    between atoms: C_5  and  N_25
REMARK    3  A    between atoms: C_7  and  N_8
REMARK    4  A    between atoms: C_9  and  C_11
REMARK    5  A    between atoms: C_11  and  C_13
REMARK    6  A    between atoms: C_11  and  O_14
REMARK    7  A    between atoms: O_14  and  C_15
REMARK    8  A    between atoms: C_20  and  C_21
REMARK    9  A    between atoms: C_21  and  C_22
REMARK   10  A    between atoms: C_21  and  C_23
REMARK   11  A    between atoms: C_21  and  C_24
REMARK                            x       y       z     vdW  Elec       q    Type
REMARK                         _______ _______ _______ _____ _____    ______ ____
ROOT
ATOM      1  N   UNL     1       0.028  -0.054   2.408  0.00  0.00    -0.282 N 
ATOM      2  C   UNL     1      -0.042  -0.720   3.578  0.00  0.00    +0.258 C 
ATOM      3  O   UNL     1       0.013  -1.931   3.591  0.00  0.00    -0.271 OA
ATOM      4  H   UNL     1       0.046   0.915   2.402  0.00  0.00    +0.155 HD
ENDROOT
BRANCH   1  11
ATOM      5  C   UNL     1      -1.276   1.066   0.140  0.00  0.00    +0.045 C 
ATOM      6  C   UNL     1      -0.549  -0.252   0.071  0.00  0.00    -0.029 A 
ATOM      7  C   UNL     1      -0.498  -0.952  -1.119  0.00  0.00    +0.007 A 
ATOM      8  C   UNL     1       0.168  -2.162  -1.183  0.00  0.00    +0.033 A 
ATOM      9  C   UNL     1       0.785  -2.676  -0.057  0.00  0.00    +0.128 A 
ATOM     10  C   UNL     1       0.738  -1.981   1.135  0.00  0.00    +0.056 A 
ATOM     11  C   UNL     1       0.074  -0.763   1.202  0.00  0.00    +0.039 A 
BRANCH   9  12
ATOM     12  N   UNL     1       1.496  -3.972  -0.130  0.00  0.00    +0.056 N 
ATOM     13  O   UNL     1       1.538  -4.580  -1.174  0.00  0.00    -0.126 OA
ATOM     14  O   UNL     1       2.035  -4.421   0.854  0.00  0.00    -0.126 OA
ENDBRANCH   9  12
ENDBRANCH   1  11
BRANCH   2  15
ATOM     15  C   UNL     1      -0.189   0.042   4.870  0.00  0.00    +0.256 C 
ATOM     16  C   UNL     1       1.064   0.886   5.110  0.00  0.00    +0.062 C 
BRANCH  15  17
ATOM     17  O   UNL     1      -0.357  -0.879   5.949  0.00  0.00    -0.480 OA
BRANCH  17  18
ATOM     18  C   UNL     1      -1.159  -0.488   6.975  0.00  0.00    +0.125 A 
ATOM     19  C   UNL     1      -1.668   0.803   7.006  0.00  0.00    +0.046 A 
ATOM     20  C   UNL     1      -2.482   1.198   8.049  0.00  0.00    +0.004 A 
ATOM     21  C   UNL     1      -2.791   0.308   9.062  0.00  0.00    +0.001 A 
ATOM     22  C   UNL     1      -2.284  -0.978   9.034  0.00  0.00    +0.008 A 
ATOM     23  C   UNL     1      -1.474  -1.380   7.990  0.00  0.00    -0.000 A 
BRANCH  23  24
ATOM     24  C   UNL     1      -0.927  -2.784   7.956  0.00  0.00    -0.009 C 
ATOM     25  C   UNL     1      -1.423  -3.554   9.182  0.00  0.00    +0.015 C 
ATOM     26  C   UNL     1      -1.406  -3.487   6.684  0.00  0.00    +0.015 C 
ATOM     27  C   UNL     1       0.602  -2.736   7.968  0.00  0.00    +0.015 C 
ENDBRANCH  23  24
ENDBRANCH  17  18
ENDBRANCH  15  17
ENDBRANCH   2  15
TORSDOF 6
