REMARK  Name = ZINC39487338
REMARK  11 active torsions:
REMARK  status: ('A' for Active; 'I' for Inactive)
REMARK    1  A    between atoms: C_1  and  C_2
REMARK    2  A    between atoms: C_2  and  C_3
REMARK    3  A    between atoms: C_3  and  C_4
REMARK    4  A    between atoms: C_4  and  C_32
REMARK    5  A    between atoms: N_6  and  S_30
REMARK    6  A    between atoms: N_9  and  C_10
REMARK    7  A    between atoms: C_10  and  C_11
REMARK    8  A    between atoms: C_11  and  C_24
REMARK    9  A    between atoms: N_14  and  C_17
REMARK   10  A    between atoms: C_17  and  C_18
REMARK   11  A    between atoms: S_30  and  C_31
REMARK                            x       y       z     vdW  Elec       q    Type
REMARK                         _______ _______ _______ _____ _____    ______ ____
ROOT
ATOM      1  C   UNL     1       3.979  -3.411  -2.260  0.00  0.00    -0.014 C 
ATOM      2  C   UNL     1       3.655  -3.538  -0.769  0.00  0.00    -0.010 C 
ATOM      3  C   UNL     1       2.220  -4.042  -0.605  0.00  0.00    -0.078 C 
ATOM      4  N   UNL     1       2.082  -5.353  -1.251  0.00  0.00    +0.382 N 
ATOM      5  C   UNL     1       2.321  -5.226  -2.693  0.00  0.00    -0.078 C 
ATOM      6  C   UNL     1       3.760  -4.767  -2.937  0.00  0.00    -0.010 C 
ATOM      7  H   UNL     1       2.753  -5.994  -0.855  0.00  0.00    -0.081 HD
ENDROOT
BRANCH   1   8
ATOM      8  C   UNL     1       5.438  -2.982  -2.434  0.00  0.00    -0.003 C 
ATOM      9  C   UNL     1       5.826  -3.082  -3.910  0.00  0.00    +0.004 C 
ATOM     10  C   UNL     1       7.285  -2.654  -4.084  0.00  0.00    +0.000 C 
ATOM     11  C   UNL     1       8.188  -3.570  -3.256  0.00  0.00    +0.000 C 
ATOM     12  C   UNL     1       7.799  -3.470  -1.780  0.00  0.00    +0.000 C 
ATOM     13  C   UNL     1       6.341  -3.898  -1.606  0.00  0.00    +0.004 C 
ENDBRANCH   1   8
BRANCH   1  14
ATOM     14  C   UNL     1       3.060  -2.367  -2.897  0.00  0.00    +0.117 C 
BRANCH  14  20
ATOM     15  C   UNL     1       3.850   0.106  -2.642  0.00  0.00    +0.053 C 
ATOM     16  C   UNL     1       3.667   1.115  -1.492  0.00  0.00    +0.148 C 
ATOM     17  N   UNL     1       2.903   0.364  -0.483  0.00  0.00    -0.227 N 
ATOM     18  C   UNL     1       2.667  -0.872  -0.941  0.00  0.00    +0.315 C 
ATOM     19  O   UNL     1       2.053  -1.708  -0.306  0.00  0.00    -0.252 OA
ATOM     20  N   UNL     1       3.170  -1.105  -2.160  0.00  0.00    -0.277 N 
ATOM     21  C   UNL     1       5.334  -0.172  -2.886  0.00  0.00    +0.033 C 
BRANCH  17  22
ATOM     22  S   UNL     1       2.413   0.955   0.984  0.00  0.00    -0.059 S 
ATOM     23  C   UNL     1       0.778   1.666   0.647  0.00  0.00    +0.107 C 
ENDBRANCH  17  22
BRANCH  15  24
ATOM     24  C   UNL     1       3.185   0.623  -3.920  0.00  0.00    +0.027 C 
BRANCH  24  26
ATOM     25  C   UNL     1       3.246   2.398  -5.677  0.00  0.00    +0.004 C 
ATOM     26  C   UNL     1       3.910   1.881  -4.399  0.00  0.00    -0.001 C 
ENDBRANCH  24  26
ENDBRANCH  15  24
ENDBRANCH  14  20
ENDBRANCH   1  14
BRANCH   4  27
ATOM     27  C   UNL     1       0.725  -5.868  -1.024  0.00  0.00    -0.043 C 
BRANCH  27  28
ATOM     28  C   UNL     1       0.625  -7.274  -1.558  0.00  0.00    -0.064 A 
ATOM     29  C   UNL     1       0.245  -7.490  -2.869  0.00  0.00    +0.002 A 
ATOM     30  C   UNL     1       0.153  -8.779  -3.359  0.00  0.00    +0.000 A 
ATOM     31  C   UNL     1       0.443  -9.853  -2.538  0.00  0.00    +0.000 A 
ATOM     32  C   UNL     1       0.824  -9.637  -1.227  0.00  0.00    +0.000 A 
ATOM     33  C   UNL     1       0.920  -8.347  -0.738  0.00  0.00    +0.002 A 
ENDBRANCH  27  28
ENDBRANCH   4  27
TORSDOF 8
