REMARK  Name = ZINC17146321
REMARK  10 active torsions:
REMARK  status: ('A' for Active; 'I' for Inactive)
REMARK    1  A    between atoms: C_1  and  C_2
REMARK    2  A    between atoms: C_2  and  C_4
REMARK    3  A    between atoms: C_2  and  N_14
REMARK    4  A    between atoms: C_15  and  C_17
REMARK    5  A    between atoms: C_17  and  N_18
REMARK    6  A    between atoms: C_21  and  C_25
REMARK    7  A    between atoms: C_21  and  C_26
REMARK    8  A    between atoms: C_29  and  C_32
REMARK    9  A    between atoms: C_32  and  C_33
REMARK   10  A    between atoms: C_32  and  C_34
REMARK                            x       y       z     vdW  Elec       q    Type
REMARK                         _______ _______ _______ _____ _____    ______ ____
ROOT
ATOM      1  N   UNL     1       4.223  -1.127   2.126  0.00  0.00    -0.215 N 
ATOM      2  C   UNL     1       4.875  -2.187   1.609  0.00  0.00    +0.251 C 
ATOM      3  O   UNL     1       4.400  -3.255   1.289  0.00  0.00    -0.272 OA
ATOM      4  C   UNL     1       6.328  -1.764   1.508  0.00  0.00    +0.135 C 
ATOM      5  N   UNL     1       6.324  -0.386   2.029  0.00  0.00    -0.281 N 
ATOM      6  C   UNL     1       5.051  -0.103   2.359  0.00  0.00    +0.310 C 
ATOM      7  O   UNL     1       4.694   0.963   2.821  0.00  0.00    -0.252 OA
ATOM      8  C   UNL     1       7.212  -2.664   2.373  0.00  0.00    +0.047 C 
ATOM      9  H   UNL     1       7.090   0.203   2.115  0.00  0.00    +0.152 HD
ENDROOT
BRANCH   4  10
ATOM     10  C   UNL     1       6.788  -1.786   0.073  0.00  0.00    -0.015 A 
ATOM     11  C   UNL     1       6.224  -2.678  -0.820  0.00  0.00    +0.006 A 
ATOM     12  C   UNL     1       6.646  -2.699  -2.136  0.00  0.00    +0.004 A 
ATOM     13  C   UNL     1       7.632  -1.827  -2.559  0.00  0.00    -0.045 A 
ATOM     14  C   UNL     1       8.196  -0.935  -1.667  0.00  0.00    +0.004 A 
ATOM     15  C   UNL     1       7.771  -0.911  -0.352  0.00  0.00    +0.006 A 
BRANCH  13  16
ATOM     16  C   UNL     1       8.093  -1.851  -3.994  0.00  0.00    +0.013 C 
ATOM     17  C   UNL     1       7.844  -0.482  -4.632  0.00  0.00    +0.012 C 
ATOM     18  C   UNL     1       9.588  -2.172  -4.044  0.00  0.00    +0.012 C 
ENDBRANCH  13  16
ENDBRANCH   4  10
BRANCH   1  19
ATOM     19  C   UNL     1       2.783  -1.099   2.395  0.00  0.00    +0.213 C 
BRANCH  19  21
ATOM     20  N   UNL     1       0.711  -0.489   1.189  0.00  0.00    -0.307 N 
ATOM     21  C   UNL     1       2.054  -0.600   1.174  0.00  0.00    +0.231 C 
ATOM     22  O   UNL     1       2.676  -0.297   0.177  0.00  0.00    -0.274 OA
ATOM     23  H   UNL     1       0.213  -0.731   1.986  0.00  0.00    +0.149 HD
BRANCH  20  25
ATOM     24  C   UNL     1      -0.019   1.526   0.010  0.00  0.00    +0.033 C 
ATOM     25  C   UNL     1       0.002  -0.004   0.002  0.00  0.00    +0.100 C 
BRANCH  25  26
ATOM     26  C   UNL     1      -1.412  -0.526   0.013  0.00  0.00    -0.027 A 
ATOM     27  C   UNL     1      -2.125  -0.572   1.196  0.00  0.00    +0.006 A 
ATOM     28  C   UNL     1      -3.418  -1.054   1.198  0.00  0.00    +0.004 A 
ATOM     29  C   UNL     1      -4.010  -1.491   0.021  0.00  0.00    -0.044 A 
ATOM     30  C   UNL     1      -3.301  -1.440  -1.159  0.00  0.00    -0.044 A 
ATOM     31  C   UNL     1      -2.001  -0.953  -1.159  0.00  0.00    +0.009 A 
ATOM     32  C   UNL     1      -3.885  -1.883  -2.475  0.00  0.00    +0.035 C 
ATOM     33  C   UNL     1      -5.113  -2.762  -2.249  0.00  0.00    +0.005 C 
ATOM     34  C   UNL     1      -6.061  -2.033  -1.290  0.00  0.00    +0.005 C 
ATOM     35  C   UNL     1      -5.421  -2.012   0.097  0.00  0.00    +0.035 C 
ENDBRANCH  25  26
ENDBRANCH  20  25
ENDBRANCH  19  21
ENDBRANCH   1  19
TORSDOF 6
