REMARK  Name = ZINC32686554
REMARK  6 active torsions:
REMARK  status: ('A' for Active; 'I' for Inactive)
REMARK    1  A    between atoms: C_1  and  C_2
REMARK    2  A    between atoms: C_8  and  C_10
REMARK    3  A    between atoms: C_10  and  S_11
REMARK    4  A    between atoms: S_11  and  C_12
REMARK    5  A    between atoms: C_15  and  C_23
REMARK    6  A    between atoms: N_16  and  C_17
REMARK                            x       y       z     vdW  Elec       q    Type
REMARK                         _______ _______ _______ _____ _____    ______ ____
ROOT
ATOM      1  C   UNL     1       0.595   4.304   0.950  0.00  0.00    +0.197 A 
ATOM      2  N   UNL     1       0.847   5.543   0.591  0.00  0.00    -0.122 NA
ATOM      3  N   UNL     1       1.491   5.559  -0.521  0.00  0.00    -0.128 NA
ATOM      4  C   UNL     1       1.696   4.332  -0.939  0.00  0.00    +0.170 A 
ATOM      5  N   UNL     1       1.123   3.488  -0.013  0.00  0.00    -0.270 N 
ENDROOT
BRANCH   4   6
ATOM      6  C   UNL     1       2.405   3.931  -2.173  0.00  0.00    +0.034 A 
ATOM      7  C   UNL     1       1.839   2.987  -3.031  0.00  0.00    +0.013 A 
ATOM      8  C   UNL     1       2.505   2.618  -4.181  0.00  0.00    +0.001 A 
ATOM      9  C   UNL     1       3.732   3.181  -4.485  0.00  0.00    +0.001 A 
ATOM     10  C   UNL     1       4.300   4.116  -3.639  0.00  0.00    +0.016 A 
ATOM     11  C   UNL     1       3.641   4.499  -2.487  0.00  0.00    +0.029 A 
ATOM     12 BR   UNL     1       4.415   5.783  -1.335  0.00  0.00    -0.050 Br
ENDBRANCH   4   6
BRANCH   5  13
ATOM     13  C   UNL     1       1.093   2.087  -0.046  0.00  0.00    +0.051 A 
ATOM     14  C   UNL     1      -0.114   1.421  -0.206  0.00  0.00    +0.026 A 
ATOM     15  C   UNL     1      -0.140   0.040  -0.239  0.00  0.00    +0.002 A 
ATOM     16  C   UNL     1       1.034  -0.678  -0.114  0.00  0.00    +0.000 A 
ATOM     17  C   UNL     1       2.239  -0.017   0.045  0.00  0.00    +0.002 A 
ATOM     18  C   UNL     1       2.271   1.363   0.080  0.00  0.00    +0.026 A 
ENDBRANCH   5  13
BRANCH   1  19
ATOM     19  S   UNL     1      -0.263   3.790   2.401  0.00  0.00    -0.076 S 
BRANCH  19  20
ATOM     20  C   UNL     1      -0.631   5.402   3.136  0.00  0.00    +0.173 C 
BRANCH  20  28
ATOM     21  C   UNL     1      -4.109   4.290   9.082  0.00  0.00    +0.089 C 
ATOM     22  C   UNL     1      -3.489   5.215   8.066  0.00  0.00    +0.136 A 
ATOM     23  C   UNL     1      -2.846   4.855   6.932  0.00  0.00    +0.091 A 
ATOM     24  C   UNL     1      -2.465   6.092   6.348  0.00  0.00    +0.168 A 
ATOM     25  N   UNL     1      -2.893   7.026   7.156  0.00  0.00    -0.063 NA
ATOM     26  O   UNL     1      -3.467   6.555   8.111  0.00  0.00    -0.358 OA
ATOM     27  N   UNL     1      -1.767   6.274   5.153  0.00  0.00    -0.267 N 
ATOM     28  C   UNL     1      -1.385   5.206   4.427  0.00  0.00    +0.229 C 
ATOM     29  O   UNL     1      -1.647   4.086   4.811  0.00  0.00    -0.275 OA
ATOM     30  H   UNL     1      -1.529   7.290   4.804  0.00  0.00    +0.156 HD
ENDBRANCH  20  28
ENDBRANCH  19  20
ENDBRANCH   1  19
TORSDOF 5
