REMARK  Name = ZINC12794952
REMARK  14 active torsions:
REMARK  status: ('A' for Active; 'I' for Inactive)
REMARK    1  A    between atoms: C_1  and  C_2
REMARK    2  A    between atoms: C_2  and  C_3
REMARK    3  A    between atoms: C_3  and  N_64
REMARK    4  A    between atoms: C_4  and  C_5
REMARK    5  A    between atoms: C_4  and  N_64
REMARK    6  A    between atoms: C_8  and  C_10
REMARK    7  A    between atoms: C_15  and  C_16
REMARK    8  A    between atoms: C_15  and  N_64
REMARK    9  A    between atoms: N_18  and  C_19
REMARK   10  A    between atoms: C_20  and  C_30
REMARK   11  A    between atoms: C_25  and  C_29
REMARK   12  A    between atoms: C_30  and  O_32
REMARK   13  A    between atoms: O_32  and  C_33
REMARK   14  A    between atoms: C_33  and  C_34
REMARK                            x       y       z     vdW  Elec       q    Type
REMARK                         _______ _______ _______ _____ _____    ______ ____
ROOT
ATOM      1  C   UNL     1      -1.973  -2.143  -3.692  0.00  0.00    +0.201 C 
ATOM      2  O   UNL     1      -3.053  -2.672  -3.534  0.00  0.00    -0.278 OA
ATOM      3  N   UNL     1      -1.080  -2.120  -2.682  0.00  0.00    -0.281 N 
ATOM      4  H   UNL     1      -0.216  -1.697  -2.808  0.00  0.00    +0.155 HD
ENDROOT
BRANCH   3   5
ATOM      5  C   UNL     1      -1.396  -2.702  -1.464  0.00  0.00    +0.086 A 
ATOM      6  C   UNL     1      -0.618  -2.779  -0.317  0.00  0.00    +0.091 A 
ATOM      7  C   UNL     1      -1.193  -3.444   0.841  0.00  0.00    -0.021 A 
ATOM      8  C   UNL     1      -2.442  -3.926   0.665  0.00  0.00    -0.004 A 
ATOM      9  S   UNL     1      -2.858  -3.511  -1.004  0.00  0.00    -0.077 S 
ATOM     10  C   UNL     1      -3.279  -4.653   1.673  0.00  0.00    +0.046 C 
ATOM     11  C   UNL     1      -2.369  -5.102   2.825  0.00  0.00    -0.009 C 
ATOM     12  C   UNL     1      -1.500  -3.918   3.258  0.00  0.00    +0.008 C 
ATOM     13  C   UNL     1      -0.470  -3.603   2.172  0.00  0.00    +0.037 C 
ATOM     14  C   UNL     1      -3.225  -5.572   4.002  0.00  0.00    +0.008 C 
BRANCH   6  15
ATOM     15  C   UNL     1       0.729  -2.207  -0.273  0.00  0.00    +0.342 C 
ATOM     16  O   UNL     1       1.689  -2.887  -0.583  0.00  0.00    -0.245 OA
BRANCH  15  17
ATOM     17  O   UNL     1       0.906  -0.926   0.111  0.00  0.00    -0.461 OA
BRANCH  17  18
ATOM     18  C   UNL     1       2.269  -0.426   0.131  0.00  0.00    +0.229 C 
ATOM     19  C   UNL     1       2.270   1.034   0.589  0.00  0.00    +0.048 C 
ENDBRANCH  17  18
ENDBRANCH  15  17
ENDBRANCH   6  15
ENDBRANCH   3   5
BRANCH   1  20
ATOM     20  C   UNL     1      -1.629  -1.511  -5.016  0.00  0.00    +0.020 C 
BRANCH  20  21
ATOM     21  N   UNL     1      -2.766  -1.696  -5.942  0.00  0.00    +0.391 N 
ATOM     22  H   UNL     1      -3.026  -2.689  -5.957  0.00  0.00    -0.080 HD
BRANCH  21  23
ATOM     23  C   UNL     1      -3.926  -0.903  -5.482  0.00  0.00    -0.078 C 
BRANCH  23  25
ATOM     24  C   UNL     1      -4.777   1.376  -4.916  0.00  0.00    +0.002 C 
ATOM     25  C   UNL     1      -3.563   0.581  -5.400  0.00  0.00    -0.022 C 
ENDBRANCH  23  25
ENDBRANCH  21  23
BRANCH  21  26
ATOM     26  C   UNL     1      -2.379  -1.280  -7.306  0.00  0.00    +0.021 C 
BRANCH  26  27
ATOM     27  C   UNL     1      -3.404  -1.801  -8.280  0.00  0.00    +0.202 A 
ATOM     28  N   UNL     1      -4.470  -1.171  -8.686  0.00  0.00    -0.114 NA
ATOM     29  N   UNL     1      -5.119  -1.911  -9.515  0.00  0.00    -0.104 NA
ATOM     30  C   UNL     1      -4.481  -3.051  -9.669  0.00  0.00    +0.284 A 
ATOM     31  O   UNL     1      -3.380  -2.999  -8.892  0.00  0.00    -0.420 OA
BRANCH  30  32
ATOM     32  C   UNL     1      -4.890  -4.170 -10.530  0.00  0.00    +0.191 A 
ATOM     33  C   UNL     1      -6.003  -4.211 -11.316  0.00  0.00    +0.055 A 
ATOM     34  C   UNL     1      -5.998  -5.461 -11.961  0.00  0.00    +0.042 A 
ATOM     35  C   UNL     1      -4.896  -6.117 -11.545  0.00  0.00    +0.196 A 
ATOM     36  O   UNL     1      -4.226  -5.333 -10.686  0.00  0.00    -0.458 OA
ENDBRANCH  30  32
ENDBRANCH  26  27
ENDBRANCH  21  26
ENDBRANCH  20  21
ENDBRANCH   1  20
TORSDOF 11
