REMARK  Name = ZINC39653218
REMARK  14 active torsions:
REMARK  status: ('A' for Active; 'I' for Inactive)
REMARK    1  A    between atoms: C_1  and  C_2
REMARK    2  A    between atoms: C_2  and  O_3
REMARK    3  A    between atoms: O_3  and  C_4
REMARK    4  A    between atoms: C_6  and  C_12
REMARK    5  A    between atoms: C_9  and  O_10
REMARK    6  A    between atoms: O_10  and  C_11
REMARK    7  A    between atoms: C_12  and  C_13
REMARK    8  A    between atoms: C_13  and  N_14
REMARK    9  A    between atoms: C_15  and  C_17
REMARK   10  A    between atoms: C_28  and  C_30
REMARK   11  A    between atoms: C_32  and  O_38
REMARK   12  A    between atoms: C_34  and  O_36
REMARK   13  A    between atoms: O_36  and  C_37
REMARK   14  A    between atoms: O_38  and  C_39
REMARK                            x       y       z     vdW  Elec       q    Type
REMARK                         _______ _______ _______ _____ _____    ______ ____
ROOT
ATOM      1  C   UNL     1      -0.058  -7.869  -5.012  0.00  0.00    +0.100 C 
ATOM      2  C   UNL     1      -1.183  -6.931  -5.506  0.00  0.00    +0.121 C 
ATOM      3  N   UNL     1      -0.613  -6.257  -6.696  0.00  0.00    -0.296 N 
ATOM      4  C   UNL     1       0.155  -7.319  -7.389  0.00  0.00    +0.115 C 
ATOM      5  C   UNL     1       0.816  -8.123  -6.252  0.00  0.00    -0.004 C 
ATOM      6  C   UNL     1       2.236  -7.622  -6.009  0.00  0.00    -0.010 C 
ATOM      7  C   UNL     1       3.100  -7.938  -7.233  0.00  0.00    -0.082 C 
ATOM      8  N   UNL     1       3.105  -9.386  -7.471  0.00  0.00    +0.379 N 
ATOM      9  C   UNL     1       1.749  -9.845  -7.795  0.00  0.00    -0.082 C 
ATOM     10  C   UNL     1       0.828  -9.610  -6.594  0.00  0.00    -0.010 C 
ATOM     11  C   UNL     1      -0.760  -4.969  -7.065  0.00  0.00    +0.247 C 
ATOM     12  O   UNL     1      -1.319  -4.185  -6.324  0.00  0.00    -0.270 OA
ATOM     13  H   UNL     1       3.723  -9.598  -8.240  0.00  0.00    -0.086 HD
ATOM     14  H   UNL     1       3.430  -9.861  -6.642  0.00  0.00    -0.086 HD
ENDROOT
BRANCH  11  15
ATOM     15  C   UNL     1      -0.242  -4.511  -8.372  0.00  0.00    +0.044 A 
ATOM     16  C   UNL     1      -0.004  -5.432  -9.392  0.00  0.00    +0.059 A 
ATOM     17  C   UNL     1       0.482  -4.999 -10.615  0.00  0.00    +0.124 A 
ATOM     18  C   UNL     1       0.732  -3.651 -10.825  0.00  0.00    +0.091 A 
ATOM     19  C   UNL     1       0.497  -2.731  -9.814  0.00  0.00    +0.124 A 
ATOM     20  C   UNL     1       0.006  -3.155  -8.590  0.00  0.00    +0.059 A 
BRANCH  19  21
ATOM     21  O   UNL     1       0.743  -1.411 -10.025  0.00  0.00    -0.495 OA
ATOM     22  C   UNL     1       1.243  -1.043 -11.312  0.00  0.00    +0.277 C 
ENDBRANCH  19  21
BRANCH  17  23
ATOM     23  O   UNL     1       0.714  -5.895 -11.609  0.00  0.00    -0.495 OA
ATOM     24  C   UNL     1       1.214  -5.379 -12.844  0.00  0.00    +0.277 C 
ENDBRANCH  17  23
ENDBRANCH  11  15
BRANCH   1  26
ATOM     25  N   UNL     1       1.438  -7.941  -3.043  0.00  0.00    -0.315 N 
ATOM     26  C   UNL     1       0.748  -7.197  -3.931  0.00  0.00    +0.218 C 
ATOM     27  O   UNL     1       0.776  -5.987  -3.859  0.00  0.00    -0.275 OA
ATOM     28  H   UNL     1       1.415  -8.909  -3.101  0.00  0.00    +0.149 HD
BRANCH  25  29
ATOM     29  C   UNL     1       2.222  -7.288  -1.992  0.00  0.00    +0.109 C 
BRANCH  29  30
ATOM     30  C   UNL     1       2.901  -8.351  -1.127  0.00  0.00    +0.054 C 
BRANCH  30  33
ATOM     31  C   UNL     1       3.862  -6.775   2.169  0.00  0.00    +0.162 A 
ATOM     32  C   UNL     1       3.122  -7.393   1.173  0.00  0.00    +0.053 A 
ATOM     33  C   UNL     1       3.708  -7.680  -0.046  0.00  0.00    -0.042 A 
ATOM     34  C   UNL     1       5.031  -7.351  -0.275  0.00  0.00    +0.007 A 
ATOM     35  C   UNL     1       5.775  -6.736   0.714  0.00  0.00    +0.049 A 
ATOM     36  C   UNL     1       5.193  -6.440   1.936  0.00  0.00    +0.162 A 
BRANCH  36  37
ATOM     37  O   UNL     1       5.921  -5.829   2.908  0.00  0.00    -0.491 OA
ATOM     38  C   UNL     1       7.280  -5.514   2.599  0.00  0.00    +0.277 C 
ENDBRANCH  36  37
BRANCH  31  39
ATOM     39  O   UNL     1       3.288  -6.492   3.369  0.00  0.00    -0.489 OA
BRANCH  39  41
ATOM     40  C   UNL     1       1.451  -6.470   4.938  0.00  0.00    +0.048 C 
ATOM     41  C   UNL     1       1.919  -6.865   3.537  0.00  0.00    +0.226 C 
ENDBRANCH  39  41
ENDBRANCH  31  39
ENDBRANCH  30  33
ENDBRANCH  29  30
ENDBRANCH  25  29
ENDBRANCH   1  26
TORSDOF 10
