REMARK  Name = ZINC36601854
REMARK  12 active torsions:
REMARK  status: ('A' for Active; 'I' for Inactive)
REMARK    1  A    between atoms: C_1  and  C_2
REMARK    2  A    between atoms: C_5  and  S_8
REMARK    3  A    between atoms: S_8  and  C_11
REMARK    4  A    between atoms: C_11  and  N_12
REMARK    5  A    between atoms: C_13  and  C_15
REMARK    6  A    between atoms: C_15  and  C_17
REMARK    7  A    between atoms: C_15  and  N_24
REMARK    8  A    between atoms: N_24  and  C_25
REMARK    9  A    between atoms: C_25  and  C_26
REMARK   10  A    between atoms: C_29  and  C_31
REMARK   11  A    between atoms: C_32  and  C_34
REMARK   12  A    between atoms: C_34  and  C_36
REMARK                            x       y       z     vdW  Elec       q    Type
REMARK                         _______ _______ _______ _____ _____    ______ ____
ROOT
ATOM      1  C   UNL     1       2.318  -4.333   3.549  0.00  0.00    +0.193 C 
ENDROOT
BRANCH   1   2
ATOM      2  C   UNL     1       3.618  -4.668   2.864  0.00  0.00    -0.018 A 
ATOM      3  C   UNL     1       3.822  -5.935   2.351  0.00  0.00    +0.007 A 
ATOM      4  C   UNL     1       5.014  -6.243   1.723  0.00  0.00    +0.020 A 
ATOM      5  C   UNL     1       6.003  -5.282   1.608  0.00  0.00    +0.041 A 
ATOM      6  C   UNL     1       5.798  -4.014   2.122  0.00  0.00    +0.020 A 
ATOM      7  C   UNL     1       4.604  -3.706   2.745  0.00  0.00    +0.007 A 
ATOM      8 CL   UNL     1       7.501  -5.668   0.820  0.00  0.00    -0.084 Cl
ENDBRANCH   1   2
BRANCH   1  10
ATOM      9  N   UNL     1       1.538  -2.085   2.872  0.00  0.00    -0.294 N 
ATOM     10  C   UNL     1       1.508  -3.417   2.668  0.00  0.00    +0.239 C 
ATOM     11  O   UNL     1       0.828  -3.879   1.776  0.00  0.00    -0.273 OA
ATOM     12  H   UNL     1       2.082  -1.716   3.585  0.00  0.00    +0.150 HD
BRANCH   9  13
ATOM     13  C   UNL     1       0.751  -1.195   2.015  0.00  0.00    +0.278 C 
BRANCH  13  14
ATOM     14  S   UNL     1      -0.841  -0.843   2.811  0.00  0.00    +0.013 S 
ATOM     15  O   UNL     1      -1.430  -2.048   3.281  0.00  0.00    -0.168 OA
ATOM     16  O   UNL     1      -1.591   0.070   2.022  0.00  0.00    -0.168 OA
BRANCH  14  21
ATOM     17  C   UNL     1       0.564   2.234   7.807  0.00  0.00    +0.044 C 
ATOM     18  C   UNL     1       0.213   1.465   6.559  0.00  0.00    -0.050 A 
ATOM     19  C   UNL     1      -0.025   2.140   5.376  0.00  0.00    +0.005 A 
ATOM     20  C   UNL     1      -0.347   1.435   4.231  0.00  0.00    +0.027 A 
ATOM     21  C   UNL     1      -0.430   0.055   4.269  0.00  0.00    +0.090 A 
ATOM     22  C   UNL     1      -0.191  -0.619   5.452  0.00  0.00    +0.027 A 
ATOM     23  C   UNL     1       0.135   0.086   6.596  0.00  0.00    +0.005 A 
ENDBRANCH  14  21
ENDBRANCH  13  14
ENDBRANCH   9  13
ENDBRANCH   1  10
BRANCH   1  24
ATOM     24  N   UNL     1       1.564  -5.565   3.796  0.00  0.00    -0.275 N 
ATOM     25  C   UNL     1       2.011  -6.458   4.701  0.00  0.00    +0.243 C 
ATOM     26  O   UNL     1       1.422  -7.510   4.860  0.00  0.00    -0.270 OA
BRANCH  25  27
ATOM     27  C   UNL     1       3.212  -6.160   5.497  0.00  0.00    +0.004 C 
ATOM     28  C   UNL     1       3.926  -7.153   6.021  0.00  0.00    +0.017 C 
ATOM     29  C   UNL     1       3.632  -4.731   5.720  0.00  0.00    +0.048 C 
ENDBRANCH  25  27
BRANCH  24  30
ATOM     30  C   UNL     1       0.326  -5.827   3.059  0.00  0.00    +0.183 C 
BRANCH  30  31
ATOM     31  C   UNL     1       0.652  -6.494   1.748  0.00  0.00    +0.122 A 
ATOM     32  C   UNL     1       0.739  -7.820   1.540  0.00  0.00    +0.046 A 
ATOM     33  C   UNL     1       1.064  -8.001   0.176  0.00  0.00    +0.045 A 
ATOM     34  C   UNL     1       1.156  -6.775  -0.368  0.00  0.00    +0.102 A 
ATOM     35  O   UNL     1       0.900  -5.866   0.587  0.00  0.00    -0.463 OA
ATOM     36  C   UNL     1       1.486  -6.472  -1.807  0.00  0.00    +0.086 C 
ENDBRANCH  30  31
ENDBRANCH  24  30
ENDBRANCH   1  24
TORSDOF 9
