REMARK  Name = ZINC60207290
REMARK  12 active torsions:
REMARK  status: ('A' for Active; 'I' for Inactive)
REMARK    1  A    between atoms: C_1  and  C_2
REMARK    2  A    between atoms: C_2  and  N_3
REMARK    3  A    between atoms: N_3  and  C_4
REMARK    4  A    between atoms: N_3  and  S_6
REMARK    5  A    between atoms: C_4  and  C_5
REMARK    6  A    between atoms: S_6  and  C_9
REMARK    7  A    between atoms: C_15  and  C_20
REMARK    8  A    between atoms: N_22  and  C_23
REMARK    9  A    between atoms: C_23  and  C_24
REMARK   10  A    between atoms: N_29  and  C_31
REMARK   11  A    between atoms: C_31  and  C_32
REMARK   12  A    between atoms: C_31  and  C_33
REMARK                            x       y       z     vdW  Elec       q    Type
REMARK                         _______ _______ _______ _____ _____    ______ ____
ROOT
ATOM      1  C   UNL     1       1.872   0.368   1.494  0.00  0.00    +0.106 A 
ATOM      2  C   UNL     1       2.369   1.418   0.733  0.00  0.00    +0.030 A 
ATOM      3  C   UNL     1       2.940   2.515   1.338  0.00  0.00    +0.028 A 
ATOM      4  C   UNL     1       3.021   2.576   2.727  0.00  0.00    +0.050 A 
ATOM      5  C   UNL     1       2.516   1.511   3.494  0.00  0.00    +0.012 A 
ATOM      6  C   UNL     1       1.936   0.409   2.858  0.00  0.00    +0.039 A 
ATOM      7  C   UNL     1       2.600   1.572   4.961  0.00  0.00    +0.051 A 
ATOM      8  C   UNL     1       3.171   2.671   5.536  0.00  0.00    +0.083 A 
ATOM      9  C   UNL     1       3.678   3.746   4.686  0.00  0.00    +0.250 A 
ATOM     10  N   UNL     1       3.590   3.668   3.346  0.00  0.00    -0.322 N 
ATOM     11  O   UNL     1       4.186   4.727   5.198  0.00  0.00    -0.268 OA
ATOM     12  H   UNL     1       3.934   4.396   2.804  0.00  0.00    +0.169 HD
ENDROOT
BRANCH   7  13
ATOM     13  C   UNL     1       2.077   0.465   5.797  0.00  0.00    +0.245 C 
ATOM     14  O   UNL     1       1.678  -0.556   5.273  0.00  0.00    -0.270 OA
ATOM     15  N   UNL     1       2.043   0.591   7.139  0.00  0.00    -0.311 N 
ATOM     16  H   UNL     1       2.296   1.431   7.553  0.00  0.00    +0.149 HD
BRANCH  15  17
ATOM     17  C   UNL     1       1.624  -0.540   7.971  0.00  0.00    +0.106 C 
BRANCH  17  18
ATOM     18  C   UNL     1       1.562  -0.100   9.435  0.00  0.00    -0.011 C 
ATOM     19  C   UNL     1       2.972   0.245   9.925  0.00  0.00    +0.001 C 
ATOM     20  C   UNL     1       2.910   0.608  11.411  0.00  0.00    -0.018 C 
ATOM     21  C   UNL     1       2.294  -0.557  12.190  0.00  0.00    -0.078 C 
ATOM     22  N   UNL     1       0.939  -0.821  11.692  0.00  0.00    +0.381 N 
ATOM     23  C   UNL     1       0.996  -1.238  10.286  0.00  0.00    -0.074 C 
ATOM     24  H   UNL     1       0.384   0.019  11.770  0.00  0.00    -0.081 HD
BRANCH  22  25
ATOM     25  C   UNL     1       0.323  -1.887  12.494  0.00  0.00    -0.075 C 
ATOM     26  C   UNL     1       0.254  -1.449  13.958  0.00  0.00    -0.014 C 
ATOM     27  C   UNL     1      -1.090  -2.163  11.976  0.00  0.00    -0.014 C 
ENDBRANCH  22  25
ENDBRANCH  17  18
ENDBRANCH  15  17
ENDBRANCH   7  13
BRANCH   1  28
ATOM     28  S   UNL     1       1.146  -1.024   0.695  0.00  0.00    +0.061 S 
ATOM     29  O   UNL     1       1.354  -2.138   1.552  0.00  0.00    -0.153 OA
ATOM     30  O   UNL     1       1.602  -1.003  -0.651  0.00  0.00    -0.153 OA
BRANCH  28  31
ATOM     31  N   UNL     1      -0.488  -0.763   0.645  0.00  0.00    -0.177 NA
BRANCH  31  33
ATOM     32  C   UNL     1      -1.233   1.341  -0.355  0.00  0.00    +0.022 C 
ATOM     33  C   UNL     1      -1.100  -0.171  -0.548  0.00  0.00    +0.106 C 
ENDBRANCH  31  33
BRANCH  31  34
ATOM     34  C   UNL     1      -1.323  -1.125   1.793  0.00  0.00    +0.106 C 
ATOM     35  C   UNL     1      -1.951  -2.499   1.554  0.00  0.00    +0.022 C 
ENDBRANCH  31  34
ENDBRANCH  28  31
ENDBRANCH   1  28
TORSDOF 8
