REMARK  Name = ZINC25347536
REMARK  9 active torsions:
REMARK  status: ('A' for Active; 'I' for Inactive)
REMARK    1  A    between atoms: C_1  and  O_2
REMARK    2  A    between atoms: O_2  and  C_3
REMARK    3  A    between atoms: C_8  and  N_9
REMARK    4  A    between atoms: N_9  and  S_10
REMARK    5  A    between atoms: S_10  and  C_13
REMARK    6  A    between atoms: C_15  and  N_30
REMARK    7  A    between atoms: C_18  and  N_19
REMARK    8  A    between atoms: N_19  and  C_20
REMARK    9  A    between atoms: C_20  and  C_21
REMARK                            x       y       z     vdW  Elec       q    Type
REMARK                         _______ _______ _______ _____ _____    ______ ____
ROOT
ATOM      1  C   UNL     1      -1.999  -3.551   1.184  0.00  0.00    +0.131 A 
ATOM      2  C   UNL     1      -3.277  -3.888   0.783  0.00  0.00    +0.063 A 
ATOM      3  C   UNL     1      -4.356  -3.607   1.600  0.00  0.00    +0.128 A 
ATOM      4  C   UNL     1      -4.161  -2.988   2.821  0.00  0.00    +0.034 A 
ATOM      5  C   UNL     1      -2.886  -2.648   3.228  0.00  0.00    +0.027 A 
ATOM      6  C   UNL     1      -1.798  -2.934   2.412  0.00  0.00    +0.055 A 
ENDROOT
BRANCH   1   7
ATOM      7  S   UNL     1      -0.624  -3.909   0.142  0.00  0.00    +0.074 S 
ATOM      8  O   UNL     1       0.133  -2.711   0.042  0.00  0.00    -0.150 OA
ATOM      9  O   UNL     1      -1.143  -4.580  -0.998  0.00  0.00    -0.150 OA
BRANCH   7  10
ATOM     10  N   UNL     1       0.326  -5.003   0.944  0.00  0.00    -0.213 N 
ATOM     11  H   UNL     1       1.245  -4.780   1.161  0.00  0.00    +0.174 HD
BRANCH  10  17
ATOM     12  C   UNL     1       0.199  -6.851   2.502  0.00  0.00    +0.142 A 
ATOM     13  C   UNL     1      -0.326  -8.081   2.861  0.00  0.00    +0.047 A 
ATOM     14  C   UNL     1      -1.237  -8.712   2.034  0.00  0.00    +0.004 A 
ATOM     15  C   UNL     1      -1.627  -8.118   0.848  0.00  0.00    +0.002 A 
ATOM     16  C   UNL     1      -1.107  -6.891   0.482  0.00  0.00    +0.028 A 
ATOM     17  C   UNL     1      -0.197  -6.249   1.309  0.00  0.00    +0.090 A 
BRANCH  12  19
ATOM     18  C   UNL     1       1.456  -6.904   4.520  0.00  0.00    +0.277 C 
ATOM     19  O   UNL     1       1.096  -6.229   3.314  0.00  0.00    -0.493 OA
ENDBRANCH  12  19
ENDBRANCH  10  17
ENDBRANCH   7  10
ENDBRANCH   1   7
BRANCH   3  20
ATOM     20  N   UNL     1      -5.724  -3.969   1.167  0.00  0.00    +0.056 N 
ATOM     21  O   UNL     1      -5.897  -4.510   0.100  0.00  0.00    -0.126 OA
ATOM     22  O   UNL     1      -6.669  -3.724   1.881  0.00  0.00    -0.126 OA
ENDBRANCH   3  20
BRANCH   6  23
ATOM     23  N   UNL     1      -0.507  -2.597   2.824  0.00  0.00    -0.337 N 
ATOM     24  H   UNL     1       0.258  -2.865   2.290  0.00  0.00    +0.147 HD
BRANCH  23  25
ATOM     25  C   UNL     1      -0.306  -1.838   4.061  0.00  0.00    +0.156 C 
BRANCH  25  26
ATOM     26  C   UNL     1       1.155  -1.501   4.213  0.00  0.00    +0.051 A 
ATOM     27  C   UNL     1       2.059  -2.215   4.918  0.00  0.00    +0.115 A 
ATOM     28  N   UNL     1       3.261  -1.573   4.800  0.00  0.00    -0.308 N 
ATOM     29  C   UNL     1       4.504  -1.842   5.297  0.00  0.00    +0.092 A 
ATOM     30  C   UNL     1       5.545  -1.027   5.022  0.00  0.00    +0.018 A 
ATOM     31  C   UNL     1       5.361   0.111   4.220  0.00  0.00    +0.005 A 
ATOM     32  C   UNL     1       4.128   0.391   3.719  0.00  0.00    +0.045 A 
ATOM     33  C   UNL     1       3.052  -0.470   4.014  0.00  0.00    +0.115 A 
ATOM     34  N   UNL     1       1.772  -0.451   3.667  0.00  0.00    -0.342 N 
ATOM     35  H   UNL     1       1.351   0.221   3.108  0.00  0.00    +0.167 HD
ENDBRANCH  25  26
ENDBRANCH  23  25
ENDBRANCH   6  23
TORSDOF 8
