REMARK  Name = ZINC01290798
REMARK  5 active torsions:
REMARK  status: ('A' for Active; 'I' for Inactive)
REMARK    1  A    between atoms: C_1  and  C_2
REMARK    2  A    between atoms: C_8  and  C_10
REMARK    3  A    between atoms: C_10  and  S_11
REMARK    4  A    between atoms: S_11  and  C_12
REMARK    5  A    between atoms: C_14  and  C_21
REMARK                            x       y       z     vdW  Elec       q    Type
REMARK                         _______ _______ _______ _____ _____    ______ ____
ROOT
ATOM      1  C   UNL     1      -8.008   3.660   5.668  0.00  0.00    +0.109 A 
ATOM      2  C   UNL     1      -8.671   4.295   6.753  0.00  0.00    +0.047 A 
ATOM      3  C   UNL     1      -8.130   4.790   8.014  0.00  0.00    +0.001 A 
ATOM      4  C   UNL     1      -8.972   5.372   8.900  0.00  0.00    +0.056 A 
ATOM      5  S   UNL     1     -10.554   5.296   8.083  0.00  0.00    -0.076 S 
ATOM      6  C   UNL     1     -10.057   4.492   6.583  0.00  0.00    +0.113 A 
ATOM      7  N   UNL     1     -10.678   4.098   5.488  0.00  0.00    -0.228 NA
ATOM      8  C   UNL     1     -10.009   3.509   4.515  0.00  0.00    +0.223 A 
ATOM      9  N   UNL     1      -8.709   3.296   4.605  0.00  0.00    -0.229 NA
ENDROOT
BRANCH   3  10
ATOM     10  C   UNL     1      -6.687   4.652   8.322  0.00  0.00    -0.017 A 
ATOM     11  C   UNL     1      -6.277   3.956   9.459  0.00  0.00    +0.009 A 
ATOM     12  C   UNL     1      -4.932   3.827   9.738  0.00  0.00    +0.016 A 
ATOM     13  C   UNL     1      -3.990   4.395   8.897  0.00  0.00    +0.018 A 
ATOM     14  C   UNL     1      -4.391   5.091   7.770  0.00  0.00    +0.016 A 
ATOM     15  C   UNL     1      -5.734   5.222   7.479  0.00  0.00    +0.009 A 
ATOM     16 BR   UNL     1      -2.149   4.219   9.290  0.00  0.00    -0.050 Br
ENDBRANCH   3  10
BRANCH   1  17
ATOM     17  S   UNL     1      -6.274   3.354   5.739  0.00  0.00    -0.096 S 
BRANCH  17  18
ATOM     18  C   UNL     1      -6.030   2.550   4.136  0.00  0.00    +0.172 C 
BRANCH  18  26
ATOM     19  C   UNL     1      -0.255  -0.282   0.533  0.00  0.00    +0.066 C 
ATOM     20  C   UNL     1      -0.926   0.399   1.698  0.00  0.00    +0.047 A 
ATOM     21  C   UNL     1      -0.212   0.774   2.787  0.00  0.00    +0.071 A 
ATOM     22  S   UNL     1      -1.497   1.500   3.793  0.00  0.00    -0.060 S 
ATOM     23  C   UNL     1      -2.817   1.241   2.695  0.00  0.00    +0.165 A 
ATOM     24  N   UNL     1      -2.220   0.650   1.678  0.00  0.00    -0.230 NA
ATOM     25  N   UNL     1      -4.158   1.575   2.847  0.00  0.00    -0.264 N 
ATOM     26  C   UNL     1      -4.577   2.188   3.972  0.00  0.00    +0.229 C 
ATOM     27  O   UNL     1      -3.784   2.447   4.852  0.00  0.00    -0.275 OA
ATOM     28  H   UNL     1      -4.792   1.368   2.143  0.00  0.00    +0.157 HD
ENDBRANCH  18  26
ENDBRANCH  17  18
ENDBRANCH   1  17
TORSDOF 4
