REMARK  Name = ZINC21314892
REMARK  8 active torsions:
REMARK  status: ('A' for Active; 'I' for Inactive)
REMARK    1  A    between atoms: C_1  and  C_2
REMARK    2  A    between atoms: C_2  and  N_3
REMARK    3  A    between atoms: N_3  and  C_4
REMARK    4  A    between atoms: C_4  and  N_6
REMARK    5  A    between atoms: N_16  and  C_17
REMARK    6  A    between atoms: C_17  and  C_18
REMARK    7  A    between atoms: N_27  and  C_32
REMARK    8  A    between atoms: N_30  and  C_31
REMARK                            x       y       z     vdW  Elec       q    Type
REMARK                         _______ _______ _______ _____ _____    ______ ____
ROOT
ATOM      1  N   UNL     1      -0.275   1.224   0.794  0.00  0.00    -0.310 N 
ATOM      2  C   UNL     1       0.715   1.329  -0.289  0.00  0.00    +0.126 C 
ATOM      3  C   UNL     1      -0.018   1.656  -1.594  0.00  0.00    +0.127 C 
ATOM      4  N   UNL     1      -0.852   2.849  -1.398  0.00  0.00    -0.298 N 
ATOM      5  C   UNL     1      -1.896   2.609  -0.393  0.00  0.00    +0.127 C 
ATOM      6  C   UNL     1      -1.240   2.321   0.962  0.00  0.00    +0.126 C 
ATOM      7  C   UNL     1      -1.400   3.268  -2.588  0.00  0.00    +0.201 A 
ATOM      8  N   UNL     1      -1.619   2.502  -3.638  0.00  0.00    -0.196 NA
ATOM      9  C   UNL     1      -2.162   3.221  -4.621  0.00  0.00    +0.170 A 
ATOM     10  C   UNL     1      -2.285   4.530  -4.166  0.00  0.00    +0.153 A 
ATOM     11  N   UNL     1      -1.794   4.539  -2.867  0.00  0.00    -0.302 N 
ATOM     12  C   UNL     1      -2.831   5.505  -5.019  0.00  0.00    +0.282 A 
ATOM     13  O   UNL     1      -2.949   6.658  -4.640  0.00  0.00    -0.265 OA
ATOM     14  N   UNL     1      -3.223   5.152  -6.260  0.00  0.00    -0.262 N 
ATOM     15  C   UNL     1      -3.100   3.885  -6.691  0.00  0.00    +0.333 A 
ATOM     16  O   UNL     1      -3.464   3.602  -7.816  0.00  0.00    -0.246 OA
ATOM     17  N   UNL     1      -2.582   2.920  -5.907  0.00  0.00    -0.280 N 
ATOM     18  C   UNL     1      -2.464   1.550  -6.413  0.00  0.00    +0.155 C 
ATOM     19  C   UNL     1      -3.792   6.165  -7.153  0.00  0.00    +0.157 C 
ENDROOT
BRANCH   1  20
ATOM     20  C   UNL     1      -0.300   0.149   1.607  0.00  0.00    +0.133 C 
ATOM     21  S   UNL     1      -1.544  -0.015   2.771  0.00  0.00    -0.019 S 
BRANCH  20  22
ATOM     22  N   UNL     1       0.655  -0.797   1.503  0.00  0.00    -0.327 N 
ATOM     23  H   UNL     1       1.500  -0.651   0.815  0.00  0.00    +0.148 HD
BRANCH  22  25
ATOM     24  C   UNL     1       1.765  -2.918   2.001  0.00  0.00    +0.024 C 
ATOM     25  C   UNL     1       0.566  -2.019   2.306  0.00  0.00    +0.100 C 
ENDBRANCH  22  25
ENDBRANCH  20  22
ENDBRANCH   1  20
BRANCH  11  26
ATOM     26  C   UNL     1      -1.714   5.695  -1.971  0.00  0.00    +0.160 C 
BRANCH  26  27
ATOM     27  C   UNL     1      -0.343   6.312  -2.067  0.00  0.00    -0.027 A 
ATOM     28  C   UNL     1       0.666   5.888  -1.223  0.00  0.00    +0.008 A 
ATOM     29  C   UNL     1       1.926   6.449  -1.314  0.00  0.00    +0.038 A 
ATOM     30  C   UNL     1       2.174   7.446  -2.243  0.00  0.00    +0.123 A 
ATOM     31  C   UNL     1       1.161   7.874  -3.084  0.00  0.00    +0.038 A 
ATOM     32  C   UNL     1      -0.097   7.307  -2.995  0.00  0.00    +0.008 A 
ATOM     33  F   UNL     1       3.403   7.999  -2.329  0.00  0.00    -0.205 F 
ENDBRANCH  26  27
ENDBRANCH  11  26
TORSDOF 5
