REMARK  Name = ZINC23788867
REMARK  12 active torsions:
REMARK  status: ('A' for Active; 'I' for Inactive)
REMARK    1  A    between atoms: C_1  and  C_2
REMARK    2  A    between atoms: C_2  and  C_26
REMARK    3  A    between atoms: N_5  and  C_9
REMARK    4  A    between atoms: C_9  and  C_10
REMARK    5  A    between atoms: N_12  and  C_13
REMARK    6  A    between atoms: C_13  and  C_14
REMARK    7  A    between atoms: C_14  and  C_16
REMARK    8  A    between atoms: C_14  and  N_23
REMARK    9  A    between atoms: N_23  and  C_24
REMARK   10  A    between atoms: N_23  and  C_25
REMARK   11  A    between atoms: C_29  and  O_32
REMARK   12  A    between atoms: O_32  and  C_33
REMARK                            x       y       z     vdW  Elec       q    Type
REMARK                         _______ _______ _______ _____ _____    ______ ____
ROOT
ATOM      1  C   UNL     1      -2.902   5.676   1.130  0.00  0.00    +0.213 C 
ENDROOT
BRANCH   1   6
ATOM      2  C   UNL     1      -4.891   9.418  -0.897  0.00  0.00    +0.047 C 
ATOM      3  C   UNL     1      -4.610   8.918   0.521  0.00  0.00    +0.135 C 
ATOM      4  C   UNL     1      -4.598   7.402   0.559  0.00  0.00    +0.251 C 
ATOM      5  O   UNL     1      -5.513   6.656   0.288  0.00  0.00    -0.272 OA
ATOM      6  N   UNL     1      -3.357   7.058   0.956  0.00  0.00    -0.215 N 
ATOM      7  C   UNL     1      -2.593   8.134   1.176  0.00  0.00    +0.310 C 
ATOM      8  O   UNL     1      -1.436   8.077   1.545  0.00  0.00    -0.252 OA
ATOM      9  N   UNL     1      -3.247   9.286   0.940  0.00  0.00    -0.281 N 
ATOM     10  H   UNL     1      -2.958  10.345   1.003  0.00  0.00    +0.152 HD
BRANCH   3  11
ATOM     11  C   UNL     1      -5.628   9.464   1.489  0.00  0.00    -0.015 A 
ATOM     12  C   UNL     1      -6.768   8.736   1.776  0.00  0.00    +0.010 A 
ATOM     13  C   UNL     1      -7.699   9.232   2.668  0.00  0.00    +0.046 A 
ATOM     14  C   UNL     1      -7.496  10.467   3.266  0.00  0.00    +0.120 A 
ATOM     15  C   UNL     1      -6.354  11.198   2.972  0.00  0.00    +0.046 A 
ATOM     16  C   UNL     1      -5.423  10.695   2.084  0.00  0.00    +0.010 A 
BRANCH  14  17
ATOM     17  O   UNL     1      -8.414  10.960   4.138  0.00  0.00    -0.495 OA
ATOM     18  C   UNL     1      -9.565  10.153   4.394  0.00  0.00    +0.277 C 
ENDBRANCH  14  17
ENDBRANCH   3  11
ENDBRANCH   1   6
BRANCH   1  19
ATOM     19  C   UNL     1      -2.322   5.171  -0.166  0.00  0.00    +0.231 C 
ATOM     20  O   UNL     1      -2.291   5.894  -1.139  0.00  0.00    -0.274 OA
ATOM     21  N   UNL     1      -1.837   3.916  -0.243  0.00  0.00    -0.315 N 
ATOM     22  H   UNL     1      -1.865   3.260   0.639  0.00  0.00    +0.149 HD
BRANCH  21  23
ATOM     23  C   UNL     1      -1.273   3.425  -1.503  0.00  0.00    +0.093 C 
BRANCH  23  24
ATOM     24  C   UNL     1      -0.653   2.044  -1.280  0.00  0.00    -0.020 C 
BRANCH  24  25
ATOM     25  C   UNL     1      -0.180   1.487  -2.598  0.00  0.00    -0.041 A 
ATOM     26  C   UNL     1       1.168   1.480  -2.902  0.00  0.00    +0.003 A 
ATOM     27  C   UNL     1       1.603   0.966  -4.109  0.00  0.00    +0.000 A 
ATOM     28  C   UNL     1       0.688   0.466  -5.018  0.00  0.00    +0.001 A 
ATOM     29  C   UNL     1      -0.661   0.477  -4.717  0.00  0.00    +0.020 A 
ATOM     30  C   UNL     1      -1.096   0.988  -3.507  0.00  0.00    +0.043 A 
ATOM     31 CL   UNL     1      -2.791   1.002  -3.129  0.00  0.00    -0.083 Cl
ENDBRANCH  24  25
BRANCH  24  32
ATOM     32  N   UNL     1       0.486   2.161  -0.361  0.00  0.00    +0.382 N 
ATOM     33  C   UNL     1       1.273   3.367  -0.649  0.00  0.00    -0.096 C 
ATOM     34  C   UNL     1       0.038   2.147   1.038  0.00  0.00    -0.096 C 
ATOM     35  H   UNL     1       1.137   1.287  -0.516  0.00  0.00    -0.082 HD
ENDBRANCH  24  32
ENDBRANCH  23  24
ENDBRANCH  21  23
ENDBRANCH   1  19
TORSDOF 8
