REMARK  Name = ZINC36495110
REMARK  20 active torsions:
REMARK  status: ('A' for Active; 'I' for Inactive)
REMARK    1  A    between atoms: C_1  and  C_2
REMARK    2  A    between atoms: C_2  and  C_3
REMARK    3  A    between atoms: C_2  and  C_4
REMARK    4  A    between atoms: C_2  and  C_5
REMARK    5  A    between atoms: C_5  and  C_6
REMARK    6  A    between atoms: C_6  and  C_7
REMARK    7  A    between atoms: C_6  and  C_8
REMARK    8  A    between atoms: C_6  and  N_9
REMARK    9  A    between atoms: C_10  and  C_12
REMARK   10  A    between atoms: C_12  and  C_14
REMARK   11  A    between atoms: C_12  and  N_23
REMARK   12  A    between atoms: C_17  and  N_20
REMARK   13  A    between atoms: N_20  and  C_21
REMARK   14  A    between atoms: N_20  and  C_22
REMARK   15  A    between atoms: N_23  and  C_24
REMARK   16  A    between atoms: C_24  and  C_25
REMARK   17  A    between atoms: C_30  and  C_32
REMARK   18  A    between atoms: C_32  and  C_34
REMARK   19  A    between atoms: C_32  and  O_40
REMARK   20  A    between atoms: O_40  and  C_41
REMARK                            x       y       z     vdW  Elec       q    Type
REMARK                         _______ _______ _______ _____ _____    ______ ____
ROOT
ATOM      1  C   UNL     1       2.912   0.837  -5.173  0.00  0.00    +0.193 C 
ENDROOT
BRANCH   1   2
ATOM      2  C   UNL     1       2.685   0.465  -6.616  0.00  0.00    -0.018 A 
ATOM      3  C   UNL     1       3.730  -0.028  -7.375  0.00  0.00    +0.008 A 
ATOM      4  C   UNL     1       3.525  -0.369  -8.697  0.00  0.00    +0.023 A 
ATOM      5  C   UNL     1       2.267  -0.217  -9.265  0.00  0.00    +0.029 A 
ATOM      6  C   UNL     1       1.218   0.279  -8.500  0.00  0.00    +0.023 A 
ATOM      7  C   UNL     1       1.429   0.613  -7.177  0.00  0.00    +0.008 A 
BRANCH   5   8
ATOM      8  N   UNL     1       2.056  -0.561 -10.602  0.00  0.00    -0.336 N 
ATOM      9  C   UNL     1       3.163  -1.083 -11.408  0.00  0.00    +0.129 C 
ATOM     10  C   UNL     1       0.728  -0.400 -11.199  0.00  0.00    +0.129 C 
ENDBRANCH   5   8
ENDBRANCH   1   2
BRANCH   1  12
ATOM     11  N   UNL     1       2.704  -1.489  -4.357  0.00  0.00    -0.308 N 
ATOM     12  C   UNL     1       3.438  -0.360  -4.423  0.00  0.00    +0.239 C 
ATOM     13  O   UNL     1       4.520  -0.307  -3.880  0.00  0.00    -0.273 OA
ATOM     14  H   UNL     1       1.838  -1.531  -4.792  0.00  0.00    +0.149 HD
BRANCH  11  15
ATOM     15  C   UNL     1       3.215  -2.652  -3.628  0.00  0.00    +0.030 C 
ATOM     16  C   UNL     1       3.705  -2.214  -2.247  0.00  0.00    +0.031 C 
ATOM     17  C   UNL     1       4.376  -3.273  -4.407  0.00  0.00    +0.031 C 
BRANCH  15  18
ATOM     18  C   UNL     1       2.097  -3.685  -3.468  0.00  0.00    +0.031 C 
BRANCH  18  20
ATOM     19  C   UNL     1       0.134  -2.590  -4.559  0.00  0.00    +0.010 C 
ATOM     20  C   UNL     1       0.770  -2.966  -3.219  0.00  0.00    -0.036 C 
ATOM     21  C   UNL     1       1.023  -1.698  -2.401  0.00  0.00    +0.010 C 
ATOM     22  C   UNL     1      -0.174  -3.890  -2.448  0.00  0.00    +0.010 C 
ENDBRANCH  18  20
ENDBRANCH  15  18
ENDBRANCH  11  15
ENDBRANCH   1  12
BRANCH   1  23
ATOM     23  N   UNL     1       3.888   1.927  -5.098  0.00  0.00    -0.276 N 
ATOM     24  C   UNL     1       3.513   3.136  -4.635  0.00  0.00    +0.250 C 
ATOM     25  O   UNL     1       2.356   3.337  -4.332  0.00  0.00    -0.272 OA
BRANCH  23  26
ATOM     26  C   UNL     1       5.271   1.704  -5.527  0.00  0.00    +0.183 C 
BRANCH  26  27
ATOM     27  C   UNL     1       5.455   2.234  -6.925  0.00  0.00    +0.122 A 
ATOM     28  C   UNL     1       5.641   3.523  -7.260  0.00  0.00    +0.046 A 
ATOM     29  C   UNL     1       5.767   3.567  -8.667  0.00  0.00    +0.041 A 
ATOM     30  C   UNL     1       5.650   2.302  -9.109  0.00  0.00    +0.195 A 
ATOM     31  O   UNL     1       5.467   1.498  -8.049  0.00  0.00    -0.466 OA
ENDBRANCH  26  27
ENDBRANCH  23  26
BRANCH  24  32
ATOM     32  C   UNL     1       4.532   4.237  -4.492  0.00  0.00    +0.233 C 
BRANCH  32  33
ATOM     33  C   UNL     1       5.080   4.236  -3.089  0.00  0.00    -0.010 A 
ATOM     34  C   UNL     1       4.399   4.892  -2.080  0.00  0.00    +0.006 A 
ATOM     35  C   UNL     1       4.902   4.891  -0.792  0.00  0.00    +0.000 A 
ATOM     36  C   UNL     1       6.086   4.234  -0.513  0.00  0.00    +0.000 A 
ATOM     37  C   UNL     1       6.766   3.578  -1.522  0.00  0.00    +0.000 A 
ATOM     38  C   UNL     1       6.261   3.575  -2.808  0.00  0.00    +0.006 A 
ENDBRANCH  32  33
BRANCH  32  39
ATOM     39  O   UNL     1       3.912   5.497  -4.761  0.00  0.00    -0.366 OA
ATOM     40  C   UNL     1       3.966   5.890  -6.134  0.00  0.00    +0.195 C 
ENDBRANCH  32  39
ENDBRANCH  24  32
ENDBRANCH   1  23
TORSDOF 12
