REMARK  Name = ZINC36186909
REMARK  7 active torsions:
REMARK  status: ('A' for Active; 'I' for Inactive)
REMARK    1  A    between atoms: C_1  and  O_2
REMARK    2  A    between atoms: O_2  and  C_3
REMARK    3  A    between atoms: C_6  and  O_33
REMARK    4  A    between atoms: C_7  and  C_9
REMARK    5  A    between atoms: C_10  and  C_11
REMARK    6  A    between atoms: C_11  and  C_12
REMARK    7  A    between atoms: O_33  and  C_34
REMARK                            x       y       z     vdW  Elec       q    Type
REMARK                         _______ _______ _______ _____ _____    ______ ____
ROOT
ATOM      1  C   UNL     1       0.220  -7.072  -0.313  0.00  0.00    +0.153 C 
ATOM      2  C   UNL     1       0.915  -8.438  -0.271  0.00  0.00    +0.050 C 
ATOM      3  C   UNL     1       0.970  -9.009  -1.663  0.00  0.00    -0.001 A 
ATOM      4  C   UNL     1       1.956  -8.566  -2.529  0.00  0.00    +0.007 A 
ATOM      5  C   UNL     1       2.034  -9.067  -3.813  0.00  0.00    +0.001 A 
ATOM      6  C   UNL     1       1.125 -10.017  -4.241  0.00  0.00    +0.004 A 
ATOM      7  C   UNL     1       0.141 -10.464  -3.383  0.00  0.00    +0.046 A 
ATOM      8  C   UNL     1       0.061  -9.962  -2.088  0.00  0.00    +0.127 A 
ATOM      9  O   UNL     1      -0.914 -10.431  -1.268  0.00  0.00    -0.468 OA
ATOM     10  C   UNL     1      -1.225  -9.663  -0.099  0.00  0.00    +0.181 C 
ATOM     11  C   UNL     1       0.097  -9.351   0.656  0.00  0.00    +0.060 C 
ATOM     12  C   UNL     1      -0.183  -8.593   1.956  0.00  0.00    +0.010 C 
ATOM     13  C   UNL     1      -1.082  -9.432   2.864  0.00  0.00    +0.001 C 
ATOM     14  C   UNL     1      -2.409  -9.700   2.149  0.00  0.00    +0.006 C 
ATOM     15  C   UNL     1      -2.151 -10.485   0.797  0.00  0.00    +0.069 C 
ATOM     16  N   UNL     1      -1.877  -8.421  -0.494  0.00  0.00    -0.277 N 
ATOM     17  C   UNL     1      -1.245  -7.255  -0.589  0.00  0.00    +0.227 C 
ATOM     18  O   UNL     1      -1.885  -6.292  -0.954  0.00  0.00    -0.275 OA
ATOM     19  H   UNL     1      -2.829  -8.443  -0.683  0.00  0.00    +0.152 HD
ENDROOT
BRANCH   1  20
ATOM     20  C   UNL     1       0.834  -6.231  -1.402  0.00  0.00    +0.169 C 
ATOM     21  O   UNL     1       0.333  -6.211  -2.509  0.00  0.00    -0.292 OA
BRANCH  20  23
ATOM     22  C   UNL     1       2.540  -4.712  -2.118  0.00  0.00    +0.015 C 
ATOM     23  C   UNL     1       1.988  -5.469  -1.137  0.00  0.00    +0.048 C 
BRANCH  22  28
ATOM     24  C   UNL     1       5.454  -3.187  -0.316  0.00  0.00    +0.121 A 
ATOM     25  C   UNL     1       6.018  -2.412  -1.324  0.00  0.00    +0.049 A 
ATOM     26  C   UNL     1       5.453  -2.385  -2.584  0.00  0.00    +0.050 A 
ATOM     27  C   UNL     1       4.317  -3.132  -2.854  0.00  0.00    +0.127 A 
ATOM     28  C   UNL     1       3.742  -3.918  -1.842  0.00  0.00    +0.020 A 
ATOM     29  C   UNL     1       4.326  -3.942  -0.569  0.00  0.00    +0.057 A 
BRANCH  24  31
ATOM     30  C   UNL     1       7.185  -2.401   1.113  0.00  0.00    +0.277 C 
ATOM     31  O   UNL     1       6.019  -3.205   0.920  0.00  0.00    -0.495 OA
ENDBRANCH  24  31
BRANCH  27  32
ATOM     32  O   UNL     1       3.763  -3.104  -4.093  0.00  0.00    -0.495 OA
ATOM     33  C   UNL     1       4.403  -2.283  -5.072  0.00  0.00    +0.277 C 
ENDBRANCH  27  32
ENDBRANCH  22  28
ENDBRANCH  20  23
ENDBRANCH   1  20
TORSDOF 5
