REMARK  Name = ZINC14467858
REMARK  7 active torsions:
REMARK  status: ('A' for Active; 'I' for Inactive)
REMARK    1  A    between atoms: C_1  and  C_2
REMARK    2  A    between atoms: C_2  and  C_3
REMARK    3  A    between atoms: C_3  and  C_5
REMARK    4  A    between atoms: C_3  and  N_6
REMARK    5  A    between atoms: C_7  and  C_9
REMARK    6  A    between atoms: C_16  and  C_25
REMARK    7  A    between atoms: C_30  and  O_31
REMARK                            x       y       z     vdW  Elec       q    Type
REMARK                         _______ _______ _______ _____ _____    ______ ____
ROOT
ATOM      1  C   UNL     1       1.608   0.195  -3.306  0.00  0.00    +0.058 A 
ATOM      2  C   UNL     1       0.840   0.004  -4.453  0.00  0.00    +0.015 A 
ATOM      3  C   UNL     1      -0.462   0.453  -4.495  0.00  0.00    +0.001 A 
ATOM      4  C   UNL     1      -1.003   1.101  -3.396  0.00  0.00    +0.006 A 
ATOM      5  C   UNL     1      -0.256   1.305  -2.257  0.00  0.00    -0.019 A 
ATOM      6  C   UNL     1       1.063   0.849  -2.181  0.00  0.00    +0.044 A 
ATOM      7  N   UNL     1       1.875   0.992  -1.068  0.00  0.00    -0.336 N 
ATOM      8  C   UNL     1       1.326   1.762   0.060  0.00  0.00    +0.109 C 
ATOM      9  C   UNL     1      -0.139   1.395   0.177  0.00  0.00    +0.029 C 
ATOM     10  C   UNL     1      -0.804   2.025  -1.086  0.00  0.00    +0.049 C 
ATOM     11  C   UNL     1      -2.250   1.995  -0.754  0.00  0.00    -0.023 C 
ATOM     12  C   UNL     1      -2.381   2.063   0.567  0.00  0.00    -0.030 C 
ATOM     13  C   UNL     1      -0.978   2.105   1.245  0.00  0.00    +0.033 C 
ATOM     14  H   UNL     1       2.226   0.098  -0.759  0.00  0.00    +0.147 HD
ENDROOT
BRANCH   8  15
ATOM     15  C   UNL     1       2.050   1.398   1.331  0.00  0.00    +0.017 A 
ATOM     16  C   UNL     1       1.474   0.517   2.227  0.00  0.00    +0.029 A 
ATOM     17  C   UNL     1       2.140   0.179   3.391  0.00  0.00    +0.043 A 
ATOM     18  C   UNL     1       3.379   0.729   3.666  0.00  0.00    +0.043 A 
ATOM     19  C   UNL     1       3.956   1.614   2.776  0.00  0.00    +0.084 A 
ATOM     20  C   UNL     1       3.291   1.951   1.604  0.00  0.00    +0.140 A 
ATOM     21 CL   UNL     1       5.511   2.305   3.121  0.00  0.00    -0.080 Cl
ATOM     22 CL   UNL     1       1.417  -0.933   4.511  0.00  0.00    -0.083 Cl
BRANCH  20  23
ATOM     23  O   UNL     1       3.857   2.822   0.727  0.00  0.00    -0.505 OA
ATOM     24  H   UNL     1       3.652   3.750   0.905  0.00  0.00    +0.292 HD
ENDBRANCH  20  23
ENDBRANCH   8  15
BRANCH   1  26
ATOM     25  N   UNL     1       3.526  -0.914  -4.340  0.00  0.00    -0.309 N 
ATOM     26  C   UNL     1       3.000  -0.289  -3.268  0.00  0.00    +0.246 C 
ATOM     27  O   UNL     1       3.675  -0.124  -2.269  0.00  0.00    -0.270 OA
ATOM     28  H   UNL     1       2.988  -1.045  -5.137  0.00  0.00    +0.149 HD
BRANCH  25  29
ATOM     29  C   UNL     1       4.909  -1.395  -4.303  0.00  0.00    +0.070 C 
ATOM     30  C   UNL     1       4.949  -2.782  -3.658  0.00  0.00    +0.028 C 
BRANCH  29  32
ATOM     31  C   UNL     1       5.535  -0.074  -6.329  0.00  0.00    +0.005 C 
ATOM     32  C   UNL     1       5.459  -1.479  -5.728  0.00  0.00    +0.018 C 
ENDBRANCH  29  32
ENDBRANCH  25  29
ENDBRANCH   1  26
TORSDOF 5
