REMARK  Name = ZINC00159406
REMARK  3 active torsions:
REMARK  status: ('A' for Active; 'I' for Inactive)
REMARK    1  A    between atoms: C_7  and  N_10
REMARK    2  A    between atoms: N_13  and  C_14
REMARK    3  A    between atoms: C_14  and  C_15
REMARK                            x       y       z     vdW  Elec       q    Type
REMARK                         _______ _______ _______ _____ _____    ______ ____
ROOT
ATOM      1  N   UNL     1       0.359  -3.041  -0.018  0.00  0.00    -0.268 N 
ATOM      2  C   UNL     1       0.570  -4.367  -0.129  0.00  0.00    +0.304 C 
ATOM      3  O   UNL     1       1.705  -4.803  -0.144  0.00  0.00    -0.253 OA
ATOM      4  N   UNL     1      -0.477  -5.211  -0.225  0.00  0.00    -0.296 N 
ATOM      5  H   UNL     1      -0.544  -2.700   0.073  0.00  0.00    +0.156 HD
ATOM      6  H   UNL     1      -1.382  -4.863  -0.214  0.00  0.00    +0.150 HD
ENDROOT
BRANCH   1  13
ATOM      7  C   UNL     1      -0.020   1.355  -0.088  0.00  0.00    +0.001 A 
ATOM      8  C   UNL     1       1.153   2.097  -0.101  0.00  0.00    +0.001 A 
ATOM      9  C   UNL     1       2.371   1.446  -0.092  0.00  0.00    +0.016 A 
ATOM     10  C   UNL     1       2.403   0.068  -0.070  0.00  0.00    +0.021 A 
ATOM     11  C   UNL     1       1.226  -0.710  -0.056  0.00  0.00    +0.010 A 
ATOM     12  C   UNL     1      -0.000  -0.005  -0.066  0.00  0.00    +0.011 A 
ATOM     13  C   UNL     1       1.449  -2.151  -0.034  0.00  0.00    +0.050 A 
ATOM     14  C   UNL     1       2.710  -2.619  -0.028  0.00  0.00    +0.069 A 
ATOM     15  S   UNL     1       3.704  -1.139  -0.052  0.00  0.00    -0.095 S 
ENDBRANCH   1  13
BRANCH   4  16
ATOM     16  C   UNL     1      -0.247  -6.653  -0.346  0.00  0.00    +0.153 C 
BRANCH  16  17
ATOM     17  C   UNL     1      -1.592  -7.377  -0.438  0.00  0.00    +0.228 C 
ATOM     18  C   UNL     1      -1.358  -8.890  -0.551  0.00  0.00    +0.275 C 
ATOM     19  O   UNL     1      -2.633  -9.537  -0.620  0.00  0.00    -0.485 OA
ATOM     20  C   UNL     1      -3.573  -9.133   0.278  0.00  0.00    +0.162 A 
ATOM     21  C   UNL     1      -4.678  -9.937   0.514  0.00  0.00    +0.049 A 
ATOM     22  C   UNL     1      -5.643  -9.539   1.420  0.00  0.00    +0.004 A 
ATOM     23  C   UNL     1      -5.509  -8.339   2.094  0.00  0.00    +0.004 A 
ATOM     24  C   UNL     1      -4.410  -7.534   1.864  0.00  0.00    +0.049 A 
ATOM     25  C   UNL     1      -3.437  -7.928   0.957  0.00  0.00    +0.163 A 
ATOM     26  O   UNL     1      -2.356  -7.128   0.747  0.00  0.00    -0.480 OA
ENDBRANCH  16  17
ENDBRANCH   4  16
TORSDOF 3
