REMARK  Name = ZINC55301520
REMARK  5 active torsions:
REMARK  status: ('A' for Active; 'I' for Inactive)
REMARK    1  A    between atoms: C_1  and  N_2
REMARK    2  A    between atoms: C_5  and  C_14
REMARK    3  A    between atoms: N_9  and  C_12
REMARK    4  A    between atoms: C_14  and  C_16
REMARK    5  A    between atoms: C_14  and  N_23
REMARK                            x       y       z     vdW  Elec       q    Type
REMARK                         _______ _______ _______ _____ _____    ______ ____
ROOT
ATOM      1  C   UNL     1      -0.018   1.461   0.010  0.00  0.00    +0.154 C 
ATOM      2  N   UNL     1       0.002  -0.004   0.002  0.00  0.00    -0.295 N 
ATOM      3  C   UNL     1      -1.117  -0.835   0.003  0.00  0.00    +0.070 A 
ATOM      4  C   UNL     1      -2.482  -0.592   0.011  0.00  0.00    +0.031 A 
ATOM      5  C   UNL     1      -3.368  -1.651   0.010  0.00  0.00    -0.043 A 
ATOM      6  C   UNL     1      -2.899  -2.954   0.001  0.00  0.00    +0.022 A 
ATOM      7  C   UNL     1      -1.541  -3.206  -0.007  0.00  0.00    +0.043 A 
ATOM      8  C   UNL     1      -0.643  -2.148  -0.007  0.00  0.00    +0.071 A 
ATOM      9  N   UNL     1       0.748  -2.075  -0.013  0.00  0.00    -0.295 N 
ATOM     10  C   UNL     1       1.104  -0.777  -0.013  0.00  0.00    +0.330 A 
ATOM     11  O   UNL     1       2.249  -0.365  -0.023  0.00  0.00    -0.246 OA
ATOM     12  C   UNL     1       1.666  -3.217  -0.023  0.00  0.00    +0.154 C 
ATOM     13 BR   UNL     1      -4.124  -4.396   0.001  0.00  0.00    -0.050 Br
ENDROOT
BRANCH   5  14
ATOM     14  C   UNL     1      -4.852  -1.387   0.019  0.00  0.00    -0.012 C 
BRANCH  14  15
ATOM     15  C   UNL     1      -5.369  -1.429   1.458  0.00  0.00    +0.134 C 
ATOM     16  C   UNL     1      -6.876  -1.158   1.469  0.00  0.00    +0.190 C 
ATOM     17  O   UNL     1      -7.330  -1.088   2.824  0.00  0.00    -0.375 OA
ATOM     18  C   UNL     1      -6.668  -0.085   3.600  0.00  0.00    +0.188 C 
ATOM     19  C   UNL     1      -5.160  -0.356   3.589  0.00  0.00    +0.188 C 
ATOM     20  O   UNL     1      -4.705  -0.427   2.234  0.00  0.00    -0.373 OA
ENDBRANCH  14  15
BRANCH  14  21
ATOM     21  N   UNL     1      -5.117  -0.063  -0.558  0.00  0.00    +0.384 N 
ATOM     22  H   UNL     1      -4.777  -0.035  -1.507  0.00  0.00    -0.089 HD
ATOM     23  H   UNL     1      -6.111   0.114  -0.552  0.00  0.00    -0.089 HD
ATOM     24  H   UNL     1      -4.647   0.643  -0.011  0.00  0.00    -0.089 HD
ENDBRANCH  14  21
ENDBRANCH   5  14
TORSDOF 3
