REMARK  Name = ZINC40481152
REMARK  4 active torsions:
REMARK  status: ('A' for Active; 'I' for Inactive)
REMARK    1  A    between atoms: C_1  and  C_2
REMARK    2  A    between atoms: C_4  and  C_7
REMARK    3  A    between atoms: C_7  and  N_13
REMARK    4  A    between atoms: C_14  and  C_16
REMARK                            x       y       z     vdW  Elec       q    Type
REMARK                         _______ _______ _______ _____ _____    ______ ____
ROOT
ATOM      1  N   UNL     1      -2.507  -3.159   1.129  0.00  0.00    -0.302 N 
ATOM      2  C   UNL     1      -3.336  -2.103   1.238  0.00  0.00    +0.220 C 
ATOM      3  O   UNL     1      -3.321  -1.230   0.396  0.00  0.00    -0.275 OA
ATOM      4  H   UNL     1      -2.519  -3.857   1.802  0.00  0.00    +0.150 HD
ENDROOT
BRANCH   2   5
ATOM      5  C   UNL     1      -4.282  -2.005   2.408  0.00  0.00    +0.117 C 
ATOM      6  C   UNL     1      -5.097  -0.713   2.305  0.00  0.00    +0.055 C 
ATOM      7  C   UNL     1      -5.821  -0.466   3.604  0.00  0.00    -0.005 A 
ATOM      8  C   UNL     1      -6.889   0.417   3.615  0.00  0.00    +0.007 A 
ATOM      9  C   UNL     1      -7.571   0.671   4.788  0.00  0.00    +0.000 A 
ATOM     10  C   UNL     1      -7.190   0.043   5.960  0.00  0.00    +0.004 A 
ATOM     11  C   UNL     1      -6.128  -0.838   5.955  0.00  0.00    +0.046 A 
ATOM     12  C   UNL     1      -5.439  -1.098   4.774  0.00  0.00    +0.124 A 
ATOM     13  O   UNL     1      -4.406  -1.979   4.808  0.00  0.00    -0.491 OA
ATOM     14  C   UNL     1      -3.484  -1.969   3.717  0.00  0.00    +0.242 C 
ENDBRANCH   2   5
BRANCH   1  15
ATOM     15  C   UNL     1      -1.588  -3.254  -0.008  0.00  0.00    +0.097 C 
ATOM     16  C   UNL     1      -2.389  -3.276  -1.311  0.00  0.00    +0.034 C 
ATOM     17  C   UNL     1      -3.328  -4.483  -1.313  0.00  0.00    +0.003 C 
ATOM     18  C   UNL     1      -2.506  -5.769  -1.198  0.00  0.00    +0.000 C 
ATOM     19  C   UNL     1      -1.705  -5.747   0.105  0.00  0.00    +0.003 C 
ATOM     20  C   UNL     1      -0.766  -4.540   0.107  0.00  0.00    +0.034 C 
BRANCH  15  24
ATOM     21  C   UNL     1      -0.018   1.503   0.010  0.00  0.00    +0.112 C 
ATOM     22  C   UNL     1       0.002  -0.004   0.002  0.00  0.00    +0.224 A 
ATOM     23  N   UNL     1      -1.044  -0.783   0.003  0.00  0.00    -0.194 NA
ATOM     24  C   UNL     1      -0.663  -2.065  -0.006  0.00  0.00    +0.195 A 
ATOM     25  N   UNL     1       0.638  -2.118  -0.012  0.00  0.00    -0.059 NA
ATOM     26  O   UNL     1       1.097  -0.774  -0.013  0.00  0.00    -0.338 OA
ENDBRANCH  15  24
ENDBRANCH   1  15
TORSDOF 3
