REMARK  Name = ZINC16856361
REMARK  5 active torsions:
REMARK  status: ('A' for Active; 'I' for Inactive)
REMARK    1  A    between atoms: C_1  and  C_2
REMARK    2  A    between atoms: C_4  and  C_9
REMARK    3  A    between atoms: C_6  and  O_8
REMARK    4  A    between atoms: C_10  and  C_11
REMARK    5  A    between atoms: C_20  and  O_21
REMARK                            x       y       z     vdW  Elec       q    Type
REMARK                         _______ _______ _______ _____ _____    ______ ____
ROOT
ATOM      1  C   UNL     1      -0.104   5.307   0.030  0.00  0.00    +0.024 A 
ATOM      2  C   UNL     1      -0.095   3.845   0.023  0.00  0.00    -0.007 A 
ATOM      3  C   UNL     1      -1.285   3.107   0.031  0.00  0.00    +0.009 A 
ATOM      4  C   UNL     1      -1.234   1.745   0.017  0.00  0.00    +0.001 A 
ATOM      5  C   UNL     1      -0.013   1.076   0.008  0.00  0.00    +0.001 A 
ATOM      6  C   UNL     1       1.163   1.763   0.000  0.00  0.00    +0.008 A 
ATOM      7  C   UNL     1       1.148   3.168   0.008  0.00  0.00    -0.017 A 
ATOM      8  C   UNL     1       2.342   3.910  -0.000  0.00  0.00    +0.012 A 
ATOM      9  C   UNL     1       2.317   5.269   0.006  0.00  0.00    +0.046 A 
ATOM     10  C   UNL     1       1.119   5.981   0.021  0.00  0.00    +0.125 A 
ENDROOT
BRANCH   1  12
ATOM     11  C   UNL     1      -1.562   7.034   0.945  0.00  0.00    +0.028 C 
ATOM     12  C   UNL     1      -1.369   6.050   0.045  0.00  0.00    +0.014 C 
BRANCH  11  16
ATOM     13  C   UNL     1      -4.529  10.584   2.846  0.00  0.00    +0.066 C 
ATOM     14  C   UNL     1      -4.252   9.474   1.865  0.00  0.00    +0.046 A 
ATOM     15  C   UNL     1      -3.044   8.805   1.891  0.00  0.00    +0.051 A 
ATOM     16  C   UNL     1      -2.831   7.778   0.960  0.00  0.00    +0.071 A 
ATOM     17  N   UNL     1      -3.797   7.491   0.084  0.00  0.00    -0.196 NA
ATOM     18  C   UNL     1      -4.938   8.157   0.100  0.00  0.00    +0.316 A 
ATOM     19  N   UNL     1      -5.165   9.130   0.969  0.00  0.00    -0.200 NA
BRANCH  18  20
ATOM     20  O   UNL     1      -5.900   7.838  -0.798  0.00  0.00    -0.478 OA
ATOM     21  H   UNL     1      -5.842   8.331  -1.628  0.00  0.00    +0.295 HD
ENDBRANCH  18  20
ENDBRANCH  11  16
ENDBRANCH   1  12
BRANCH  10  22
ATOM     22  O   UNL     1       1.141   7.338   0.026  0.00  0.00    -0.506 OA
ATOM     23  H   UNL     1       1.138   7.735  -0.856  0.00  0.00    +0.292 HD
ENDBRANCH  10  22
TORSDOF 4
