REMARK  Name = ZINC34747576
REMARK  6 active torsions:
REMARK  status: ('A' for Active; 'I' for Inactive)
REMARK    1  A    between atoms: C_1  and  C_2
REMARK    2  A    between atoms: C_5  and  N_8
REMARK    3  A    between atoms: C_9  and  C_11
REMARK    4  A    between atoms: C_11  and  N_12
REMARK    5  A    between atoms: N_31  and  C_32
REMARK    6  A    between atoms: C_32  and  C_33
REMARK                            x       y       z     vdW  Elec       q    Type
REMARK                         _______ _______ _______ _____ _____    ______ ____
ROOT
ATOM      1  N   UNL     1      -0.588  -6.179   4.365  0.00  0.00    +0.387 N 
ATOM      2  C   UNL     1      -1.206  -7.113   5.314  0.00  0.00    -0.059 C 
ATOM      3  C   UNL     1      -0.618  -8.512   5.110  0.00  0.00    +0.089 C 
ATOM      4  N   UNL     1       0.847  -8.422   5.214  0.00  0.00    -0.304 N 
ATOM      5  C   UNL     1       1.537  -7.397   4.415  0.00  0.00    +0.089 C 
ATOM      6  C   UNL     1       0.846  -6.050   4.652  0.00  0.00    -0.059 C 
ATOM      7  C   UNL     1       1.550  -9.269   6.034  0.00  0.00    +0.202 A 
ATOM      8  N   UNL     1       2.458  -8.777   6.851  0.00  0.00    -0.208 NA
ATOM      9  C   UNL     1       3.152  -9.574   7.655  0.00  0.00    +0.117 A 
ATOM     10  C   UNL     1       2.959 -10.965   7.677  0.00  0.00    +0.076 A 
ATOM     11  C   UNL     1       3.799 -11.713   8.615  0.00  0.00    -0.023 A 
ATOM     12  C   UNL     1       4.668 -11.000   9.360  0.00  0.00    -0.004 A 
ATOM     13  S   UNL     1       4.424  -9.315   8.866  0.00  0.00    -0.073 S 
ATOM     14  C   UNL     1       5.629 -11.524  10.383  0.00  0.00    +0.043 C 
ATOM     15  C   UNL     1       5.227 -12.964  10.733  0.00  0.00    +0.005 C 
ATOM     16  C   UNL     1       4.986 -13.736   9.433  0.00  0.00    +0.005 C 
ATOM     17  C   UNL     1       3.711 -13.230   8.757  0.00  0.00    +0.037 C 
ATOM     18  C   UNL     1       1.967 -11.471   6.779  0.00  0.00    +0.264 A 
ATOM     19  O   UNL     1       1.730 -12.666   6.728  0.00  0.00    -0.267 OA
ATOM     20  N   UNL     1       1.295 -10.608   5.994  0.00  0.00    -0.276 N 
ATOM     21  H   UNL     1      -0.712  -6.527   3.426  0.00  0.00    -0.081 HD
ENDROOT
BRANCH   1  22
ATOM     22  C   UNL     1      -1.230  -4.863   4.486  0.00  0.00    +0.019 C 
BRANCH  22  24
ATOM     23  N   UNL     1      -3.467  -3.879   4.103  0.00  0.00    -0.287 N 
ATOM     24  C   UNL     1      -2.675  -4.970   4.072  0.00  0.00    +0.201 C 
ATOM     25  O   UNL     1      -3.126  -6.037   3.712  0.00  0.00    -0.278 OA
ATOM     26  H   UNL     1      -3.092  -3.014   4.330  0.00  0.00    +0.155 HD
BRANCH  23  31
ATOM     27  C   UNL     1      -8.991  -4.351   2.901  0.00  0.00    +0.044 C 
ATOM     28  C   UNL     1      -7.524  -4.226   3.220  0.00  0.00    -0.050 A 
ATOM     29  C   UNL     1      -6.603  -5.013   2.553  0.00  0.00    +0.005 A 
ATOM     30  C   UNL     1      -5.257  -4.901   2.844  0.00  0.00    +0.023 A 
ATOM     31  C   UNL     1      -4.829  -3.995   3.806  0.00  0.00    +0.033 A 
ATOM     32  C   UNL     1      -5.756  -3.206   4.473  0.00  0.00    +0.023 A 
ATOM     33  C   UNL     1      -7.100  -3.320   4.175  0.00  0.00    +0.005 A 
ENDBRANCH  23  31
ENDBRANCH  22  24
ENDBRANCH   1  22
BRANCH  20  34
ATOM     34  C   UNL     1       0.274 -11.118   5.076  0.00  0.00    +0.163 C 
BRANCH  34  35
ATOM     35  C   UNL     1       0.889 -11.352   3.720  0.00  0.00    -0.028 A 
ATOM     36  C   UNL     1       0.985 -10.311   2.816  0.00  0.00    +0.005 A 
ATOM     37  C   UNL     1       1.549 -10.526   1.572  0.00  0.00    +0.000 A 
ATOM     38  C   UNL     1       2.018 -11.782   1.234  0.00  0.00    +0.000 A 
ATOM     39  C   UNL     1       1.923 -12.822   2.139  0.00  0.00    +0.000 A 
ATOM     40  C   UNL     1       1.362 -12.607   3.384  0.00  0.00    +0.005 A 
ENDBRANCH  34  35
ENDBRANCH  20  34
TORSDOF 5
