REMARK  Name = ZINC04375491
REMARK  14 active torsions:
REMARK  status: ('A' for Active; 'I' for Inactive)
REMARK    1  A    between atoms: C_1  and  C_2
REMARK    2  A    between atoms: C_6  and  C_7
REMARK    3  A    between atoms: C_7  and  N_8
REMARK    4  A    between atoms: N_8  and  C_9
REMARK    5  A    between atoms: C_9  and  C_10
REMARK    6  A    between atoms: C_17  and  C_19
REMARK    7  A    between atoms: C_19  and  N_20
REMARK    8  A    between atoms: N_20  and  C_21
REMARK    9  A    between atoms: C_21  and  C_22
REMARK   10  A    between atoms: C_21  and  C_23
REMARK   11  A    between atoms: C_24  and  C_26
REMARK   12  A    between atoms: C_26  and  C_27
REMARK   13  A    between atoms: C_26  and  C_28
REMARK   14  A    between atoms: C_26  and  C_29
REMARK                            x       y       z     vdW  Elec       q    Type
REMARK                         _______ _______ _______ _____ _____    ______ ____
ROOT
ATOM      1  N   UNL     1      -1.200  -0.966   0.128  0.00  0.00    -0.291 N 
ATOM      2  C   UNL     1      -1.368  -1.000  -1.209  0.00  0.00    +0.234 C 
ATOM      3  O   UNL     1      -1.860  -1.976  -1.734  0.00  0.00    -0.274 OA
ENDROOT
BRANCH   1   4
ATOM      4  C   UNL     1      -0.671   0.241   0.769  0.00  0.00    +0.150 C 
BRANCH   4  10
ATOM      5  C   UNL     1       2.103   0.851  -0.401  0.00  0.00    +0.044 C 
ATOM      6  C   UNL     1       1.908   0.176   0.932  0.00  0.00    -0.039 A 
ATOM      7  C   UNL     1       2.998  -0.198   1.696  0.00  0.00    +0.011 A 
ATOM      8  C   UNL     1       2.787  -0.809   2.887  0.00  0.00    +0.046 A 
ATOM      9  S   UNL     1       1.004  -0.865   2.963  0.00  0.00    -0.100 S 
ATOM     10  C   UNL     1       0.660  -0.070   1.402  0.00  0.00    +0.010 A 
ENDBRANCH   4  10
ENDBRANCH   1   4
BRANCH   1  11
ATOM     11  C   UNL     1      -1.547  -2.135   0.940  0.00  0.00    +0.143 C 
BRANCH  11  12
ATOM     12  C   UNL     1      -2.987  -2.037   1.371  0.00  0.00    -0.030 A 
ATOM     13  C   UNL     1      -3.311  -1.411   2.560  0.00  0.00    +0.008 A 
ATOM     14  C   UNL     1      -4.632  -1.317   2.955  0.00  0.00    +0.038 A 
ATOM     15  C   UNL     1      -5.631  -1.859   2.164  0.00  0.00    +0.123 A 
ATOM     16  C   UNL     1      -5.305  -2.491   0.976  0.00  0.00    +0.038 A 
ATOM     17  C   UNL     1      -3.984  -2.579   0.581  0.00  0.00    +0.008 A 
ATOM     18  F   UNL     1      -6.922  -1.772   2.551  0.00  0.00    -0.205 F 
ENDBRANCH  11  12
ENDBRANCH   1  11
BRANCH   2  19
ATOM     19  C   UNL     1      -0.946   0.176  -2.052  0.00  0.00    +0.203 C 
BRANCH  19  20
ATOM     20  N   UNL     1      -1.346  -0.051  -3.443  0.00  0.00    -0.290 N 
ATOM     21  C   UNL     1      -2.603   0.233  -3.837  0.00  0.00    +0.222 C 
ATOM     22  O   UNL     1      -3.378   0.754  -3.064  0.00  0.00    -0.275 OA
BRANCH  21  23
ATOM     23  C   UNL     1      -3.045  -0.097  -5.240  0.00  0.00    +0.039 C 
ATOM     24  C   UNL     1      -4.518   0.280  -5.412  0.00  0.00    +0.020 C 
ATOM     25  C   UNL     1      -2.196   0.689  -6.241  0.00  0.00    +0.020 C 
ATOM     26  C   UNL     1      -2.870  -1.597  -5.490  0.00  0.00    +0.020 C 
ENDBRANCH  21  23
BRANCH  20  27
ATOM     27  C   UNL     1      -0.380  -0.587  -4.405  0.00  0.00    +0.070 C 
ATOM     28  C   UNL     1       0.738   0.434  -4.628  0.00  0.00    +0.028 C 
ATOM     29  C   UNL     1       0.218  -1.886  -3.858  0.00  0.00    +0.028 C 
ENDBRANCH  20  27
ENDBRANCH  19  20
ENDBRANCH   2  19
TORSDOF 8
