REMARK  Name = ZINC67419421
REMARK  5 active torsions:
REMARK  status: ('A' for Active; 'I' for Inactive)
REMARK    1  A    between atoms: C_1  and  C_2
REMARK    2  A    between atoms: C_4  and  C_7
REMARK    3  A    between atoms: C_7  and  C_9
REMARK    4  A    between atoms: C_7  and  N_10
REMARK    5  A    between atoms: C_17  and  C_21
REMARK                            x       y       z     vdW  Elec       q    Type
REMARK                         _______ _______ _______ _____ _____    ______ ____
ROOT
ATOM      1  N   UNL     1      -1.124  -5.011  -3.425  0.00  0.00    -0.288 N 
ATOM      2  C   UNL     1      -1.464  -5.077  -2.122  0.00  0.00    +0.303 C 
ATOM      3  O   UNL     1      -0.907  -4.362  -1.312  0.00  0.00    -0.253 OA
ATOM      4  N   UNL     1      -2.422  -5.935  -1.718  0.00  0.00    -0.286 N 
ATOM      5  C   UNL     1      -2.857  -5.897  -0.308  0.00  0.00    +0.109 C 
ATOM      6  C   UNL     1      -4.385  -6.019  -0.169  0.00  0.00    +0.020 C 
ATOM      7  C   UNL     1      -5.070  -5.209  -1.242  0.00  0.00    +0.010 C 
ATOM      8  C   UNL     1      -5.330  -6.095  -2.457  0.00  0.00    +0.021 C 
ATOM      9  C   UNL     1      -4.194  -6.196  -3.386  0.00  0.00    +0.027 C 
ATOM     10  C   UNL     1      -2.985  -6.851  -2.685  0.00  0.00    +0.110 C 
ATOM     11  H   UNL     1      -1.516  -5.631  -4.060  0.00  0.00    +0.151 HD
ENDROOT
BRANCH   8  12
ATOM     12  C   UNL     1      -6.512  -5.541  -3.209  0.00  0.00    -0.044 A 
ATOM     13  C   UNL     1      -6.465  -4.259  -3.723  0.00  0.00    +0.004 A 
ATOM     14  C   UNL     1      -7.550  -3.751  -4.413  0.00  0.00    +0.000 A 
ATOM     15  C   UNL     1      -8.681  -4.525  -4.590  0.00  0.00    +0.000 A 
ATOM     16  C   UNL     1      -8.727  -5.808  -4.077  0.00  0.00    +0.000 A 
ATOM     17  C   UNL     1      -7.641  -6.318  -3.391  0.00  0.00    +0.004 A 
ENDBRANCH   8  12
BRANCH   1  18
ATOM     18  C   UNL     1      -0.163  -4.005  -3.881  0.00  0.00    +0.160 C 
ATOM     19  C   UNL     1      -0.894  -2.689  -4.157  0.00  0.00    +0.038 C 
BRANCH  18  23
ATOM     20  C   UNL     1       3.384  -5.042  -7.263  0.00  0.00    +0.091 C 
ATOM     21  C   UNL     1       2.027  -4.937  -6.616  0.00  0.00    +0.169 A 
ATOM     22  N   UNL     1       1.781  -4.424  -5.405  0.00  0.00    -0.195 NA
ATOM     23  C   UNL     1       0.504  -4.483  -5.145  0.00  0.00    +0.247 A 
ATOM     24  O   UNL     1      -0.112  -5.042  -6.194  0.00  0.00    -0.336 OA
ATOM     25  N   UNL     1       0.903  -5.325  -7.146  0.00  0.00    -0.062 NA
ENDBRANCH  18  23
ENDBRANCH   1  18
TORSDOF 3
