REMARK  Name = ZINC41585533
REMARK  6 active torsions:
REMARK  status: ('A' for Active; 'I' for Inactive)
REMARK    1  A    between atoms: C_1  and  C_2
REMARK    2  A    between atoms: C_4  and  O_32
REMARK    3  A    between atoms: C_5  and  C_18
REMARK    4  A    between atoms: C_11  and  C_12
REMARK    5  A    between atoms: C_18  and  N_19
REMARK    6  A    between atoms: N_22  and  C_25
REMARK                            x       y       z     vdW  Elec       q    Type
REMARK                         _______ _______ _______ _____ _____    ______ ____
ROOT
ATOM      1  C   UNL     1       0.027   1.521   0.035  0.00  0.00    +0.045 C 
ATOM      2  C   UNL     1       0.037   0.014   0.017  0.00  0.00    -0.033 A 
ATOM      3  C   UNL     1       0.044  -0.656  -1.174  0.00  0.00    +0.050 A 
ATOM      4  C   UNL     1       0.053  -2.048  -1.194  0.00  0.00    +0.122 A 
ATOM      5  C   UNL     1       0.055  -2.770  -0.011  0.00  0.00    +0.020 A 
ATOM      6  C   UNL     1       0.048  -2.104   1.206  0.00  0.00    +0.145 A 
ATOM      7  C   UNL     1       0.045  -0.699   1.216  0.00  0.00    +0.071 A 
ATOM      8  C   UNL     1       0.045  -0.300   2.634  0.00  0.00    +0.232 C 
ATOM      9  O   UNL     1       0.038   0.833   3.085  0.00  0.00    -0.283 OA
ATOM     10  C   UNL     1       0.056  -1.519   3.363  0.00  0.00    +0.177 C 
ATOM     11  C   UNL     1       0.059  -1.635   4.723  0.00  0.00    +0.065 C 
ATOM     12  O   UNL     1       0.047  -2.547   2.482  0.00  0.00    -0.451 OA
ENDROOT
BRANCH  11  13
ATOM     13  C   UNL     1       0.070  -2.914   5.323  0.00  0.00    +0.016 A 
ATOM     14  C   UNL     1       0.070  -3.249   6.674  0.00  0.00    +0.015 A 
ATOM     15  C   UNL     1       0.081  -4.594   6.952  0.00  0.00    +0.008 A 
ATOM     16  C   UNL     1       0.092  -5.481   5.925  0.00  0.00    +0.046 A 
ATOM     17  S   UNL     1       0.078  -4.519   4.547  0.00  0.00    -0.097 S 
ENDBRANCH  11  13
BRANCH   4  18
ATOM     18  O   UNL     1       0.060  -2.704  -2.383  0.00  0.00    -0.506 OA
ATOM     19  H   UNL     1       0.946  -2.888  -2.725  0.00  0.00    +0.292 HD
ENDBRANCH   4  18
BRANCH   5  20
ATOM     20  C   UNL     1       0.064  -4.277  -0.047  0.00  0.00    -0.035 C 
BRANCH  20  21
ATOM     21  N   UNL     1       1.452  -4.758  -0.055  0.00  0.00    +0.385 N 
ATOM     22  C   UNL     1       2.110  -4.327  -1.295  0.00  0.00    -0.059 C 
ATOM     23  C   UNL     1       3.588  -4.729  -1.254  0.00  0.00    +0.086 C 
ATOM     24  N   UNL     1       3.671  -6.175  -0.994  0.00  0.00    -0.333 N 
ATOM     25  C   UNL     1       2.905  -6.721   0.137  0.00  0.00    +0.086 C 
ATOM     26  C   UNL     1       1.460  -6.224   0.031  0.00  0.00    -0.059 C 
ATOM     27  H   UNL     1       1.945  -4.373   0.736  0.00  0.00    -0.081 HD
BRANCH  24  28
ATOM     28  C   UNL     1       4.455  -7.006  -1.800  0.00  0.00    +0.030 A 
ATOM     29  C   UNL     1       5.080  -6.492  -2.928  0.00  0.00    +0.026 A 
ATOM     30  C   UNL     1       5.854  -7.315  -3.723  0.00  0.00    +0.040 A 
ATOM     31  C   UNL     1       6.008  -8.652  -3.394  0.00  0.00    +0.124 A 
ATOM     32  C   UNL     1       5.385  -9.166  -2.269  0.00  0.00    +0.040 A 
ATOM     33  C   UNL     1       4.614  -8.345  -1.469  0.00  0.00    +0.026 A 
ATOM     34  F   UNL     1       6.765  -9.455  -4.173  0.00  0.00    -0.205 F 
ENDBRANCH  24  28
ENDBRANCH  20  21
ENDBRANCH   5  20
TORSDOF 5
