REMARK  Name = ZINC12664174
REMARK  4 active torsions:
REMARK  status: ('A' for Active; 'I' for Inactive)
REMARK    1  A    between atoms: C_3  and  C_7
REMARK    2  A    between atoms: C_13  and  C_15
REMARK    3  A    between atoms: N_20  and  S_22
REMARK    4  A    between atoms: S_22  and  C_25
REMARK                            x       y       z     vdW  Elec       q    Type
REMARK                         _______ _______ _______ _____ _____    ______ ____
ROOT
ATOM      1  C   UNL     1      -3.333   6.551   0.067  0.00  0.00    +0.091 C 
ATOM      2  C   UNL     1      -4.166   6.283   1.323  0.00  0.00    +0.015 C 
ATOM      3  C   UNL     1      -5.397   7.191   1.323  0.00  0.00    +0.018 C 
ATOM      4  C   UNL     1      -4.947   8.655   1.345  0.00  0.00    +0.109 C 
ATOM      5  N   UNL     1      -4.029   8.884   0.221  0.00  0.00    -0.176 NA
ATOM      6  C   UNL     1      -2.859   8.008   0.075  0.00  0.00    +0.122 C 
ENDROOT
BRANCH   1  13
ATOM      7  C   UNL     1      -0.018   1.479   0.010  0.00  0.00    +0.082 A 
ATOM      8  C   UNL     1       1.153   2.185   0.003  0.00  0.00    +0.077 A 
ATOM      9  S   UNL     1       0.529   3.861   0.017  0.00  0.00    -0.060 S 
ATOM     10  C   UNL     1      -1.211   3.451   0.031  0.00  0.00    +0.165 A 
ATOM     11  N   UNL     1      -1.171   2.132   0.019  0.00  0.00    -0.225 NA
ATOM     12  N   UNL     1      -2.313   4.297   0.046  0.00  0.00    -0.264 N 
ATOM     13  C   UNL     1      -2.137   5.633   0.051  0.00  0.00    +0.223 C 
ATOM     14  O   UNL     1      -1.017   6.097   0.044  0.00  0.00    -0.275 OA
ATOM     15  H   UNL     1      -3.209   3.926   0.052  0.00  0.00    +0.157 HD
BRANCH   7  18
ATOM     16  C   UNL     1      -1.119  -2.113   0.001  0.00  0.00    +0.020 A 
ATOM     17  C   UNL     1      -1.192  -0.731   0.009  0.00  0.00    +0.013 A 
ATOM     18  C   UNL     1       0.002  -0.004   0.002  0.00  0.00    +0.019 A 
ATOM     19  C   UNL     1       1.212  -0.696  -0.019  0.00  0.00    +0.120 A 
ATOM     20  N   UNL     1       1.231  -2.013  -0.020  0.00  0.00    -0.263 NA
ATOM     21  C   UNL     1       0.121  -2.725  -0.014  0.00  0.00    +0.111 A 
ENDBRANCH   7  18
ENDBRANCH   1  13
BRANCH   5  22
ATOM     22  S   UNL     1      -4.307  10.108  -0.860  0.00  0.00    +0.061 S 
ATOM     23  O   UNL     1      -3.643   9.745  -2.063  0.00  0.00    -0.153 OA
ATOM     24  O   UNL     1      -5.700  10.384  -0.811  0.00  0.00    -0.153 OA
BRANCH  22  25
ATOM     25  C   UNL     1      -3.488  11.542  -0.245  0.00  0.00    +0.106 A 
ATOM     26  C   UNL     1      -4.157  12.414   0.593  0.00  0.00    +0.030 A 
ATOM     27  C   UNL     1      -3.514  13.536   1.080  0.00  0.00    +0.022 A 
ATOM     28  C   UNL     1      -2.203  13.792   0.720  0.00  0.00    +0.041 A 
ATOM     29  C   UNL     1      -1.535  12.922  -0.124  0.00  0.00    +0.022 A 
ATOM     30  C   UNL     1      -2.178  11.797  -0.606  0.00  0.00    +0.030 A 
ATOM     31 CL   UNL     1      -1.396  15.204   1.326  0.00  0.00    -0.084 Cl
ENDBRANCH  22  25
ENDBRANCH   5  22
TORSDOF 4
