REMARK  Name = ZINC60186067
REMARK  7 active torsions:
REMARK  status: ('A' for Active; 'I' for Inactive)
REMARK    1  A    between atoms: C_6  and  C_7
REMARK    2  A    between atoms: C_9  and  C_12
REMARK    3  A    between atoms: C_12  and  C_13
REMARK    4  A    between atoms: C_13  and  C_14
REMARK    5  A    between atoms: N_16  and  C_17
REMARK    6  A    between atoms: N_20  and  C_23
REMARK    7  A    between atoms: C_23  and  C_24
REMARK                            x       y       z     vdW  Elec       q    Type
REMARK                         _______ _______ _______ _____ _____    ______ ____
ROOT
ATOM      1  C   UNL     1      -4.053  -5.862   1.052  0.00  0.00    +0.214 C 
ATOM      2  O   UNL     1      -4.341  -6.472   0.044  0.00  0.00    -0.276 OA
ATOM      3  N   UNL     1      -4.201  -6.446   2.258  0.00  0.00    -0.313 N 
ATOM      4  H   UNL     1      -3.971  -5.958   3.064  0.00  0.00    +0.149 HD
ENDROOT
BRANCH   3   5
ATOM      5  C   UNL     1      -4.710  -7.816   2.351  0.00  0.00    +0.069 C 
ATOM      6  C   UNL     1      -6.242  -7.795   2.347  0.00  0.00    +0.003 C 
ATOM      7  C   UNL     1      -6.767  -9.221   2.524  0.00  0.00    -0.077 C 
ATOM      8  N   UNL     1      -6.287  -9.768   3.799  0.00  0.00    +0.380 N 
ATOM      9  C   UNL     1      -4.822  -9.858   3.782  0.00  0.00    -0.077 C 
ATOM     10  C   UNL     1      -4.222  -8.457   3.654  0.00  0.00    +0.003 C 
ATOM     11  H   UNL     1      -6.577  -9.164   4.553  0.00  0.00    -0.082 HD
BRANCH   8  12
ATOM     12  C   UNL     1      -6.856 -11.107   4.001  0.00  0.00    -0.075 C 
BRANCH  12  13
ATOM     13  C   UNL     1      -8.371 -10.995   4.181  0.00  0.00    -0.028 C 
ATOM     14  C   UNL     1      -8.694 -10.261   5.500  0.00  0.00    +0.002 C 
ATOM     15  C   UNL     1      -9.950 -10.987   6.041  0.00  0.00    +0.000 C 
ATOM     16  C   UNL     1      -9.672 -12.467   5.679  0.00  0.00    +0.000 C 
ATOM     17  C   UNL     1      -8.994 -12.398   4.296  0.00  0.00    +0.002 C 
ENDBRANCH  12  13
ENDBRANCH   8  12
ENDBRANCH   3   5
BRANCH   1  18
ATOM     18  C   UNL     1      -3.529  -4.452   0.957  0.00  0.00    +0.105 C 
BRANCH  18  19
ATOM     19  C   UNL     1      -3.458  -4.034  -0.513  0.00  0.00    +0.108 C 
BRANCH  19  22
ATOM     20  C   UNL     1      -1.573  -0.944  -0.778  0.00  0.00    +0.202 A 
ATOM     21  N   UNL     1      -1.681  -2.283  -0.715  0.00  0.00    -0.191 NA
ATOM     22  C   UNL     1      -2.934  -2.624  -0.609  0.00  0.00    +0.228 A 
ATOM     23  O   UNL     1      -3.678  -1.510  -0.600  0.00  0.00    -0.338 OA
ATOM     24  N   UNL     1      -2.772  -0.422  -0.705  0.00  0.00    -0.056 NA
BRANCH  20  30
ATOM     25  C   UNL     1      -0.326   1.209  -0.952  0.00  0.00    +0.013 A 
ATOM     26  C   UNL     1       0.856   1.912  -1.067  0.00  0.00    +0.021 A 
ATOM     27  C   UNL     1       2.062   1.236  -1.134  0.00  0.00    +0.041 A 
ATOM     28  C   UNL     1       2.089  -0.148  -1.086  0.00  0.00    +0.021 A 
ATOM     29  C   UNL     1       0.912  -0.859  -0.970  0.00  0.00    +0.013 A 
ATOM     30  C   UNL     1      -0.304  -0.183  -0.902  0.00  0.00    +0.023 A 
ATOM     31 CL   UNL     1       3.546   2.125  -1.280  0.00  0.00    -0.084 Cl
ENDBRANCH  20  30
ENDBRANCH  19  22
ENDBRANCH  18  19
ENDBRANCH   1  18
TORSDOF 7
