REMARK  Name = ZINC14984042
REMARK  9 active torsions:
REMARK  status: ('A' for Active; 'I' for Inactive)
REMARK    1  A    between atoms: C_4  and  C_7
REMARK    2  A    between atoms: C_7  and  C_9
REMARK    3  A    between atoms: C_7  and  C_32
REMARK    4  A    between atoms: C_9  and  C_10
REMARK    5  A    between atoms: C_10  and  N_66
REMARK    6  A    between atoms: C_11  and  N_66
REMARK    7  A    between atoms: N_14  and  C_17
REMARK    8  A    between atoms: C_20  and  N_23
REMARK    9  A    between atoms: C_24  and  C_26
REMARK                            x       y       z     vdW  Elec       q    Type
REMARK                         _______ _______ _______ _____ _____    ______ ____
ROOT
ATOM      1  C   UNL     1      -1.282  -1.990  -0.124  0.00  0.00    -0.069 C 
ATOM      2  C   UNL     1      -1.387  -2.466  -1.575  0.00  0.00    +0.003 C 
ATOM      3  C   UNL     1      -1.461  -3.995  -1.601  0.00  0.00    +0.103 C 
ATOM      4  N   UNL     1      -2.628  -4.444  -0.832  0.00  0.00    -0.330 N 
ATOM      5  C   UNL     1      -2.524  -4.039   0.576  0.00  0.00    +0.103 C 
ATOM      6  C   UNL     1      -2.484  -2.512   0.667  0.00  0.00    +0.003 C 
ENDROOT
BRANCH   4   7
ATOM      7  C   UNL     1      -2.800  -5.828  -0.944  0.00  0.00    +0.030 A 
ATOM      8  C   UNL     1      -2.845  -6.617   0.198  0.00  0.00    +0.025 A 
ATOM      9  C   UNL     1      -3.020  -7.982   0.088  0.00  0.00    +0.025 A 
ATOM     10  C   UNL     1      -3.140  -8.568  -1.166  0.00  0.00    +0.034 A 
ATOM     11  C   UNL     1      -3.088  -7.780  -2.308  0.00  0.00    +0.025 A 
ATOM     12  C   UNL     1      -2.919  -6.414  -2.198  0.00  0.00    +0.025 A 
BRANCH  10  13
ATOM     13  N   UNL     1      -3.312  -9.953  -1.278  0.00  0.00    -0.280 N 
ATOM     14  C   UNL     1      -4.003 -10.624  -0.336  0.00  0.00    +0.268 C 
ATOM     15  O   UNL     1      -4.558 -10.018   0.559  0.00  0.00    -0.268 OA
ATOM     16  H   UNL     1      -2.933 -10.429  -2.034  0.00  0.00    +0.155 HD
BRANCH  14  17
ATOM     17  C   UNL     1      -4.087 -12.102  -0.391  0.00  0.00    +0.144 A 
ATOM     18  C   UNL     1      -4.801 -12.799   0.583  0.00  0.00    +0.143 A 
ATOM     19  N   UNL     1      -4.873 -14.117   0.529  0.00  0.00    -0.259 NA
ATOM     20  C   UNL     1      -4.268 -14.774  -0.445  0.00  0.00    +0.130 A 
ATOM     21  C   UNL     1      -3.556 -14.084  -1.415  0.00  0.00    +0.131 A 
ATOM     22  N   UNL     1      -3.484 -12.768  -1.372  0.00  0.00    -0.247 NA
ENDBRANCH  14  17
ENDBRANCH  10  13
ENDBRANCH   4   7
BRANCH   1  23
ATOM     23  N   UNL     1      -1.280  -0.515  -0.087  0.00  0.00    +0.381 N 
ATOM     24  H   UNL     1      -1.890  -0.157  -0.831  0.00  0.00    -0.086 HD
ATOM     25  H   UNL     1      -1.630  -0.199   0.824  0.00  0.00    -0.086 HD
BRANCH  23  26
ATOM     26  C   UNL     1       0.087   0.000  -0.290  0.00  0.00    -0.081 C 
BRANCH  26  27
ATOM     27  C   UNL     1       0.058   1.530  -0.247  0.00  0.00    -0.003 C 
BRANCH  27  28
ATOM     28  C   UNL     1       1.473   2.073  -0.456  0.00  0.00    +0.083 C 
BRANCH  28  32
ATOM     29  C   UNL     1       1.341   6.337  -0.684  0.00  0.00    +0.000 A 
ATOM     30  C   UNL     1       1.827   5.602  -1.749  0.00  0.00    +0.000 A 
ATOM     31  C   UNL     1       1.870   4.222  -1.676  0.00  0.00    +0.004 A 
ATOM     32  C   UNL     1       1.427   3.577  -0.536  0.00  0.00    -0.037 A 
ATOM     33  C   UNL     1       0.935   4.311   0.527  0.00  0.00    +0.004 A 
ATOM     34  C   UNL     1       0.897   5.691   0.455  0.00  0.00    +0.000 A 
ENDBRANCH  28  32
BRANCH  28  35
ATOM     35  C   UNL     1       2.346   1.658   0.700  0.00  0.00    +0.112 A 
ATOM     36  C   UNL     1       3.461   0.910   0.616  0.00  0.00    +0.045 A 
ATOM     37  C   UNL     1       3.958   0.766   1.931  0.00  0.00    +0.041 A 
ATOM     38  C   UNL     1       3.118   1.435   2.741  0.00  0.00    +0.195 A 
ATOM     39  O   UNL     1       2.147   1.978   1.989  0.00  0.00    -0.467 OA
ENDBRANCH  28  35
ENDBRANCH  27  28
ENDBRANCH  26  27
ENDBRANCH  23  26
ENDBRANCH   1  23
TORSDOF 9
