REMARK  Name = ZINC63045942
REMARK  5 active torsions:
REMARK  status: ('A' for Active; 'I' for Inactive)
REMARK    1  A    between atoms: C_1  and  C_2
REMARK    2  A    between atoms: C_2  and  C_4
REMARK    3  A    between atoms: C_2  and  C_15
REMARK    4  A    between atoms: C_5  and  N_12
REMARK    5  A    between atoms: C_15  and  C_17
REMARK                            x       y       z     vdW  Elec       q    Type
REMARK                         _______ _______ _______ _____ _____    ______ ____
ROOT
ATOM      1  C   UNL     1       0.707  -0.490  -1.238  0.00  0.00    +0.096 A 
ATOM      2  C   UNL     1       0.170  -1.263  -2.196  0.00  0.00    +0.224 A 
ATOM      3  N   UNL     1       1.149  -1.484  -3.161  0.00  0.00    -0.274 N 
ATOM      4  C   UNL     1       1.280  -2.155  -4.357  0.00  0.00    +0.102 A 
ATOM      5  C   UNL     1       2.431  -2.135  -5.028  0.00  0.00    +0.067 A 
ATOM      6  S   UNL     1       3.456  -1.123  -3.971  0.00  0.00    -0.058 S 
ATOM      7  C   UNL     1       2.248  -0.806  -2.706  0.00  0.00    +0.179 A 
ATOM      8  N   UNL     1       1.978  -0.219  -1.575  0.00  0.00    -0.224 NA
ENDROOT
BRANCH   2   9
ATOM      9  N   UNL     1      -1.215  -1.788  -2.220  0.00  0.00    +0.076 N 
ATOM     10  O   UNL     1      -1.466  -2.858  -1.716  0.00  0.00    -0.125 OA
ATOM     11  O   UNL     1      -2.096  -1.146  -2.744  0.00  0.00    -0.125 OA
ENDBRANCH   2   9
BRANCH   1  13
ATOM     12  C   UNL     1      -0.019   1.526   0.010  0.00  0.00    +0.015 C 
ATOM     13  C   UNL     1       0.002  -0.004   0.002  0.00  0.00    +0.052 C 
BRANCH  13  14
ATOM     14  C   UNL     1       0.742  -0.511   1.242  0.00  0.00    +0.062 C 
ATOM     15  C   UNL     1      -0.042  -0.124   2.497  0.00  0.00    +0.020 C 
ATOM     16 BR   UNL     1       2.533   0.297   1.312  0.00  0.00    -0.088 Br
ENDBRANCH  13  14
ENDBRANCH   1  13
TORSDOF 3
