REMARK  Name = ZINC37211505
REMARK  5 active torsions:
REMARK  status: ('A' for Active; 'I' for Inactive)
REMARK    1  A    between atoms: C_1  and  C_2
REMARK    2  A    between atoms: C_8  and  N_10
REMARK    3  A    between atoms: N_10  and  C_11
REMARK    4  A    between atoms: C_11  and  C_13
REMARK    5  A    between atoms: C_11  and  C_18
REMARK                            x       y       z     vdW  Elec       q    Type
REMARK                         _______ _______ _______ _____ _____    ______ ____
ROOT
ATOM      1  C   UNL     1       2.865  -0.584   2.356  0.00  0.00    +0.004 C 
ENDROOT
BRANCH   1   2
ATOM      2  C   UNL     1       4.240   0.029   2.418  0.00  0.00    -0.018 A 
ATOM      3  C   UNL     1       4.959   0.403   3.504  0.00  0.00    +0.011 A 
ATOM      4  C   UNL     1       6.215   0.951   3.321  0.00  0.00    +0.028 A 
ATOM      5  C   UNL     1       6.690   1.099   2.059  0.00  0.00    +0.078 A 
ATOM      6  S   UNL     1       5.348   0.445   1.081  0.00  0.00    -0.083 S 
ATOM      7 CL   UNL     1       8.211   1.749   1.533  0.00  0.00    -0.076 Cl
ENDBRANCH   1   2
BRANCH   1   8
ATOM      8  C   UNL     1       2.988  -2.074   2.160  0.00  0.00    -0.019 A 
ATOM      9  C   UNL     1       2.883  -3.067   3.076  0.00  0.00    +0.010 A 
ATOM     10  C   UNL     1       3.034  -4.377   2.664  0.00  0.00    +0.008 A 
ATOM     11  C   UNL     1       3.281  -4.631   1.356  0.00  0.00    +0.045 A 
ATOM     12  S   UNL     1       3.302  -2.988   0.659  0.00  0.00    -0.103 S 
ENDBRANCH   1   8
BRANCH   1  13
ATOM     13  N   UNL     1       2.120  -0.002   1.231  0.00  0.00    +0.389 N 
ATOM     14  H   UNL     1       2.567  -0.259   0.363  0.00  0.00    -0.084 HD
ATOM     15  H   UNL     1       2.109   1.003   1.319  0.00  0.00    -0.084 HD
BRANCH  13  22
ATOM     16  C   UNL     1      -0.019   1.526   0.010  0.00  0.00    +0.006 C 
ATOM     17  C   UNL     1       0.002  -0.004   0.002  0.00  0.00    -0.028 C 
ATOM     18  C   UNL     1      -1.433  -0.534   0.013  0.00  0.00    +0.002 C 
ATOM     19  C   UNL     1      -2.149  -0.040   1.272  0.00  0.00    +0.000 C 
ATOM     20  C   UNL     1      -1.409  -0.547   2.511  0.00  0.00    -0.002 C 
ATOM     21  C   UNL     1       0.026  -0.018   2.500  0.00  0.00    -0.015 C 
ATOM     22  C   UNL     1       0.742  -0.511   1.242  0.00  0.00    -0.068 C 
ENDBRANCH  13  22
ENDBRANCH   1  13
TORSDOF 4
