REMARK  Name = ZINC01973074
REMARK  6 active torsions:
REMARK  status: ('A' for Active; 'I' for Inactive)
REMARK    1  A    between atoms: C_1  and  C_2
REMARK    2  A    between atoms: C_6  and  C_8
REMARK    3  A    between atoms: C_8  and  S_9
REMARK    4  A    between atoms: S_9  and  C_10
REMARK    5  A    between atoms: C_13  and  O_14
REMARK    6  A    between atoms: C_22  and  C_26
REMARK                            x       y       z     vdW  Elec       q    Type
REMARK                         _______ _______ _______ _____ _____    ______ ____
ROOT
ATOM      1  C   UNL     1      -1.210   1.619   0.018  0.00  0.00    +0.193 A 
ATOM      2  N   UNL     1      -0.011   0.966   0.007  0.00  0.00    -0.187 NA
ATOM      3  C   UNL     1       1.153   1.642   0.000  0.00  0.00    +0.225 A 
ATOM      4  C   UNL     1       1.126   3.072  -0.003  0.00  0.00    +0.072 A 
ATOM      5  C   UNL     1       2.258   4.001  -0.016  0.00  0.00    -0.023 A 
ATOM      6  C   UNL     1       1.969   5.318  -0.011  0.00  0.00    -0.004 A 
ATOM      7  S   UNL     1       0.199   5.401   0.011  0.00  0.00    -0.073 S 
ATOM      8  C   UNL     1      -0.150   3.660   0.013  0.00  0.00    +0.117 A 
ATOM      9  N   UNL     1      -1.262   2.936   0.025  0.00  0.00    -0.214 NA
ATOM     10  C   UNL     1       2.938   6.460  -0.023  0.00  0.00    +0.046 C 
ATOM     11  C   UNL     1       4.320   5.919  -0.418  0.00  0.00    -0.009 C 
ATOM     12  C   UNL     1       4.613   4.667   0.414  0.00  0.00    +0.008 C 
ATOM     13  C   UNL     1       3.707   3.521  -0.035  0.00  0.00    +0.037 C 
ATOM     14  C   UNL     1       5.386   6.981  -0.141  0.00  0.00    +0.008 C 
ENDROOT
BRANCH   3  16
ATOM     15  H   UNL     1       2.968   1.701  -0.017  0.00  0.00    +0.294 HD
ATOM     16  O   UNL     1       2.215   1.043  -0.013  0.00  0.00    -0.492 OA
ENDBRANCH   3  16
BRANCH   1  17
ATOM     17  S   UNL     1      -2.706   0.689   0.021  0.00  0.00    -0.081 S 
BRANCH  17  18
ATOM     18  C   UNL     1      -3.914   2.037   0.034  0.00  0.00    +0.112 C 
BRANCH  18  24
ATOM     19  C   UNL     1      -7.936   0.403  -2.456  0.00  0.00    +0.044 C 
ATOM     20  C   UNL     1      -7.231   0.682  -1.153  0.00  0.00    -0.050 A 
ATOM     21  C   UNL     1      -7.864   0.412   0.046  0.00  0.00    +0.003 A 
ATOM     22  C   UNL     1      -7.218   0.668   1.241  0.00  0.00    +0.001 A 
ATOM     23  C   UNL     1      -5.940   1.194   1.237  0.00  0.00    +0.004 A 
ATOM     24  C   UNL     1      -5.307   1.464   0.038  0.00  0.00    -0.037 A 
ATOM     25  C   UNL     1      -5.955   1.212  -1.157  0.00  0.00    +0.007 A 
ENDBRANCH  18  24
ENDBRANCH  17  18
ENDBRANCH   1  17
TORSDOF 4
