REMARK  Name = ZINC63375149
REMARK  9 active torsions:
REMARK  status: ('A' for Active; 'I' for Inactive)
REMARK    1  A    between atoms: C_1  and  C_2
REMARK    2  A    between atoms: C_5  and  C_8
REMARK    3  A    between atoms: C_8  and  N_9
REMARK    4  A    between atoms: C_10  and  C_12
REMARK    5  A    between atoms: C_12  and  C_14
REMARK    6  A    between atoms: C_12  and  N_17
REMARK    7  A    between atoms: C_14  and  C_15
REMARK    8  A    between atoms: C_14  and  C_16
REMARK    9  A    between atoms: C_20  and  C_36
REMARK                            x       y       z     vdW  Elec       q    Type
REMARK                         _______ _______ _______ _____ _____    ______ ____
ROOT
ATOM      1  N   UNL     1       3.015  -7.995  -0.319  0.00  0.00    -0.212 N 
ATOM      2  C   UNL     1       3.667  -8.923   0.410  0.00  0.00    +0.249 C 
ATOM      3  O   UNL     1       4.433  -8.725   1.329  0.00  0.00    -0.273 OA
ATOM      4  C   UNL     1       3.244 -10.261  -0.155  0.00  0.00    +0.136 C 
ATOM      5  C   UNL     1       4.462 -11.005  -0.716  0.00  0.00    +0.139 C 
ATOM      6  C   UNL     1       3.925 -12.021  -1.716  0.00  0.00    -0.034 C 
ATOM      7  C   UNL     1       4.353 -13.211  -1.306  0.00  0.00    -0.001 A 
ATOM      8  C   UNL     1       4.208 -14.555  -1.888  0.00  0.00    +0.010 A 
ATOM      9  C   UNL     1       4.773 -15.575  -1.188  0.00  0.00    +0.001 A 
ATOM     10  C   UNL     1       5.458 -15.394   0.017  0.00  0.00    +0.002 A 
ATOM     11  C   UNL     1       5.643 -14.193   0.622  0.00  0.00    +0.026 A 
ATOM     12  C   UNL     1       5.097 -13.043  -0.021  0.00  0.00    +0.043 A 
ATOM     13  N   UNL     1       5.142 -11.779   0.326  0.00  0.00    -0.375 N 
ATOM     14  C   UNL     1       3.029 -11.651  -2.873  0.00  0.00    +0.052 C 
ATOM     15  C   UNL     1       1.858 -10.829  -2.297  0.00  0.00    +0.115 C 
ATOM     16  N   UNL     1       2.399  -9.888  -1.312  0.00  0.00    -0.269 N 
ATOM     17  C   UNL     1       2.268  -8.555  -1.280  0.00  0.00    +0.313 C 
ATOM     18  O   UNL     1       1.556  -7.927  -2.038  0.00  0.00    -0.252 OA
ATOM     19  C   UNL     1       2.476 -11.098   0.871  0.00  0.00    +0.044 C 
ATOM     20  H   UNL     1       5.547 -11.415   1.129  0.00  0.00    +0.160 HD
ENDROOT
BRANCH   1  21
ATOM     21  C   UNL     1       3.107  -6.551  -0.086  0.00  0.00    +0.174 C 
BRANCH  21  23
ATOM     22  N   UNL     1       1.655  -4.761   0.812  0.00  0.00    -0.310 N 
ATOM     23  C   UNL     1       1.770  -6.031   0.377  0.00  0.00    +0.235 C 
ATOM     24  O   UNL     1       0.798  -6.756   0.359  0.00  0.00    -0.274 OA
ATOM     25  H   UNL     1       2.443  -4.198   0.878  0.00  0.00    +0.149 HD
BRANCH  22  26
ATOM     26  C   UNL     1       0.342  -4.230   1.185  0.00  0.00    +0.139 C 
BRANCH  26  31
ATOM     27  C   UNL     1       0.897   1.259   2.905  0.00  0.00    +0.044 C 
ATOM     28  C   UNL     1       0.752  -0.172   2.457  0.00  0.00    -0.050 A 
ATOM     29  C   UNL     1       0.517  -0.459   1.125  0.00  0.00    +0.003 A 
ATOM     30  C   UNL     1       0.384  -1.772   0.714  0.00  0.00    +0.005 A 
ATOM     31  C   UNL     1       0.487  -2.798   1.634  0.00  0.00    -0.030 A 
ATOM     32  C   UNL     1       0.724  -2.512   2.965  0.00  0.00    +0.005 A 
ATOM     33  C   UNL     1       0.861  -1.199   3.376  0.00  0.00    +0.003 A 
ENDBRANCH  26  31
ENDBRANCH  22  26
ENDBRANCH  21  23
BRANCH  21  34
ATOM     34  C   UNL     1       3.504  -5.849  -1.386  0.00  0.00    +0.013 C 
ATOM     35  C   UNL     1       3.606  -4.342  -1.141  0.00  0.00    +0.009 C 
ATOM     36  C   UNL     1       4.857  -6.381  -1.860  0.00  0.00    +0.009 C 
ENDBRANCH  21  34
ENDBRANCH   1  21
TORSDOF 5
