REMARK  Name = ZINC36032541
REMARK  8 active torsions:
REMARK  status: ('A' for Active; 'I' for Inactive)
REMARK    1  A    between atoms: C_1  and  C_2
REMARK    2  A    between atoms: C_2  and  C_3
REMARK    3  A    between atoms: C_2  and  C_4
REMARK    4  A    between atoms: C_4  and  C_5
REMARK    5  A    between atoms: N_9  and  C_26
REMARK    6  A    between atoms: C_17  and  C_19
REMARK    7  A    between atoms: C_26  and  C_27
REMARK    8  A    between atoms: C_31  and  C_33
REMARK                            x       y       z     vdW  Elec       q    Type
REMARK                         _______ _______ _______ _____ _____    ______ ____
ROOT
ATOM      1  C   UNL     1      -1.089  -1.838  -0.806  0.00  0.00    +0.019 C 
ATOM      2  C   UNL     1      -2.381  -2.414  -0.266  0.00  0.00    +0.201 C 
ATOM      3  O   UNL     1      -2.922  -2.091   0.770  0.00  0.00    -0.277 OA
ATOM      4  N   UNL     1      -2.829  -3.346  -1.133  0.00  0.00    -0.309 N 
ATOM      5  C   UNL     1      -1.899  -3.453  -2.260  0.00  0.00    +0.006 C 
ATOM      6  N   UNL     1      -1.066  -2.229  -2.236  0.00  0.00    +0.401 N 
ATOM      7  C   UNL     1      -2.670  -3.528  -3.576  0.00  0.00    +0.025 C 
ATOM      8  C   UNL     1      -3.555  -4.779  -3.576  0.00  0.00    +0.108 C 
ATOM      9  N   UNL     1      -2.717  -5.951  -3.289  0.00  0.00    -0.298 N 
ATOM     10  C   UNL     1      -1.880  -5.943  -2.082  0.00  0.00    +0.108 C 
ATOM     11  C   UNL     1      -1.008  -4.683  -2.095  0.00  0.00    +0.025 C 
ATOM     12  C   UNL     1      -2.717  -7.014  -4.118  0.00  0.00    +0.247 C 
ATOM     13  O   UNL     1      -3.338  -6.971  -5.162  0.00  0.00    -0.270 OA
ATOM     14  H   UNL     1      -1.477  -1.508  -2.810  0.00  0.00    -0.082 HD
ATOM     15  H   UNL     1      -0.124  -2.432  -2.535  0.00  0.00    -0.082 HD
ENDROOT
BRANCH  12  16
ATOM     16  C   UNL     1      -1.962  -8.232  -3.757  0.00  0.00    +0.037 A 
ATOM     17  C   UNL     1      -1.955  -8.687  -2.437  0.00  0.00    +0.014 A 
ATOM     18  C   UNL     1      -1.248  -9.824  -2.107  0.00  0.00    +0.021 A 
ATOM     19  C   UNL     1      -0.547 -10.515  -3.081  0.00  0.00    +0.041 A 
ATOM     20  C   UNL     1      -0.550 -10.068  -4.392  0.00  0.00    +0.021 A 
ATOM     21  C   UNL     1      -1.257  -8.935  -4.736  0.00  0.00    +0.014 A 
ATOM     22 CL   UNL     1       0.341 -11.945  -2.658  0.00  0.00    -0.084 Cl
ENDBRANCH  12  16
BRANCH   1  23
ATOM     23  C   UNL     1      -1.089  -0.314  -0.671  0.00  0.00    -0.004 C 
BRANCH  23  25
ATOM     24  C   UNL     1       0.199   1.772  -1.158  0.00  0.00    +0.007 C 
ATOM     25  C   UNL     1       0.245   0.242  -1.175  0.00  0.00    -0.018 C 
ATOM     26  C   UNL     1       1.376  -0.245  -0.268  0.00  0.00    +0.007 C 
ENDBRANCH  23  25
ENDBRANCH   1  23
BRANCH   4  27
ATOM     27  C   UNL     1      -4.056  -4.130  -0.971  0.00  0.00    +0.141 C 
BRANCH  27  28
ATOM     28  C   UNL     1      -5.246  -3.283  -1.343  0.00  0.00    -0.030 A 
ATOM     29  C   UNL     1      -6.118  -2.848  -0.362  0.00  0.00    +0.005 A 
ATOM     30  C   UNL     1      -7.209  -2.071  -0.702  0.00  0.00    +0.001 A 
ATOM     31  C   UNL     1      -7.428  -1.728  -2.024  0.00  0.00    +0.012 A 
ATOM     32  C   UNL     1      -6.556  -2.162  -3.004  0.00  0.00    +0.055 A 
ATOM     33  C   UNL     1      -5.462  -2.936  -2.663  0.00  0.00    +0.017 A 
BRANCH  32  34
ATOM     34  C   UNL     1      -6.795  -1.789  -4.444  0.00  0.00    +0.417 C 
ATOM     35  F   UNL     1      -7.951  -1.007  -4.538  0.00  0.00    -0.166 F 
ATOM     36  F   UNL     1      -5.701  -1.063  -4.926  0.00  0.00    -0.166 F 
ATOM     37  F   UNL     1      -6.955  -2.951  -5.207  0.00  0.00    -0.166 F 
ENDBRANCH  32  34
ENDBRANCH  27  28
ENDBRANCH   4  27
TORSDOF 6
