REMARK  Name = ZINC35973377
REMARK  11 active torsions:
REMARK  status: ('A' for Active; 'I' for Inactive)
REMARK    1  A    between atoms: C_1  and  C_2
REMARK    2  A    between atoms: C_2  and  C_3
REMARK    3  A    between atoms: C_4  and  C_17
REMARK    4  A    between atoms: C_5  and  N_14
REMARK    5  A    between atoms: N_6  and  C_8
REMARK    6  A    between atoms: N_14  and  C_15
REMARK    7  A    between atoms: N_14  and  C_16
REMARK    8  A    between atoms: C_17  and  N_18
REMARK    9  A    between atoms: N_18  and  C_19
REMARK   10  A    between atoms: C_19  and  C_20
REMARK   11  A    between atoms: C_25  and  C_27
REMARK                            x       y       z     vdW  Elec       q    Type
REMARK                         _______ _______ _______ _____ _____    ______ ____
ROOT
ATOM      1  C   UNL     1       1.092  -0.026  -1.428  0.00  0.00    +0.041 A 
ATOM      2  C   UNL     1       2.365  -0.041  -0.849  0.00  0.00    +0.030 A 
ATOM      3  C   UNL     1       3.279  -0.135  -1.854  0.00  0.00    +0.127 A 
ATOM      4  N   UNL     1       2.592  -0.177  -3.028  0.00  0.00    -0.241 N 
ATOM      5  N   UNL     1       1.226  -0.112  -2.727  0.00  0.00    -0.295 N 
ATOM      6  H   UNL     1       0.501  -0.126  -3.372  0.00  0.00    +0.187 HD
ENDROOT
BRANCH   4   7
ATOM      7  C   UNL     1       3.151  -0.273  -4.310  0.00  0.00    +0.065 A 
ATOM      8  C   UNL     1       4.243   0.513  -4.653  0.00  0.00    +0.028 A 
ATOM      9  C   UNL     1       4.793   0.416  -5.916  0.00  0.00    +0.002 A 
ATOM     10  C   UNL     1       4.256  -0.463  -6.839  0.00  0.00    +0.000 A 
ATOM     11  C   UNL     1       3.169  -1.246  -6.501  0.00  0.00    +0.002 A 
ATOM     12  C   UNL     1       2.618  -1.158  -5.237  0.00  0.00    +0.028 A 
ENDBRANCH   4   7
BRANCH   3  13
ATOM     13  N   UNL     1       4.662  -0.180  -1.708  0.00  0.00    -0.321 N 
ATOM     14  C   UNL     1       5.359  -1.469  -1.719  0.00  0.00    +0.130 C 
ATOM     15  C   UNL     1       5.422   1.062  -1.542  0.00  0.00    +0.130 C 
ENDBRANCH   3  13
BRANCH   1  17
ATOM     16  C   UNL     1      -0.506   1.531  -0.346  0.00  0.00    +0.010 C 
ATOM     17  C   UNL     1      -0.213   0.067  -0.681  0.00  0.00    +0.052 C 
ENDBRANCH   1  17
BRANCH   2  18
ATOM     18  C   UNL     1       2.671   0.033   0.624  0.00  0.00    +0.148 C 
BRANCH  18  19
ATOM     19  N   UNL     1       2.983  -1.308   1.126  0.00  0.00    -0.289 N 
ATOM     20  C   UNL     1       1.987  -2.147   1.471  0.00  0.00    +0.219 C 
ATOM     21  O   UNL     1       0.832  -1.829   1.279  0.00  0.00    -0.275 OA
BRANCH  20  22
ATOM     22  C   UNL     1       2.307  -3.481   2.095  0.00  0.00    +0.075 C 
ATOM     23  C   UNL     1       2.502  -4.546   0.996  0.00  0.00    +0.013 C 
ATOM     24  C   UNL     1       1.882  -5.831   1.598  0.00  0.00    +0.001 C 
ATOM     25  C   UNL     1       0.646  -5.291   2.359  0.00  0.00    +0.001 C 
ATOM     26  C   UNL     1       1.127  -3.955   2.962  0.00  0.00    +0.013 C 
ENDBRANCH  20  22
BRANCH  19  27
ATOM     27  C   UNL     1       4.378  -1.736   1.253  0.00  0.00    +0.182 C 
BRANCH  27  28
ATOM     28  C   UNL     1       4.939  -1.240   2.561  0.00  0.00    +0.122 A 
ATOM     29  C   UNL     1       4.910  -1.902   3.732  0.00  0.00    +0.046 A 
ATOM     30  C   UNL     1       5.542  -1.074   4.687  0.00  0.00    +0.041 A 
ATOM     31  C   UNL     1       5.920   0.045   4.043  0.00  0.00    +0.195 A 
ATOM     32  O   UNL     1       5.557  -0.063   2.755  0.00  0.00    -0.466 OA
ENDBRANCH  27  28
ENDBRANCH  19  27
ENDBRANCH  18  19
ENDBRANCH   2  18
TORSDOF 8
