REMARK  Name = ZINC06149485
REMARK  15 active torsions:
REMARK  status: ('A' for Active; 'I' for Inactive)
REMARK    1  A    between atoms: C_1  and  C_2
REMARK    2  A    between atoms: C_2  and  C_3
REMARK    3  A    between atoms: C_3  and  C_4
REMARK    4  A    between atoms: C_3  and  C_5
REMARK    5  A    between atoms: C_3  and  N_6
REMARK    6  A    between atoms: C_7  and  C_11
REMARK    7  A    between atoms: C_11  and  C_13
REMARK    8  A    between atoms: C_11  and  N_73
REMARK    9  A    between atoms: C_17  and  O_25
REMARK   10  A    between atoms: O_25  and  C_26
REMARK   11  A    between atoms: C_26  and  C_27
REMARK   12  A    between atoms: C_28  and  C_29
REMARK   13  A    between atoms: C_28  and  N_73
REMARK   14  A    between atoms: C_35  and  C_36
REMARK   15  A    between atoms: C_35  and  N_73
REMARK                            x       y       z     vdW  Elec       q    Type
REMARK                         _______ _______ _______ _____ _____    ______ ____
ROOT
ATOM      1  C   UNL     1       5.347  -1.768  -2.111  0.00  0.00    +0.040 C 
ENDROOT
BRANCH   1   2
ATOM      2  C   UNL     1       5.877  -1.912  -3.515  0.00  0.00    +0.011 A 
ATOM      3  C   UNL     1       5.735  -3.089  -4.173  0.00  0.00    +0.017 A 
ATOM      4  C   UNL     1       6.261  -3.197  -5.535  0.00  0.00    +0.002 A 
ATOM      5  C   UNL     1       6.142  -4.386  -6.263  0.00  0.00    +0.055 A 
ATOM      6  C   UNL     1       6.649  -4.453  -7.545  0.00  0.00    +0.121 A 
ATOM      7  C   UNL     1       7.276  -3.346  -8.113  0.00  0.00    +0.047 A 
ATOM      8  C   UNL     1       7.399  -2.170  -7.406  0.00  0.00    +0.030 A 
ATOM      9  C   UNL     1       6.895  -2.080  -6.113  0.00  0.00    +0.049 A 
ATOM     10  N   UNL     1       7.008  -0.911  -5.388  0.00  0.00    -0.322 N 
ATOM     11  H   UNL     1       7.462  -0.120  -5.798  0.00  0.00    +0.169 HD
ATOM     12  C   UNL     1       6.516  -0.820  -4.140  0.00  0.00    +0.251 A 
ATOM     13  O   UNL     1       6.628   0.230  -3.532  0.00  0.00    -0.268 OA
BRANCH   6  14
ATOM     14  O   UNL     1       6.537  -5.606  -8.257  0.00  0.00    -0.492 OA
BRANCH  14  15
ATOM     15  C   UNL     1       7.083  -5.608  -9.578  0.00  0.00    +0.225 C 
ATOM     16  C   UNL     1       6.864  -6.981 -10.217  0.00  0.00    +0.048 C 
ENDBRANCH  14  15
ENDBRANCH   6  14
ENDBRANCH   1   2
BRANCH   1  18
ATOM     17  N   UNL     1       7.018  -2.377  -0.283  0.00  0.00    -0.225 N 
ATOM     18  C   UNL     1       6.491  -1.508  -1.166  0.00  0.00    +0.143 A 
ATOM     19  N   UNL     1       7.170  -0.393  -1.047  0.00  0.00    -0.115 NA
ATOM     20  N   UNL     1       8.062  -0.566  -0.134  0.00  0.00    -0.023 NA
ATOM     21  N   UNL     1       7.975  -1.765   0.328  0.00  0.00    -0.043 NA
BRANCH  17  22
ATOM     22  C   UNL     1       6.585  -3.759  -0.059  0.00  0.00    +0.061 C 
ATOM     23  C   UNL     1       5.148  -3.764   0.468  0.00  0.00    +0.036 C 
ATOM     24  C   UNL     1       6.648  -4.534  -1.376  0.00  0.00    +0.036 C 
BRANCH  22  26
ATOM     25  C   UNL     1       7.055  -5.864   1.202  0.00  0.00    +0.006 C 
ATOM     26  C   UNL     1       7.507  -4.421   0.967  0.00  0.00    +0.026 C 
ENDBRANCH  22  26
ENDBRANCH  17  22
ENDBRANCH   1  18
BRANCH   1  27
ATOM     27  N   UNL     1       4.417  -0.620  -2.063  0.00  0.00    +0.397 N 
ATOM     28  H   UNL     1       4.946   0.244  -2.230  0.00  0.00    -0.079 HD
BRANCH  27  29
ATOM     29  C   UNL     1       3.384  -0.761  -3.111  0.00  0.00    -0.041 C 
BRANCH  29  30
ATOM     30  C   UNL     1       2.589   0.516  -3.185  0.00  0.00    -0.064 A 
ATOM     31  C   UNL     1       3.001   1.539  -4.019  0.00  0.00    +0.002 A 
ATOM     32  C   UNL     1       2.271   2.711  -4.087  0.00  0.00    +0.000 A 
ATOM     33  C   UNL     1       1.130   2.861  -3.321  0.00  0.00    +0.000 A 
ATOM     34  C   UNL     1       0.718   1.838  -2.488  0.00  0.00    +0.000 A 
ATOM     35  C   UNL     1       1.448   0.666  -2.420  0.00  0.00    +0.002 A 
ENDBRANCH  29  30
ENDBRANCH  27  29
BRANCH  27  36
ATOM     36  C   UNL     1       3.779  -0.543  -0.732  0.00  0.00    -0.001 C 
BRANCH  36  37
ATOM     37  C   UNL     1       4.774   0.022   0.249  0.00  0.00    +0.089 A 
ATOM     38  C   UNL     1       5.037   1.327   0.440  0.00  0.00    +0.042 A 
ATOM     39  C   UNL     1       6.028   1.403   1.445  0.00  0.00    +0.041 A 
ATOM     40  C   UNL     1       6.311   0.139   1.809  0.00  0.00    +0.195 A 
ATOM     41  O   UNL     1       5.545  -0.693   1.085  0.00  0.00    -0.470 OA
ENDBRANCH  36  37
ENDBRANCH  27  36
ENDBRANCH   1  27
TORSDOF 11
