REMARK  Name = ZINC01201107
REMARK  8 active torsions:
REMARK  status: ('A' for Active; 'I' for Inactive)
REMARK    1  A    between atoms: C_1  and  C_2
REMARK    2  A    between atoms: C_2  and  O_3
REMARK    3  A    between atoms: O_3  and  C_4
REMARK    4  A    between atoms: C_8  and  C_11
REMARK    5  A    between atoms: C_9  and  O_10
REMARK    6  A    between atoms: N_12  and  N_13
REMARK    7  A    between atoms: C_14  and  C_16
REMARK    8  A    between atoms: C_17  and  C_26
REMARK                            x       y       z     vdW  Elec       q    Type
REMARK                         _______ _______ _______ _____ _____    ______ ____
ROOT
ATOM      1  N   UNL     1      -6.835  -3.724  -1.012  0.00  0.00    -0.202 N 
ATOM      2  C   UNL     1      -7.824  -3.162  -0.288  0.00  0.00    +0.271 C 
ATOM      3  O   UNL     1      -7.657  -2.071   0.227  0.00  0.00    -0.268 OA
ATOM      4  H   UNL     1      -6.967  -4.593  -1.422  0.00  0.00    +0.178 HD
ENDROOT
BRANCH   2   5
ATOM      5  C   UNL     1      -9.057  -3.842  -0.127  0.00  0.00    +0.093 C 
ATOM      6  C   UNL     1      -9.986  -3.347   0.708  0.00  0.00    +0.024 C 
ATOM      7  N   UNL     1     -11.199  -3.924   0.921  0.00  0.00    -0.316 N 
ATOM      8  C   UNL     1     -11.494  -5.269   0.693  0.00  0.00    +0.045 A 
ATOM      9  C   UNL     1     -12.570  -5.848   1.354  0.00  0.00    +0.024 A 
ATOM     10  C   UNL     1     -12.884  -7.179   1.143  0.00  0.00    +0.002 A 
ATOM     11  C   UNL     1     -12.130  -7.942   0.272  0.00  0.00    +0.001 A 
ATOM     12  C   UNL     1     -11.055  -7.375  -0.391  0.00  0.00    +0.017 A 
ATOM     13  C   UNL     1     -10.735  -6.043  -0.181  0.00  0.00    +0.034 A 
ATOM     14  S   UNL     1      -9.362  -5.326  -1.026  0.00  0.00    -0.081 S 
ATOM     15  C   UNL     1      -9.665  -2.077   1.453  0.00  0.00    +0.062 C 
ATOM     16  H   UNL     1     -11.913  -3.358   1.256  0.00  0.00    +0.152 HD
ENDBRANCH   2   5
BRANCH   1  18
ATOM     17  C   UNL     1      -4.663  -3.592  -1.869  0.00  0.00    +0.142 C 
ATOM     18  N   UNL     1      -5.616  -3.052  -1.172  0.00  0.00    -0.187 NA
BRANCH  17  23
ATOM     19  C   UNL     1      -1.974  -0.973  -1.613  0.00  0.00    +0.162 A 
ATOM     20  C   UNL     1      -0.963  -1.560  -2.359  0.00  0.00    +0.049 A 
ATOM     21  C   UNL     1      -1.155  -2.800  -2.942  0.00  0.00    +0.004 A 
ATOM     22  C   UNL     1      -2.353  -3.465  -2.787  0.00  0.00    +0.013 A 
ATOM     23  C   UNL     1      -3.381  -2.886  -2.037  0.00  0.00    +0.040 A 
ATOM     24  C   UNL     1      -3.184  -1.633  -1.443  0.00  0.00    +0.167 A 
BRANCH  24  25
ATOM     25  O   UNL     1      -4.175  -1.064  -0.707  0.00  0.00    -0.503 OA
ATOM     26  H   UNL     1      -4.777  -0.508  -1.220  0.00  0.00    +0.292 HD
ENDBRANCH  24  25
BRANCH  19  27
ATOM     27  O   UNL     1      -1.778   0.246  -1.043  0.00  0.00    -0.489 OA
BRANCH  27  29
ATOM     28  C   UNL     1      -0.476   2.221  -0.546  0.00  0.00    +0.048 C 
ATOM     29  C   UNL     1      -0.510   0.867  -1.259  0.00  0.00    +0.226 C 
ENDBRANCH  27  29
ENDBRANCH  19  27
ENDBRANCH  17  23
ENDBRANCH   1  18
TORSDOF 6
