REMARK  Name = ZINC35329843
REMARK  9 active torsions:
REMARK  status: ('A' for Active; 'I' for Inactive)
REMARK    1  A    between atoms: C_4  and  N_33
REMARK    2  A    between atoms: C_6  and  C_7
REMARK    3  A    between atoms: N_9  and  C_10
REMARK    4  A    between atoms: N_9  and  C_26
REMARK    5  A    between atoms: C_10  and  C_11
REMARK    6  A    between atoms: C_13  and  C_16
REMARK    7  A    between atoms: N_18  and  C_19
REMARK    8  A    between atoms: C_19  and  C_20
REMARK    9  A    between atoms: C_26  and  C_27
REMARK                            x       y       z     vdW  Elec       q    Type
REMARK                         _______ _______ _______ _____ _____    ______ ____
ROOT
ATOM      1  C   UNL     1      -1.082  -0.651   0.095  0.00  0.00    +0.247 C 
ATOM      2  O   UNL     1      -0.951  -1.851  -0.047  0.00  0.00    -0.270 OA
ATOM      3  N   UNL     1      -2.314  -0.104   0.106  0.00  0.00    -0.286 N 
ENDROOT
BRANCH   1   9
ATOM      4  C   UNL     1       0.213   1.403  -0.461  0.00  0.00    +0.014 A 
ATOM      5  C   UNL     1       1.327   2.201  -0.307  0.00  0.00    +0.023 A 
ATOM      6  C   UNL     1       2.342   1.820   0.554  0.00  0.00    +0.071 A 
ATOM      7  C   UNL     1       2.245   0.635   1.266  0.00  0.00    +0.145 A 
ATOM      8  C   UNL     1       1.136  -0.171   1.121  0.00  0.00    +0.047 A 
ATOM      9  C   UNL     1       0.110   0.208   0.254  0.00  0.00    +0.039 A 
ATOM     10 CL   UNL     1       3.742   2.829   0.742  0.00  0.00    -0.081 Cl
BRANCH   7  11
ATOM     11  N   UNL     1       3.335   0.235   2.185  0.00  0.00    +0.058 N 
ATOM     12  O   UNL     1       3.252  -0.798   2.807  0.00  0.00    -0.126 OA
ATOM     13  O   UNL     1       4.308   0.941   2.312  0.00  0.00    -0.126 OA
ENDBRANCH   7  11
ENDBRANCH   1   9
BRANCH   3  14
ATOM     14  C   UNL     1      -3.498  -0.966   0.088  0.00  0.00    +0.204 C 
BRANCH  14  15
ATOM     15  C   UNL     1      -3.904  -1.291   1.503  0.00  0.00    +0.213 A 
ATOM     16  N   UNL     1      -4.735  -0.600   2.224  0.00  0.00    -0.207 NA
ATOM     17  C   UNL     1      -4.852  -1.199   3.440  0.00  0.00    +0.164 A 
ATOM     18  C   UNL     1      -4.047  -2.297   3.424  0.00  0.00    +0.230 A 
ATOM     19  O   UNL     1      -3.471  -2.342   2.213  0.00  0.00    -0.445 OA
BRANCH  17  20
ATOM     20  C   UNL     1      -5.692  -0.745   4.563  0.00  0.00    +0.266 C 
ATOM     21  O   UNL     1      -5.708  -1.375   5.604  0.00  0.00    -0.268 OA
ATOM     22  N   UNL     1      -6.442   0.367   4.437  0.00  0.00    -0.308 N 
ATOM     23  H   UNL     1      -6.429   0.870   3.607  0.00  0.00    +0.149 HD
BRANCH  22  24
ATOM     24  C   UNL     1      -7.276   0.819   5.553  0.00  0.00    +0.136 C 
BRANCH  24  25
ATOM     25  C   UNL     1      -8.020   2.094   5.151  0.00  0.00    +0.135 C 
ATOM     26  C   UNL     1      -8.882   2.609   6.331  0.00  0.00    +0.035 C 
ATOM     27  C   UNL     1      -8.989   4.118   5.982  0.00  0.00    +0.031 C 
ATOM     28  C   UNL     1      -7.617   4.402   5.333  0.00  0.00    +0.160 C 
ATOM     29  O   UNL     1      -7.085   3.151   4.879  0.00  0.00    -0.375 OA
ENDBRANCH  24  25
ENDBRANCH  22  24
ENDBRANCH  17  20
ENDBRANCH  14  15
ENDBRANCH   3  14
BRANCH   3  30
ATOM     30  C   UNL     1      -2.468   1.352   0.136  0.00  0.00    +0.140 C 
BRANCH  30  31
ATOM     31  C   UNL     1      -2.742   1.865  -1.279  0.00  0.00    +0.136 C 
ATOM     32  C   UNL     1      -2.778   3.409  -1.279  0.00  0.00    +0.035 C 
ATOM     33  C   UNL     1      -3.942   3.711  -2.262  0.00  0.00    +0.031 C 
ATOM     34  C   UNL     1      -4.890   2.521  -1.971  0.00  0.00    +0.160 C 
ATOM     35  O   UNL     1      -4.022   1.401  -1.725  0.00  0.00    -0.375 OA
ENDBRANCH  30  31
ENDBRANCH   3  30
TORSDOF 9
