REMARK  Name = ZINC22838265
REMARK  6 active torsions:
REMARK  status: ('A' for Active; 'I' for Inactive)
REMARK    1  A    between atoms: C_1  and  C_2
REMARK    2  A    between atoms: C_3  and  N_9
REMARK    3  A    between atoms: C_4  and  C_8
REMARK    4  A    between atoms: N_5  and  C_7
REMARK    5  A    between atoms: C_10  and  C_12
REMARK    6  A    between atoms: C_15  and  C_17
REMARK                            x       y       z     vdW  Elec       q    Type
REMARK                         _______ _______ _______ _____ _____    ______ ____
ROOT
ATOM      1  N   UNL     1       0.045  -0.090   0.488  0.00  0.00    -0.277 N 
ATOM      2  C   UNL     1       0.360   0.926  -0.339  0.00  0.00    +0.267 C 
ATOM      3  O   UNL     1      -0.375   1.205  -1.268  0.00  0.00    -0.268 OA
ATOM      4  H   UNL     1       0.747  -0.394   1.279  0.00  0.00    +0.155 HD
ENDROOT
BRANCH   1   7
ATOM      5  C   UNL     1      -2.752   1.261   0.722  0.00  0.00    +0.069 C 
ATOM      6  C   UNL     1      -2.457  -0.190   0.438  0.00  0.00    +0.081 A 
ATOM      7  C   UNL     1      -1.182  -0.764   0.339  0.00  0.00    +0.077 A 
ATOM      8  C   UNL     1      -1.341  -2.085   0.069  0.00  0.00    +0.057 A 
ATOM      9  N   UNL     1      -2.675  -2.334   0.009  0.00  0.00    -0.270 N 
ATOM     10  N   UNL     1      -3.348  -1.128   0.241  0.00  0.00    -0.175 NA
ATOM     11  C   UNL     1      -3.299  -3.633  -0.256  0.00  0.00    +0.172 C 
ATOM     12  C   UNL     1      -0.237  -3.093  -0.127  0.00  0.00    +0.067 C 
ENDBRANCH   1   7
BRANCH   2  13
ATOM     13  C   UNL     1       1.596   1.697  -0.122  0.00  0.00    +0.133 A 
ATOM     14  C   UNL     1       1.925   2.734  -0.959  0.00  0.00    +0.080 A 
ATOM     15  S   UNL     1       3.425   3.274  -0.269  0.00  0.00    -0.075 S 
ATOM     16  C   UNL     1       3.510   2.095   1.070  0.00  0.00    +0.109 A 
ATOM     17  N   UNL     1       2.402   1.401   0.887  0.00  0.00    -0.234 NA
BRANCH  16  18
ATOM     18  C   UNL     1       4.547   1.941   2.113  0.00  0.00    +0.007 A 
ATOM     19  C   UNL     1       4.421   0.947   3.084  0.00  0.00    +0.012 A 
ATOM     20  C   UNL     1       5.394   0.804   4.052  0.00  0.00    +0.020 A 
ATOM     21  C   UNL     1       6.489   1.652   4.067  0.00  0.00    +0.041 A 
ATOM     22  C   UNL     1       6.616   2.644   3.109  0.00  0.00    +0.020 A 
ATOM     23  C   UNL     1       5.652   2.793   2.134  0.00  0.00    +0.012 A 
ATOM     24 CL   UNL     1       7.706   1.471   5.292  0.00  0.00    -0.084 Cl
ENDBRANCH  16  18
ENDBRANCH   2  13
TORSDOF 3
