REMARK  Name = ZINC36505161
REMARK  12 active torsions:
REMARK  status: ('A' for Active; 'I' for Inactive)
REMARK    1  A    between atoms: C_1  and  C_2
REMARK    2  A    between atoms: C_5  and  S_8
REMARK    3  A    between atoms: S_8  and  C_11
REMARK    4  A    between atoms: C_11  and  N_12
REMARK    5  A    between atoms: C_13  and  C_15
REMARK    6  A    between atoms: C_15  and  C_17
REMARK    7  A    between atoms: C_15  and  N_26
REMARK    8  A    between atoms: C_20  and  N_23
REMARK    9  A    between atoms: N_26  and  C_27
REMARK   10  A    between atoms: C_27  and  C_28
REMARK   11  A    between atoms: C_33  and  C_35
REMARK   12  A    between atoms: C_35  and  C_37
REMARK                            x       y       z     vdW  Elec       q    Type
REMARK                         _______ _______ _______ _____ _____    ______ ____
ROOT
ATOM      1  C   UNL     1      -1.532  -4.006   7.493  0.00  0.00    +0.193 C 
ENDROOT
BRANCH   1   2
ATOM      2  C   UNL     1      -2.345  -4.019   8.762  0.00  0.00    -0.018 A 
ATOM      3  C   UNL     1      -3.511  -4.759   8.828  0.00  0.00    +0.008 A 
ATOM      4  C   UNL     1      -4.257  -4.772   9.991  0.00  0.00    +0.033 A 
ATOM      5  C   UNL     1      -3.838  -4.044  11.089  0.00  0.00    +0.126 A 
ATOM      6  C   UNL     1      -2.672  -3.304  11.024  0.00  0.00    +0.033 A 
ATOM      7  C   UNL     1      -1.923  -3.296   9.861  0.00  0.00    +0.008 A 
BRANCH   5   8
ATOM      8  N   UNL     1      -4.637  -4.056  12.335  0.00  0.00    +0.056 N 
ATOM      9  O   UNL     1      -5.657  -4.703  12.392  0.00  0.00    -0.126 OA
ATOM     10  O   UNL     1      -4.270  -3.420  13.295  0.00  0.00    -0.126 OA
ENDBRANCH   5   8
ENDBRANCH   1   2
BRANCH   1  12
ATOM     11  N   UNL     1      -1.593  -1.779   6.417  0.00  0.00    -0.294 N 
ATOM     12  C   UNL     1      -2.125  -3.013   6.527  0.00  0.00    +0.239 C 
ATOM     13  O   UNL     1      -3.080  -3.324   5.848  0.00  0.00    -0.273 OA
ATOM     14  H   UNL     1      -0.829  -1.530   6.960  0.00  0.00    +0.150 HD
BRANCH  11  15
ATOM     15  C   UNL     1      -2.170  -0.814   5.478  0.00  0.00    +0.278 C 
BRANCH  15  16
ATOM     16  S   UNL     1      -3.356   0.245   6.350  0.00  0.00    +0.013 S 
ATOM     17  O   UNL     1      -4.226  -0.547   7.147  0.00  0.00    -0.168 OA
ATOM     18  O   UNL     1      -3.877   1.228   5.466  0.00  0.00    -0.168 OA
BRANCH  16  23
ATOM     19  C   UNL     1      -0.036   3.351  10.318  0.00  0.00    +0.044 C 
ATOM     20  C   UNL     1      -0.865   2.575   9.327  0.00  0.00    -0.050 A 
ATOM     21  C   UNL     1      -1.075   3.079   8.057  0.00  0.00    +0.005 A 
ATOM     22  C   UNL     1      -1.836   2.368   7.148  0.00  0.00    +0.027 A 
ATOM     23  C   UNL     1      -2.385   1.152   7.509  0.00  0.00    +0.090 A 
ATOM     24  C   UNL     1      -2.174   0.647   8.778  0.00  0.00    +0.027 A 
ATOM     25  C   UNL     1      -1.410   1.357   9.686  0.00  0.00    +0.005 A 
ENDBRANCH  16  23
ENDBRANCH  15  16
ENDBRANCH  11  15
ENDBRANCH   1  12
BRANCH   1  26
ATOM     26  N   UNL     1      -1.544  -5.341   6.891  0.00  0.00    -0.275 N 
ATOM     27  C   UNL     1      -0.455  -6.130   6.979  0.00  0.00    +0.243 C 
ATOM     28  O   UNL     1       0.495  -5.781   7.652  0.00  0.00    -0.270 OA
BRANCH  27  29
ATOM     29  C   UNL     1      -0.417  -7.413   6.260  0.00  0.00    +0.004 C 
ATOM     30  C   UNL     1       0.731  -7.860   5.758  0.00  0.00    +0.017 C 
ATOM     31  C   UNL     1      -1.678  -8.221   6.092  0.00  0.00    +0.048 C 
ENDBRANCH  27  29
BRANCH  26  32
ATOM     32  C   UNL     1      -2.741  -5.819   6.193  0.00  0.00    +0.183 C 
BRANCH  32  33
ATOM     33  C   UNL     1      -2.507  -5.771   4.705  0.00  0.00    +0.122 A 
ATOM     34  C   UNL     1      -3.173  -6.486   3.781  0.00  0.00    +0.046 A 
ATOM     35  C   UNL     1      -2.634  -6.132   2.523  0.00  0.00    +0.041 A 
ATOM     36  C   UNL     1      -1.672  -5.221   2.753  0.00  0.00    +0.195 A 
ATOM     37  O   UNL     1      -1.603  -5.002   4.077  0.00  0.00    -0.466 OA
ENDBRANCH  32  33
ENDBRANCH  26  32
ENDBRANCH   1  26
TORSDOF 10
