REMARK  Name = ZINC12247895
REMARK  8 active torsions:
REMARK  status: ('A' for Active; 'I' for Inactive)
REMARK    1  A    between atoms: C_1  and  N_2
REMARK    2  A    between atoms: C_10  and  C_12
REMARK    3  A    between atoms: C_12  and  N_13
REMARK    4  A    between atoms: C_14  and  C_16
REMARK    5  A    between atoms: C_19  and  C_24
REMARK    6  A    between atoms: C_24  and  N_72
REMARK    7  A    between atoms: C_27  and  C_30
REMARK    8  A    between atoms: C_30  and  C_31
REMARK                            x       y       z     vdW  Elec       q    Type
REMARK                         _______ _______ _______ _____ _____    ______ ____
ROOT
ATOM      1  C   UNL     1      -0.396   1.485  -0.448  0.00  0.00    +0.101 A 
ATOM      2  C   UNL     1      -1.522   2.263  -0.184  0.00  0.00    +0.020 A 
ATOM      3  C   UNL     1      -1.369   3.641  -0.028  0.00  0.00    +0.020 A 
ATOM      4  C   UNL     1      -0.141   4.207  -0.143  0.00  0.00    +0.003 A 
ATOM      5  N   UNL     1       0.957   3.458  -0.404  0.00  0.00    -0.327 N 
ATOM      6  H   UNL     1       1.822   3.890  -0.481  0.00  0.00    +0.169 HD
ATOM      7  C   UNL     1       0.866   2.124  -0.559  0.00  0.00    +0.261 A 
ATOM      8  O   UNL     1       1.865   1.466  -0.794  0.00  0.00    -0.267 OA
ENDROOT
BRANCH   1  10
ATOM      9  N   UNL     1       0.557  -0.697  -0.988  0.00  0.00    -0.307 N 
ATOM     10  C   UNL     1      -0.515   0.029  -0.614  0.00  0.00    +0.250 C 
ATOM     11  O   UNL     1      -1.582  -0.521  -0.415  0.00  0.00    -0.270 OA
ATOM     12  H   UNL     1       1.424  -0.271  -1.077  0.00  0.00    +0.149 HD
BRANCH   9  13
ATOM     13  C   UNL     1       0.414  -2.129  -1.260  0.00  0.00    +0.139 C 
BRANCH  13  23
ATOM     14  C   UNL     1       5.945  -3.558  -3.965  0.00  0.00    +0.129 C 
ATOM     15  N   UNL     1       5.426  -4.296  -2.806  0.00  0.00    -0.333 N 
ATOM     16  C   UNL     1       6.429  -4.373  -1.741  0.00  0.00    +0.105 C 
ATOM     17  C   UNL     1       5.826  -5.130  -0.552  0.00  0.00    +0.024 C 
ATOM     18  C   UNL     1       4.723  -4.257   0.052  0.00  0.00    +0.038 C 
ATOM     19  C   UNL     1       3.831  -3.734  -1.046  0.00  0.00    -0.026 A 
ATOM     20  C   UNL     1       4.212  -3.764  -2.376  0.00  0.00    +0.033 A 
ATOM     21  C   UNL     1       3.350  -3.249  -3.346  0.00  0.00    +0.024 A 
ATOM     22  C   UNL     1       2.126  -2.728  -2.987  0.00  0.00    +0.007 A 
ATOM     23  C   UNL     1       1.751  -2.702  -1.656  0.00  0.00    -0.030 A 
ATOM     24  C   UNL     1       2.600  -3.206  -0.692  0.00  0.00    +0.010 A 
ENDBRANCH  13  23
ENDBRANCH   9  13
ENDBRANCH   1  10
BRANCH   4  25
ATOM     25  C   UNL     1       0.004   5.698   0.024  0.00  0.00    -0.025 C 
BRANCH  25  31
ATOM     26  C   UNL     1       0.041   5.418   2.428  0.00  0.00    -0.078 C 
ATOM     27  C   UNL     1       0.750   5.856   3.711  0.00  0.00    -0.015 C 
ATOM     28  C   UNL     1       2.202   5.373   3.677  0.00  0.00    -0.010 C 
ATOM     29  C   UNL     1       2.890   5.937   2.430  0.00  0.00    -0.015 C 
ATOM     30  C   UNL     1       2.119   5.496   1.184  0.00  0.00    -0.078 C 
ATOM     31  N   UNL     1       0.737   6.013   1.268  0.00  0.00    +0.383 N 
ATOM     32  H   UNL     1       0.769   7.033   1.386  0.00  0.00    -0.081 HD
BRANCH  28  33
ATOM     33  C   UNL     1       2.934   5.859   4.929  0.00  0.00    +0.038 C 
BRANCH  33  34
ATOM     34  C   UNL     1       2.334   5.207   6.147  0.00  0.00    -0.047 A 
ATOM     35  C   UNL     1       1.285   5.815   6.811  0.00  0.00    +0.003 A 
ATOM     36  C   UNL     1       0.731   5.214   7.926  0.00  0.00    +0.000 A 
ATOM     37  C   UNL     1       1.232   4.009   8.383  0.00  0.00    +0.000 A 
ATOM     38  C   UNL     1       2.283   3.403   7.721  0.00  0.00    +0.000 A 
ATOM     39  C   UNL     1       2.834   4.002   6.604  0.00  0.00    +0.003 A 
ENDBRANCH  33  34
ENDBRANCH  28  33
ENDBRANCH  25  31
ENDBRANCH   4  25
TORSDOF 7
