REMARK  Name = ZINC62222041
REMARK  6 active torsions:
REMARK  status: ('A' for Active; 'I' for Inactive)
REMARK    1  A    between atoms: C_1  and  C_2
REMARK    2  A    between atoms: C_9  and  C_14
REMARK    3  A    between atoms: C_14  and  N_15
REMARK    4  A    between atoms: N_15  and  S_16
REMARK    5  A    between atoms: S_16  and  N_19
REMARK    6  A    between atoms: N_19  and  C_20
REMARK                            x       y       z     vdW  Elec       q    Type
REMARK                         _______ _______ _______ _____ _____    ______ ____
ROOT
ATOM      1  C   UNL     1      -0.018   1.503   0.010  0.00  0.00    +0.044 C 
ATOM      2  C   UNL     1       0.002  -0.004   0.002  0.00  0.00    -0.050 A 
ATOM      3  C   UNL     1       0.006  -0.685  -1.208  0.00  0.00    +0.005 A 
ATOM      4  C   UNL     1       0.024  -2.063  -1.239  0.00  0.00    +0.026 A 
ATOM      5  C   UNL     1       0.040  -2.780  -0.047  0.00  0.00    +0.049 A 
ATOM      6  C   UNL     1       0.037  -2.086   1.177  0.00  0.00    -0.001 A 
ATOM      7  C   UNL     1       0.023  -0.687   1.185  0.00  0.00    +0.013 A 
ATOM      8  C   UNL     1       0.053  -2.850   2.426  0.00  0.00    +0.020 A 
ATOM      9  C   UNL     1       0.072  -4.204   2.357  0.00  0.00    +0.033 A 
ATOM     10  C   UNL     1       0.074  -4.852   1.103  0.00  0.00    +0.254 A 
ATOM     11  O   UNL     1       0.091  -6.070   1.064  0.00  0.00    -0.268 OA
ATOM     12  N   UNL     1       0.059  -4.159  -0.049  0.00  0.00    -0.322 N 
ATOM     13  H   UNL     1       0.061  -4.636  -0.893  0.00  0.00    +0.169 HD
ENDROOT
BRANCH   9  14
ATOM     14  C   UNL     1       0.089  -5.020   3.624  0.00  0.00    +0.147 C 
BRANCH  14  15
ATOM     15  N   UNL     1      -1.280  -5.404   3.976  0.00  0.00    -0.175 NA
ATOM     16  H   UNL     1      -2.032  -4.959   3.556  0.00  0.00    +0.149 HD
BRANCH  15  17
ATOM     17  S   UNL     1      -1.543  -6.599   5.092  0.00  0.00    +0.095 S 
ATOM     18  O   UNL     1      -2.952  -6.719   5.234  0.00  0.00    -0.141 OA
ATOM     19  O   UNL     1      -0.720  -7.695   4.716  0.00  0.00    -0.141 OA
BRANCH  17  20
ATOM     20  N   UNL     1      -0.967  -6.049   6.544  0.00  0.00    -0.177 NA
ATOM     21  H   UNL     1      -0.213  -6.491   6.965  0.00  0.00    +0.149 HD
BRANCH  20  22
ATOM     22  C   UNL     1      -1.595  -4.896   7.192  0.00  0.00    +0.078 C 
ATOM     23  C   UNL     1      -2.594  -5.373   8.266  0.00  0.00    +0.020 C 
ATOM     24  C   UNL     1      -1.783  -5.330   9.585  0.00  0.00    +0.002 C 
ATOM     25  C   UNL     1      -0.921  -4.054   9.415  0.00  0.00    +0.002 C 
ATOM     26  C   UNL     1      -0.531  -4.057   7.922  0.00  0.00    +0.020 C 
ENDBRANCH  20  22
ENDBRANCH  17  20
ENDBRANCH  15  17
ENDBRANCH  14  15
ENDBRANCH   9  14
TORSDOF 5
