REMARK  Name = ZINC10853779
REMARK  9 active torsions:
REMARK  status: ('A' for Active; 'I' for Inactive)
REMARK    1  A    between atoms: C_1  and  C_2
REMARK    2  A    between atoms: C_6  and  C_8
REMARK    3  A    between atoms: N_13  and  C_14
REMARK    4  A    between atoms: C_14  and  C_15
REMARK    5  A    between atoms: N_17  and  C_18
REMARK    6  A    between atoms: C_18  and  C_20
REMARK    7  A    between atoms: C_18  and  C_25
REMARK    8  A    between atoms: C_25  and  C_26
REMARK    9  A    between atoms: C_25  and  C_27
REMARK                            x       y       z     vdW  Elec       q    Type
REMARK                         _______ _______ _______ _____ _____    ______ ____
ROOT
ATOM      1  C   UNL     1       0.517  -5.176   1.547  0.00  0.00    +0.221 C 
ENDROOT
BRANCH   1   7
ATOM      2  C   UNL     1       0.109  -2.837   2.463  0.00  0.00    +0.165 A 
ATOM      3  N   UNL     1      -0.104  -2.345   3.661  0.00  0.00    -0.128 NA
ATOM      4  N   UNL     1      -0.086  -3.289   4.533  0.00  0.00    -0.121 NA
ATOM      5  C   UNL     1       0.138  -4.442   3.945  0.00  0.00    +0.203 A 
ATOM      6  S   UNL     1       0.248  -6.014   4.733  0.00  0.00    -0.009 SA
ATOM      7  N   UNL     1       0.265  -4.197   2.607  0.00  0.00    -0.293 N 
BRANCH   2  13
ATOM      8  C   UNL     1      -0.973   1.271  -0.154  0.00  0.00    +0.044 C 
ATOM      9  C   UNL     1      -0.355  -0.101  -0.067  0.00  0.00    -0.050 A 
ATOM     10  C   UNL     1       0.267  -0.649  -1.174  0.00  0.00    +0.003 A 
ATOM     11  C   UNL     1       0.837  -1.908  -1.102  0.00  0.00    +0.001 A 
ATOM     12  C   UNL     1       0.789  -2.624   0.076  0.00  0.00    +0.011 A 
ATOM     13  C   UNL     1       0.164  -2.076   1.197  0.00  0.00    +0.020 A 
ATOM     14  C   UNL     1      -0.405  -0.803   1.119  0.00  0.00    +0.015 A 
ENDBRANCH   2  13
ENDBRANCH   1   7
BRANCH   1  15
ATOM     15  C   UNL     1       2.003  -5.371   1.387  0.00  0.00    +0.233 C 
ATOM     16  O   UNL     1       2.775  -4.753   2.089  0.00  0.00    -0.274 OA
ATOM     17  N   UNL     1       2.474  -6.232   0.464  0.00  0.00    -0.306 N 
ATOM     18  H   UNL     1       1.857  -6.727  -0.098  0.00  0.00    +0.149 HD
BRANCH  17  19
ATOM     19  C   UNL     1       3.918  -6.422   0.308  0.00  0.00    +0.112 C 
BRANCH  19  20
ATOM     20  C   UNL     1       4.186  -7.783  -0.280  0.00  0.00    +0.010 A 
ATOM     21  C   UNL     1       5.160  -8.672   0.035  0.00  0.00    +0.013 A 
ATOM     22  C   UNL     1       5.213  -9.876  -0.644  0.00  0.00    +0.008 A 
ATOM     23  C   UNL     1       4.290 -10.131  -1.603  0.00  0.00    +0.045 A 
ATOM     24  S   UNL     1       3.298  -8.647  -1.565  0.00  0.00    -0.100 S 
ENDBRANCH  19  20
BRANCH  19  25
ATOM     25  C   UNL     1       4.476  -5.345  -0.625  0.00  0.00    +0.008 C 
ATOM     26  C   UNL     1       5.985  -5.543  -0.787  0.00  0.00    +0.009 C 
ATOM     27  C   UNL     1       3.798  -5.453  -1.992  0.00  0.00    +0.009 C 
ENDBRANCH  19  25
ENDBRANCH  17  19
ENDBRANCH   1  15
TORSDOF 6
