REMARK  Name = ZINC28705236
REMARK  8 active torsions:
REMARK  status: ('A' for Active; 'I' for Inactive)
REMARK    1  A    between atoms: C_1  and  C_2
REMARK    2  A    between atoms: C_2  and  C_3
REMARK    3  A    between atoms: C_2  and  C_4
REMARK    4  A    between atoms: N_6  and  C_16
REMARK    5  A    between atoms: N_9  and  C_10
REMARK    6  A    between atoms: C_10  and  C_11
REMARK    7  A    between atoms: C_16  and  N_17
REMARK    8  A    between atoms: N_20  and  C_23
REMARK                            x       y       z     vdW  Elec       q    Type
REMARK                         _______ _______ _______ _____ _____    ______ ____
ROOT
ATOM      1  C   UNL     1      -2.520   1.736  -2.115  0.00  0.00    +0.135 A 
ATOM      2  N   UNL     1      -2.647   2.289  -3.278  0.00  0.00    -0.157 NA
ATOM      3  N   UNL     1      -1.850   3.442  -3.303  0.00  0.00    -0.257 N 
ATOM      4  C   UNL     1      -1.254   3.544  -2.096  0.00  0.00    +0.177 A 
ATOM      5  S   UNL     1      -0.180   4.780  -1.597  0.00  0.00    -0.011 S 
ATOM      6  N   UNL     1      -1.657   2.491  -1.357  0.00  0.00    -0.299 N 
ENDROOT
BRANCH   1   8
ATOM      7  C   UNL     1      -4.722   0.663  -1.730  0.00  0.00    +0.015 C 
ATOM      8  C   UNL     1      -3.205   0.472  -1.665  0.00  0.00    +0.051 C 
ATOM      9  C   UNL     1      -2.797  -0.683  -2.581  0.00  0.00    +0.015 C 
ENDBRANCH   1   8
BRANCH   6  10
ATOM     10  C   UNL     1      -1.250   2.203   0.020  0.00  0.00    +0.199 C 
BRANCH  10  11
ATOM     11  C   UNL     1      -0.016   1.339   0.009  0.00  0.00    +0.125 A 
ATOM     12  C   UNL     1       1.254   1.781  -0.000  0.00  0.00    +0.046 A 
ATOM     13  C   UNL     1       2.086   0.638  -0.014  0.00  0.00    +0.041 A 
ATOM     14  C   UNL     1       1.274  -0.435  -0.012  0.00  0.00    +0.195 A 
ATOM     15  O   UNL     1       0.002  -0.004   0.002  0.00  0.00    -0.466 OA
ENDBRANCH  10  11
ENDBRANCH   6  10
BRANCH   3  16
ATOM     16  C   UNL     1      -1.698   4.369  -4.427  0.00  0.00    +0.072 C 
BRANCH  16  17
ATOM     17  N   UNL     1      -2.715   5.425  -4.332  0.00  0.00    +0.395 N 
ATOM     18  C   UNL     1      -4.065   4.875  -4.516  0.00  0.00    -0.057 C 
ATOM     19  C   UNL     1      -5.097   5.989  -4.331  0.00  0.00    +0.086 C 
ATOM     20  N   UNL     1      -4.833   7.064  -5.299  0.00  0.00    -0.333 N 
ATOM     21  C   UNL     1      -3.483   7.614  -5.114  0.00  0.00    +0.086 C 
ATOM     22  C   UNL     1      -2.451   6.499  -5.299  0.00  0.00    -0.057 C 
ATOM     23  H   UNL     1      -2.659   5.856  -3.321  0.00  0.00    -0.079 HD
BRANCH  20  24
ATOM     24  C   UNL     1      -5.800   8.068  -5.208  0.00  0.00    +0.030 A 
ATOM     25  C   UNL     1      -5.418   9.381  -4.966  0.00  0.00    +0.023 A 
ATOM     26  C   UNL     1      -6.376  10.373  -4.881  0.00  0.00    +0.002 A 
ATOM     27  C   UNL     1      -7.714  10.057  -5.027  0.00  0.00    +0.000 A 
ATOM     28  C   UNL     1      -8.098   8.750  -5.264  0.00  0.00    +0.002 A 
ATOM     29  C   UNL     1      -7.145   7.754  -5.354  0.00  0.00    +0.023 A 
ENDBRANCH  20  24
ENDBRANCH  16  17
ENDBRANCH   3  16
TORSDOF 6
