REMARK  Name = ZINC20602392
REMARK  13 active torsions:
REMARK  status: ('A' for Active; 'I' for Inactive)
REMARK    1  A    between atoms: C_1  and  C_2
REMARK    2  A    between atoms: C_2  and  N_3
REMARK    3  A    between atoms: C_7  and  C_8
REMARK    4  A    between atoms: N_10  and  C_14
REMARK    5  A    between atoms: C_12  and  C_13
REMARK    6  A    between atoms: C_16  and  S_17
REMARK    7  A    between atoms: S_17  and  C_18
REMARK    8  A    between atoms: C_18  and  C_19
REMARK    9  A    between atoms: N_21  and  C_22
REMARK   10  A    between atoms: C_23  and  C_32
REMARK   11  A    between atoms: C_32  and  O_34
REMARK   12  A    between atoms: O_34  and  C_35
REMARK   13  A    between atoms: C_35  and  C_36
REMARK                            x       y       z     vdW  Elec       q    Type
REMARK                         _______ _______ _______ _____ _____    ______ ____
ROOT
ATOM      1  C   UNL     1       1.962  -1.783   0.141  0.00  0.00    +0.228 C 
ATOM      2  O   UNL     1       1.046  -2.548   0.360  0.00  0.00    -0.275 OA
ATOM      3  N   UNL     1       3.197  -2.263  -0.104  0.00  0.00    -0.279 N 
ATOM      4  H   UNL     1       4.027  -1.569  -0.302  0.00  0.00    +0.155 HD
ENDROOT
BRANCH   3   5
ATOM      5  C   UNL     1       3.422  -3.631  -0.105  0.00  0.00    +0.086 A 
ATOM      6  C   UNL     1       4.610  -4.310  -0.333  0.00  0.00    +0.091 A 
ATOM      7  C   UNL     1       4.580  -5.765  -0.274  0.00  0.00    -0.021 A 
ATOM      8  C   UNL     1       3.370  -6.300  -0.007  0.00  0.00    -0.004 A 
ATOM      9  S   UNL     1       2.289  -4.908   0.185  0.00  0.00    -0.077 S 
ATOM     10  C   UNL     1       3.012  -7.749   0.104  0.00  0.00    +0.043 C 
ATOM     11  C   UNL     1       4.019  -8.448   1.027  0.00  0.00    +0.005 C 
ATOM     12  C   UNL     1       5.184  -8.951   0.180  0.00  0.00    +0.001 C 
ATOM     13  C   UNL     1       5.432  -8.000  -0.989  0.00  0.00    +0.005 C 
ATOM     14  C   UNL     1       5.826  -6.618  -0.480  0.00  0.00    +0.037 C 
BRANCH   6  15
ATOM     15  C   UNL     1       5.850  -3.588  -0.624  0.00  0.00    +0.342 C 
ATOM     16  O   UNL     1       6.585  -3.251   0.284  0.00  0.00    -0.245 OA
BRANCH  15  17
ATOM     17  O   UNL     1       6.178  -3.298  -1.900  0.00  0.00    -0.461 OA
BRANCH  17  18
ATOM     18  C   UNL     1       7.423  -2.581  -2.114  0.00  0.00    +0.229 C 
ATOM     19  C   UNL     1       7.623  -2.344  -3.612  0.00  0.00    +0.048 C 
ENDBRANCH  17  18
ENDBRANCH  15  17
ENDBRANCH   6  15
ENDBRANCH   3   5
BRANCH   1  20
ATOM     20  C   UNL     1       1.718  -0.296   0.142  0.00  0.00    +0.173 C 
BRANCH  20  21
ATOM     21  S   UNL     1      -0.027   0.029   0.500  0.00  0.00    -0.081 S 
BRANCH  21  28
ATOM     22  N   UNL     1      -1.136   2.572   0.643  0.00  0.00    -0.246 N 
ATOM     23  C   UNL     1      -0.770   3.868   0.527  0.00  0.00    +0.271 C 
ATOM     24  O   UNL     1      -1.483   4.848   0.645  0.00  0.00    -0.268 OA
ATOM     25  C   UNL     1       0.670   3.844   0.224  0.00  0.00    +0.129 C 
ATOM     26  C   UNL     1       1.491   4.928   0.014  0.00  0.00    +0.044 C 
ATOM     27  N   UNL     1       1.025   2.522   0.194  0.00  0.00    -0.221 NA
ATOM     28  C   UNL     1      -0.028   1.790   0.441  0.00  0.00    +0.164 C 
BRANCH  26  29
ATOM     29  C   UNL     1       0.918   6.274  -0.084  0.00  0.00    +0.018 A 
ATOM     30  C   UNL     1      -0.302   6.610  -0.646  0.00  0.00    +0.116 A 
ATOM     31  N   UNL     1      -0.445   7.942  -0.527  0.00  0.00    -0.274 N 
ATOM     32  N   UNL     1       0.693   8.456   0.104  0.00  0.00    -0.176 NA
ATOM     33  C   UNL     1       1.510   7.476   0.373  0.00  0.00    +0.067 A 
ATOM     34  C   UNL     1       2.851   7.601   1.050  0.00  0.00    +0.068 C 
ATOM     35  C   UNL     1      -1.595   8.723  -0.987  0.00  0.00    +0.172 C 
ENDBRANCH  26  29
BRANCH  22  37
ATOM     36  C   UNL     1      -2.665   1.965   2.453  0.00  0.00    +0.025 C 
ATOM     37  C   UNL     1      -2.487   2.086   0.938  0.00  0.00    +0.112 C 
ENDBRANCH  22  37
ENDBRANCH  21  28
ENDBRANCH  20  21
ENDBRANCH   1  20
TORSDOF 9
