REMARK  Name = ZINC15001927
REMARK  8 active torsions:
REMARK  status: ('A' for Active; 'I' for Inactive)
REMARK    1  A    between atoms: C_1  and  C_2
REMARK    2  A    between atoms: C_2  and  O_3
REMARK    3  A    between atoms: O_3  and  C_4
REMARK    4  A    between atoms: C_9  and  N_65
REMARK    5  A    between atoms: C_12  and  N_65
REMARK    6  A    between atoms: N_23  and  C_26
REMARK    7  A    between atoms: C_26  and  C_27
REMARK    8  A    between atoms: C_27  and  C_28
REMARK                            x       y       z     vdW  Elec       q    Type
REMARK                         _______ _______ _______ _____ _____    ______ ____
ROOT
ATOM      1  C   UNL     1      -0.622  -6.797   1.790  0.00  0.00    -0.066 C 
ATOM      2  C   UNL     1      -0.138  -7.504   3.059  0.00  0.00    -0.011 C 
ATOM      3  C   UNL     1       0.830  -8.628   2.691  0.00  0.00    +0.035 C 
ATOM      4  C   UNL     1       0.175  -9.527   1.646  0.00  0.00    -0.023 A 
ATOM      5  C   UNL     1      -0.884  -9.087   0.926  0.00  0.00    -0.006 A 
ATOM      6  S   UNL     1      -1.312 -10.437  -0.144  0.00  0.00    -0.073 S 
ATOM      7  C   UNL     1      -0.076 -11.585   0.374  0.00  0.00    +0.116 A 
ATOM      8  C   UNL     1       0.634 -10.877   1.369  0.00  0.00    +0.076 A 
ATOM      9  C   UNL     1       1.728 -11.559   1.999  0.00  0.00    +0.262 A 
ATOM     10  O   UNL     1       2.404 -11.037   2.869  0.00  0.00    -0.267 OA
ATOM     11  N   UNL     1       1.962 -12.820   1.565  0.00  0.00    -0.298 N 
ATOM     12  C   UNL     1       1.224 -13.419   0.600  0.00  0.00    +0.203 A 
ATOM     13  N   UNL     1       0.214 -12.827  -0.000  0.00  0.00    -0.230 NA
ATOM     14  C   UNL     1      -1.548  -7.747   1.017  0.00  0.00    +0.027 C 
ENDROOT
BRANCH   1  15
ATOM     15  N   UNL     1      -1.364  -5.578   2.164  0.00  0.00    +0.383 N 
ATOM     16  H   UNL     1      -2.340  -5.825   2.370  0.00  0.00    -0.085 HD
ATOM     17  H   UNL     1      -0.933  -5.162   2.998  0.00  0.00    -0.085 HD
BRANCH  15  23
ATOM     18  C   UNL     1      -1.189  -0.632   0.010  0.00  0.00    +0.403 C 
ATOM     19  O   UNL     1      -2.217   0.016   0.023  0.00  0.00    -0.226 OA
ATOM     20  N   UNL     1      -1.241  -1.978   0.003  0.00  0.00    -0.268 N 
ATOM     21  C   UNL     1      -0.007  -2.775  -0.019  0.00  0.00    +0.109 C 
ATOM     22  C   UNL     1      -0.048  -3.772   1.149  0.00  0.00    +0.003 C 
ATOM     23  C   UNL     1      -1.333  -4.600   1.060  0.00  0.00    -0.069 C 
ATOM     24  C   UNL     1      -2.547  -3.675   1.174  0.00  0.00    +0.003 C 
ATOM     25  C   UNL     1      -2.534  -2.677   0.012  0.00  0.00    +0.109 C 
BRANCH  18  26
ATOM     26  O   UNL     1       0.002  -0.004   0.002  0.00  0.00    -0.451 OA
BRANCH  26  28
ATOM     27  C   UNL     1       1.418   1.977  -0.001  0.00  0.00    +0.048 C 
ATOM     28  C   UNL     1      -0.018   1.448   0.010  0.00  0.00    +0.230 C 
ENDBRANCH  26  28
ENDBRANCH  18  26
ENDBRANCH  15  23
ENDBRANCH   1  15
BRANCH  11  29
ATOM     29  C   UNL     1       3.066 -13.573   2.167  0.00  0.00    +0.131 C 
BRANCH  29  30
ATOM     30  C   UNL     1       4.348 -13.322   1.371  0.00  0.00    +0.059 C 
BRANCH  30  31
ATOM     31  C   UNL     1       5.483 -14.096   1.991  0.00  0.00    -0.011 A 
ATOM     32  C   UNL     1       6.325 -13.481   2.898  0.00  0.00    +0.006 A 
ATOM     33  C   UNL     1       7.363 -14.193   3.471  0.00  0.00    +0.000 A 
ATOM     34  C   UNL     1       7.567 -15.516   3.128  0.00  0.00    +0.003 A 
ATOM     35  C   UNL     1       6.730 -16.131   2.216  0.00  0.00    +0.038 A 
ATOM     36  C   UNL     1       5.687 -15.421   1.646  0.00  0.00    +0.127 A 
ATOM     37  F   UNL     1       4.868 -16.021   0.754  0.00  0.00    -0.205 F 
ENDBRANCH  30  31
ENDBRANCH  29  30
ENDBRANCH  11  29
TORSDOF 7
