REMARK  Name = ZINC04132699
REMARK  13 active torsions:
REMARK  status: ('A' for Active; 'I' for Inactive)
REMARK    1  A    between atoms: C_1  and  C_2
REMARK    2  A    between atoms: C_4  and  C_26
REMARK    3  A    between atoms: C_9  and  C_14
REMARK    4  A    between atoms: C_14  and  N_15
REMARK    5  A    between atoms: N_15  and  C_16
REMARK    6  A    between atoms: N_15  and  C_19
REMARK    7  A    between atoms: C_16  and  C_17
REMARK    8  A    between atoms: C_17  and  O_18
REMARK    9  A    between atoms: C_19  and  N_21
REMARK   10  A    between atoms: N_21  and  C_22
REMARK   11  A    between atoms: C_22  and  C_23
REMARK   12  A    between atoms: C_23  and  C_24
REMARK   13  A    between atoms: C_23  and  C_25
REMARK                            x       y       z     vdW  Elec       q    Type
REMARK                         _______ _______ _______ _____ _____    ______ ____
ROOT
ATOM      1  C   UNL     1       2.491   1.029  -0.016  0.00  0.00    +0.044 C 
ATOM      2  C   UNL     1       1.185   1.779   0.000  0.00  0.00    -0.050 A 
ATOM      3  C   UNL     1      -0.013   1.076   0.008  0.00  0.00    +0.008 A 
ATOM      4  C   UNL     1      -1.219   1.741   0.017  0.00  0.00    -0.026 A 
ATOM      5  C   UNL     1      -1.240   3.132   0.031  0.00  0.00    +0.052 A 
ATOM      6  C   UNL     1      -0.025   3.842   0.023  0.00  0.00    -0.001 A 
ATOM      7  C   UNL     1       1.188   3.145   0.008  0.00  0.00    +0.013 A 
ATOM      8  C   UNL     1      -0.057   5.306   0.032  0.00  0.00    +0.020 A 
ATOM      9  C   UNL     1      -1.263   5.926   0.047  0.00  0.00    +0.035 A 
ATOM     10  C   UNL     1      -2.453   5.168   0.054  0.00  0.00    +0.254 A 
ATOM     11  O   UNL     1      -3.526   5.746   0.067  0.00  0.00    -0.268 OA
ATOM     12  N   UNL     1      -2.433   3.824   0.046  0.00  0.00    -0.322 N 
ATOM     13  H   UNL     1      -3.296   3.318   0.051  0.00  0.00    +0.169 HD
ATOM     14  C   UNL     1      -2.511   0.965   0.019  0.00  0.00    +0.046 C 
ENDROOT
BRANCH   9  15
ATOM     15  C   UNL     1      -1.332   7.432   0.056  0.00  0.00    +0.147 C 
BRANCH  15  16
ATOM     16  N   UNL     1      -1.488   7.922  -1.316  0.00  0.00    -0.306 N 
BRANCH  16  17
ATOM     17  C   UNL     1      -0.399   8.201  -2.059  0.00  0.00    +0.133 C 
ATOM     18  S   UNL     1       1.166   7.983  -1.401  0.00  0.00    -0.019 S 
BRANCH  17  19
ATOM     19  N   UNL     1      -0.542   8.652  -3.321  0.00  0.00    -0.326 N 
ATOM     20  H   UNL     1      -1.429   8.776  -3.694  0.00  0.00    +0.148 HD
BRANCH  19  21
ATOM     21  C   UNL     1       0.641   8.956  -4.130  0.00  0.00    +0.106 C 
BRANCH  21  22
ATOM     22  C   UNL     1       0.203   9.446  -5.511  0.00  0.00    -0.000 C 
ATOM     23  C   UNL     1       1.432   9.881  -6.312  0.00  0.00    +0.009 C 
ATOM     24  C   UNL     1      -0.513   8.314  -6.251  0.00  0.00    +0.009 C 
ENDBRANCH  21  22
ENDBRANCH  19  21
ENDBRANCH  17  19
ENDBRANCH  16  17
BRANCH  16  25
ATOM     25  C   UNL     1      -2.827   8.108  -1.879  0.00  0.00    +0.135 C 
BRANCH  25  26
ATOM     26  C   UNL     1      -3.309   9.531  -1.588  0.00  0.00    +0.174 C 
BRANCH  26  27
ATOM     27  O   UNL     1      -2.476  10.466  -2.276  0.00  0.00    -0.393 OA
ATOM     28  H   UNL     1      -2.724  11.390  -2.137  0.00  0.00    +0.209 HD
ENDBRANCH  26  27
ENDBRANCH  25  26
ENDBRANCH  16  25
ENDBRANCH  15  16
ENDBRANCH   9  15
TORSDOF 9
