REMARK  Name = ZINC39948528
REMARK  15 active torsions:
REMARK  status: ('A' for Active; 'I' for Inactive)
REMARK    1  A    between atoms: C_1  and  C_2
REMARK    2  A    between atoms: C_2  and  C_3
REMARK    3  A    between atoms: C_2  and  C_4
REMARK    4  A    between atoms: C_4  and  C_5
REMARK    5  A    between atoms: C_5  and  N_6
REMARK    6  A    between atoms: N_6  and  C_7
REMARK    7  A    between atoms: C_7  and  C_8
REMARK    8  A    between atoms: C_8  and  C_9
REMARK    9  A    between atoms: C_9  and  C_10
REMARK   10  A    between atoms: C_9  and  C_11
REMARK   11  A    between atoms: C_12  and  C_14
REMARK   12  A    between atoms: C_14  and  S_15
REMARK   13  A    between atoms: S_15  and  C_16
REMARK   14  A    between atoms: C_20  and  C_29
REMARK   15  A    between atoms: N_21  and  C_22
REMARK                            x       y       z     vdW  Elec       q    Type
REMARK                         _______ _______ _______ _____ _____    ______ ____
ROOT
ATOM      1  C   UNL     1       5.329  -3.946  -4.794  0.00  0.00    +0.241 C 
ATOM      2  N   UNL     1       6.357  -2.966  -5.180  0.00  0.00    -0.237 N 
ATOM      3  N   UNL     1       6.383  -2.948  -6.580  0.00  0.00    -0.169 NA
ATOM      4  C   UNL     1       5.511  -3.782  -7.081  0.00  0.00    +0.151 C 
ATOM      5  N   UNL     1       4.806  -4.452  -6.074  0.00  0.00    -0.254 N 
ATOM      6  H   UNL     1       6.908  -2.437  -4.583  0.00  0.00    +0.171 HD
ENDROOT
BRANCH   4   7
ATOM      7  C   UNL     1       5.308  -3.983  -8.456  0.00  0.00    +0.022 C 
ATOM      8  C   UNL     1       6.041  -3.430  -9.506  0.00  0.00    +0.006 A 
ATOM      9  C   UNL     1       7.146  -2.553  -9.540  0.00  0.00    +0.010 A 
ATOM     10  C   UNL     1       7.668  -2.173 -10.734  0.00  0.00    +0.001 A 
ATOM     11  C   UNL     1       7.137  -2.629 -11.943  0.00  0.00    +0.002 A 
ATOM     12  C   UNL     1       6.077  -3.473 -11.985  0.00  0.00    +0.026 A 
ATOM     13  C   UNL     1       5.478  -3.914 -10.777  0.00  0.00    +0.043 A 
ATOM     14  N   UNL     1       4.458  -4.719 -10.553  0.00  0.00    -0.380 N 
ATOM     15  C   UNL     1       4.252  -4.848  -9.107  0.00  0.00    +0.152 C 
ATOM     16  H   UNL     1       3.929  -5.160 -11.236  0.00  0.00    +0.160 HD
ENDBRANCH   4   7
BRANCH   5  17
ATOM     17  C   UNL     1       3.805  -5.411  -6.246  0.00  0.00    +0.038 A 
ATOM     18  C   UNL     1       4.131  -6.761  -6.274  0.00  0.00    +0.025 A 
ATOM     19  C   UNL     1       3.139  -7.707  -6.445  0.00  0.00    +0.022 A 
ATOM     20  C   UNL     1       1.821  -7.310  -6.589  0.00  0.00    +0.041 A 
ATOM     21  C   UNL     1       1.493  -5.966  -6.562  0.00  0.00    +0.022 A 
ATOM     22  C   UNL     1       2.480  -5.016  -6.385  0.00  0.00    +0.025 A 
ATOM     23 CL   UNL     1       0.577  -8.502  -6.804  0.00  0.00    -0.084 Cl
ENDBRANCH   5  17
BRANCH   1  24
ATOM     24  S   UNL     1       4.010  -3.139  -3.845  0.00  0.00    -0.108 S 
BRANCH  24  25
ATOM     25  C   UNL     1       3.417  -1.825  -4.946  0.00  0.00    +0.168 C 
BRANCH  25  27
ATOM     26  N   UNL     1       1.706  -0.039  -4.904  0.00  0.00    -0.301 N 
ATOM     27  C   UNL     1       2.304  -1.067  -4.270  0.00  0.00    +0.226 C 
ATOM     28  O   UNL     1       1.945  -1.382  -3.155  0.00  0.00    -0.275 OA
BRANCH  26  29
ATOM     29  C   UNL     1       0.624   0.698  -4.247  0.00  0.00    +0.108 C 
BRANCH  29  30
ATOM     30  C   UNL     1      -0.717   0.044  -4.585  0.00  0.00    +0.022 C 
BRANCH  30  32
ATOM     31  C   UNL     1      -1.928   2.227  -4.480  0.00  0.00    +0.007 C 
ATOM     32  C   UNL     1      -1.847   0.814  -3.899  0.00  0.00    -0.016 C 
ATOM     33  C   UNL     1      -3.174   0.089  -4.135  0.00  0.00    +0.007 C 
ENDBRANCH  30  32
ENDBRANCH  29  30
ENDBRANCH  26  29
BRANCH  26  34
ATOM     34  C   UNL     1       2.139   0.342  -6.251  0.00  0.00    +0.108 C 
BRANCH  34  35
ATOM     35  C   UNL     1       3.255   1.385  -6.152  0.00  0.00    +0.022 C 
BRANCH  35  36
ATOM     36  C   UNL     1       3.707   1.782  -7.559  0.00  0.00    -0.016 C 
ATOM     37  C   UNL     1       2.558   2.486  -8.284  0.00  0.00    +0.007 C 
ATOM     38  C   UNL     1       4.904   2.730  -7.461  0.00  0.00    +0.007 C 
ENDBRANCH  35  36
ENDBRANCH  34  35
ENDBRANCH  26  34
ENDBRANCH  25  27
ENDBRANCH  24  25
ENDBRANCH   1  24
TORSDOF 11
