REMARK  Name = ZINC19973148
REMARK  11 active torsions:
REMARK  status: ('A' for Active; 'I' for Inactive)
REMARK    1  A    between atoms: C_1  and  C_2
REMARK    2  A    between atoms: C_7  and  N_8
REMARK    3  A    between atoms: N_11  and  C_14
REMARK    4  A    between atoms: C_14  and  C_16
REMARK    5  A    between atoms: C_14  and  C_30
REMARK    6  A    between atoms: C_20  and  C_29
REMARK    7  A    between atoms: C_22  and  C_28
REMARK    8  A    between atoms: N_34  and  C_35
REMARK    9  A    between atoms: C_35  and  C_36
REMARK   10  A    between atoms: C_36  and  O_37
REMARK   11  A    between atoms: O_37  and  C_38
REMARK                            x       y       z     vdW  Elec       q    Type
REMARK                         _______ _______ _______ _____ _____    ______ ____
ROOT
ATOM      1  C   UNL     1      -2.490   0.996   0.019  0.00  0.00    +0.162 C 
ENDROOT
BRANCH   1   2
ATOM      2  C   UNL     1      -1.187   1.753   0.017  0.00  0.00    +0.042 A 
ATOM      3  C   UNL     1      -0.013   1.076   0.008  0.00  0.00    +0.021 A 
ATOM      4  C   UNL     1       1.236   1.841   0.000  0.00  0.00    -0.001 A 
ATOM      5  C   UNL     1       2.478   1.199  -0.015  0.00  0.00    +0.013 A 
ATOM      6  C   UNL     1       3.624   1.942  -0.022  0.00  0.00    -0.050 A 
ATOM      7  C   UNL     1       3.567   3.329  -0.014  0.00  0.00    +0.008 A 
ATOM      8  C   UNL     1       2.354   3.983   0.001  0.00  0.00    -0.026 A 
ATOM      9  C   UNL     1       1.174   3.247   0.008  0.00  0.00    +0.052 A 
ATOM     10  N   UNL     1      -0.053   3.875   0.024  0.00  0.00    -0.322 N 
ATOM     11  H   UNL     1      -0.109   4.974   0.030  0.00  0.00    +0.169 HD
ATOM     12  C   UNL     1      -1.194   3.164   0.031  0.00  0.00    +0.254 A 
ATOM     13  O   UNL     1      -2.261   3.753   0.045  0.00  0.00    -0.268 OA
ATOM     14  C   UNL     1       2.307   5.489   0.009  0.00  0.00    +0.046 C 
ATOM     15  C   UNL     1       4.963   1.249  -0.039  0.00  0.00    +0.044 C 
ENDBRANCH   1   2
BRANCH   1  19
ATOM     16  N   UNL     1      -4.712   1.079   3.611  0.00  0.00    -0.327 N 
ATOM     17  C   UNL     1      -5.441   1.248   2.346  0.00  0.00    +0.120 C 
ATOM     18  C   UNL     1      -4.589   0.711   1.194  0.00  0.00    +0.104 C 
ATOM     19  N   UNL     1      -3.308   1.430   1.160  0.00  0.00    -0.286 NA
ATOM     20  C   UNL     1      -2.578   1.262   2.425  0.00  0.00    +0.104 C 
ATOM     21  C   UNL     1      -3.431   1.798   3.577  0.00  0.00    +0.120 C 
BRANCH  16  28
ATOM     22  C   UNL     1      -5.324  -0.832   5.628  0.00  0.00    +0.045 C 
ATOM     23  C   UNL     1      -5.812   0.592   5.704  0.00  0.00    -0.029 A 
ATOM     24  C   UNL     1      -6.580   1.004   6.775  0.00  0.00    +0.006 A 
ATOM     25  C   UNL     1      -7.028   2.310   6.846  0.00  0.00    +0.020 A 
ATOM     26  C   UNL     1      -6.708   3.210   5.844  0.00  0.00    +0.043 A 
ATOM     27  C   UNL     1      -5.936   2.805   4.772  0.00  0.00    +0.043 A 
ATOM     28  C   UNL     1      -5.489   1.492   4.696  0.00  0.00    +0.034 A 
ATOM     29 CL   UNL     1      -7.272   4.849   5.938  0.00  0.00    -0.083 Cl
ENDBRANCH  16  28
ENDBRANCH   1  19
BRANCH   1  30
ATOM     30  C   UNL     1      -3.232   1.269  -1.264  0.00  0.00    +0.173 A 
ATOM     31  N   UNL     1      -3.881   2.365  -1.574  0.00  0.00    -0.111 NA
ATOM     32  N   UNL     1      -4.377   2.214  -2.754  0.00  0.00    -0.023 NA
ATOM     33  N   UNL     1      -4.068   1.046  -3.200  0.00  0.00    -0.044 NA
ATOM     34  N   UNL     1      -3.363   0.434  -2.311  0.00  0.00    -0.225 N 
BRANCH  34  35
ATOM     35  C   UNL     1      -2.808  -0.918  -2.420  0.00  0.00    +0.175 C 
BRANCH  35  36
ATOM     36  C   UNL     1      -3.820  -1.929  -1.876  0.00  0.00    +0.183 C 
BRANCH  36  37
ATOM     37  O   UNL     1      -3.279  -3.248  -1.982  0.00  0.00    -0.381 OA
ATOM     38  C   UNL     1      -4.149  -4.273  -1.499  0.00  0.00    +0.194 C 
ENDBRANCH  36  37
ENDBRANCH  35  36
ENDBRANCH  34  35
ENDBRANCH   1  30
TORSDOF 7
