REMARK  Name = ZINC63270967
REMARK  7 active torsions:
REMARK  status: ('A' for Active; 'I' for Inactive)
REMARK    1  A    between atoms: C_7  and  C_10
REMARK    2  A    between atoms: C_10  and  C_11
REMARK    3  A    between atoms: C_11  and  N_12
REMARK    4  A    between atoms: C_13  and  C_15
REMARK    5  A    between atoms: C_15  and  C_16
REMARK    6  A    between atoms: C_16  and  C_17
REMARK    7  A    between atoms: C_17  and  N_18
REMARK                            x       y       z     vdW  Elec       q    Type
REMARK                         _______ _______ _______ _____ _____    ______ ____
ROOT
ATOM      1  C   UNL     1      -2.942  -8.219  -4.058  0.00  0.00    +0.106 C 
ENDROOT
BRANCH   1   2
ATOM      2  N   UNL     1      -3.165  -8.668  -5.434  0.00  0.00    -0.299 N 
ATOM      3  C   UNL     1      -3.978  -9.715  -5.679  0.00  0.00    +0.302 C 
ATOM      4  O   UNL     1      -4.454 -10.344  -4.753  0.00  0.00    -0.253 OA
ATOM      5  N   UNL     1      -4.264 -10.064  -6.949  0.00  0.00    -0.284 N 
ATOM      6  C   UNL     1      -5.239 -11.128  -7.205  0.00  0.00    +0.110 C 
ATOM      7  C   UNL     1      -6.247 -10.716  -8.296  0.00  0.00    +0.025 C 
ATOM      8  C   UNL     1      -5.442 -10.207  -9.468  0.00  0.00    +0.029 C 
ATOM      9  C   UNL     1      -4.700  -8.931  -8.994  0.00  0.00    +0.127 C 
ATOM     10  C   UNL     1      -3.594  -9.363  -8.071  0.00  0.00    +0.136 C 
ATOM     11  N   UNL     1      -4.439  -8.182 -10.197  0.00  0.00    -0.282 NA
ATOM     12  C   UNL     1      -5.367  -8.405 -11.061  0.00  0.00    +0.043 C 
ATOM     13  C   UNL     1      -6.116  -9.687 -10.697  0.00  0.00    +0.066 C 
ATOM     14  C   UNL     1      -7.561  -9.313 -10.628  0.00  0.00    +0.003 C 
ATOM     15  C   UNL     1      -7.995  -8.384 -11.498  0.00  0.00    +0.038 C 
ATOM     16  C   UNL     1      -7.097  -7.732 -12.453  0.00  0.00    +0.021 C 
ATOM     17  C   UNL     1      -5.760  -7.747 -12.259  0.00  0.00    +0.025 C 
ATOM     18 CL   UNL     1      -9.674  -7.943 -11.489  0.00  0.00    -0.084 Cl
ATOM     19  H   UNL     1      -2.727  -8.213  -6.170  0.00  0.00    +0.150 HD
ENDBRANCH   1   2
BRANCH   1  20
ATOM     20  C   UNL     1      -1.986  -7.025  -4.060  0.00  0.00    +0.028 C 
BRANCH  20  21
ATOM     21  C   UNL     1      -1.754  -6.555  -2.622  0.00  0.00    +0.097 C 
BRANCH  21  23
ATOM     22  N   UNL     1      -0.461  -4.795  -1.461  0.00  0.00    -0.315 N 
ATOM     23  C   UNL     1      -0.812  -5.379  -2.624  0.00  0.00    +0.213 C 
ATOM     24  O   UNL     1      -0.370  -4.957  -3.671  0.00  0.00    -0.276 OA
ATOM     25  H   UNL     1      -0.815  -5.132  -0.623  0.00  0.00    +0.149 HD
BRANCH  22  26
ATOM     26  C   UNL     1       0.454  -3.651  -1.462  0.00  0.00    +0.108 C 
BRANCH  26  27
ATOM     27  C   UNL     1       0.686  -3.182  -0.025  0.00  0.00    +0.052 C 
BRANCH  27  34
ATOM     28  C   UNL     1      -0.018   1.352   0.003  0.00  0.00    +0.001 A 
ATOM     29  C   UNL     1       1.165   2.105  -0.004  0.00  0.00    +0.002 A 
ATOM     30  C   UNL     1       2.390   1.538  -0.016  0.00  0.00    +0.026 A 
ATOM     31  C   UNL     1       2.527   0.122  -0.024  0.00  0.00    +0.043 A 
ATOM     32  N   UNL     1       3.584  -0.653  -0.036  0.00  0.00    -0.380 N 
ATOM     33  C   UNL     1       3.140  -2.051  -0.039  0.00  0.00    +0.144 C 
ATOM     34  C   UNL     1       1.628  -2.006  -0.026  0.00  0.00    -0.040 C 
ATOM     35  C   UNL     1       1.292  -0.695  -0.017  0.00  0.00    -0.001 A 
ATOM     36  C   UNL     1      -0.000  -0.000  -0.003  0.00  0.00    +0.010 A 
ATOM     37  H   UNL     1       4.506  -0.352  -0.043  0.00  0.00    +0.160 HD
ENDBRANCH  27  34
ENDBRANCH  26  27
ENDBRANCH  22  26
ENDBRANCH  21  23
ENDBRANCH  20  21
ENDBRANCH   1  20
TORSDOF 7
