REMARK  Name = ZINC24887946
REMARK  9 active torsions:
REMARK  status: ('A' for Active; 'I' for Inactive)
REMARK    1  A    between atoms: C_1  and  C_2
REMARK    2  A    between atoms: N_7  and  C_9
REMARK    3  A    between atoms: C_9  and  C_10
REMARK    4  A    between atoms: C_16  and  C_18
REMARK    5  A    between atoms: C_18  and  C_20
REMARK    6  A    between atoms: C_18  and  N_23
REMARK    7  A    between atoms: C_20  and  C_21
REMARK    8  A    between atoms: C_20  and  C_22
REMARK    9  A    between atoms: C_24  and  C_26
REMARK                            x       y       z     vdW  Elec       q    Type
REMARK                         _______ _______ _______ _____ _____    ______ ____
ROOT
ATOM      1  C   UNL     1       2.011  -0.438  -0.180  0.00  0.00    +0.034 A 
ATOM      2  C   UNL     1       1.309  -0.833   0.910  0.00  0.00    +0.070 A 
ATOM      3  S   UNL     1       0.608  -2.365   0.315  0.00  0.00    -0.060 S 
ATOM      4  C   UNL     1       1.307  -2.332  -1.274  0.00  0.00    +0.165 A 
ATOM      5  N   UNL     1       1.993  -1.206  -1.252  0.00  0.00    -0.231 NA
ATOM      6  N   UNL     1       1.176  -3.255  -2.305  0.00  0.00    -0.263 N 
ATOM      7  C   UNL     1       0.420  -4.357  -2.132  0.00  0.00    +0.239 C 
ATOM      8  O   UNL     1      -0.068  -4.592  -1.047  0.00  0.00    -0.273 OA
ATOM      9  H   UNL     1       1.689  -3.085  -3.264  0.00  0.00    +0.157 HD
ENDROOT
BRANCH   1  10
ATOM     10  C   UNL     1       2.800   0.846  -0.165  0.00  0.00    -0.022 C 
BRANCH  10  16
ATOM     11  C   UNL     1       5.825  -0.953   3.270  0.00  0.00    +0.005 C 
ATOM     12  C   UNL     1       5.741  -0.248   1.915  0.00  0.00    -0.031 C 
ATOM     13  C   UNL     1       6.477  -1.079   0.860  0.00  0.00    -0.001 C 
ATOM     14  C   UNL     1       6.338  -0.397  -0.504  0.00  0.00    -0.018 C 
ATOM     15  C   UNL     1       4.854  -0.242  -0.842  0.00  0.00    -0.078 C 
ATOM     16  N   UNL     1       4.194   0.561   0.196  0.00  0.00    +0.384 N 
ATOM     17  C   UNL     1       4.274  -0.098   1.506  0.00  0.00    -0.075 C 
ATOM     18  H   UNL     1       4.730   1.519   0.270  0.00  0.00    -0.081 HD
ENDBRANCH  10  16
ENDBRANCH   1  10
BRANCH   7  19
ATOM     19  C   UNL     1       0.182  -5.297  -3.285  0.00  0.00    +0.162 C 
BRANCH  19  20
ATOM     20  N   UNL     1      -0.145  -6.629  -2.770  0.00  0.00    -0.297 N 
ATOM     21  C   UNL     1       0.089  -7.720  -3.526  0.00  0.00    +0.280 C 
ATOM     22  O   UNL     1       0.573  -7.599  -4.636  0.00  0.00    -0.267 OA
ATOM     23  H   UNL     1      -0.583  -6.738  -1.767  0.00  0.00    +0.150 HD
BRANCH  21  24
ATOM     24  C   UNL     1      -0.239  -9.053  -3.010  0.00  0.00    +0.189 A 
ATOM     25  C   UNL     1      -0.054 -10.235  -3.668  0.00  0.00    +0.054 A 
ATOM     26  C   UNL     1      -0.503 -11.250  -2.808  0.00  0.00    +0.042 A 
ATOM     27  C   UNL     1      -0.936 -10.650  -1.677  0.00  0.00    +0.196 A 
ATOM     28  O   UNL     1      -0.771  -9.326  -1.801  0.00  0.00    -0.458 OA
ENDBRANCH  21  24
ENDBRANCH  19  20
BRANCH  19  29
ATOM     29  C   UNL     1      -0.980  -4.778  -4.134  0.00  0.00    +0.012 C 
ATOM     30  C   UNL     1      -1.135  -5.657  -5.377  0.00  0.00    +0.009 C 
ATOM     31  C   UNL     1      -2.271  -4.823  -3.314  0.00  0.00    +0.009 C 
ENDBRANCH  19  29
ENDBRANCH   7  19
TORSDOF 6
