REMARK  Name = ZINC50986605
REMARK  5 active torsions:
REMARK  status: ('A' for Active; 'I' for Inactive)
REMARK    1  A    between atoms: C_1  and  C_2
REMARK    2  A    between atoms: C_2  and  C_3
REMARK    3  A    between atoms: C_3  and  N_4
REMARK    4  A    between atoms: C_5  and  C_20
REMARK    5  A    between atoms: C_7  and  C_10
REMARK                            x       y       z     vdW  Elec       q    Type
REMARK                         _______ _______ _______ _____ _____    ______ ____
ROOT
ATOM      1  N   UNL     1       0.738  -1.962  -1.265  0.00  0.00    -0.279 N 
ATOM      2  C   UNL     1      -0.226  -2.755  -1.820  0.00  0.00    +0.073 C 
ATOM      3  N   UNL     1       0.016  -4.013  -1.700  0.00  0.00    -0.363 N 
ATOM      4  C   UNL     1       1.290  -4.168  -0.982  0.00  0.00    +0.172 C 
ATOM      5  C   UNL     1       1.735  -2.742  -0.718  0.00  0.00    +0.101 C 
ATOM      6  N   UNL     1       2.807  -2.346  -0.115  0.00  0.00    -0.388 N 
ATOM      7  C   UNL     1      -1.453  -2.210  -2.506  0.00  0.00    +0.081 C 
ATOM      8  H   UNL     1       2.980  -1.398  -0.005  0.00  0.00    +0.157 HD
ATOM      9  H   UNL     1       3.439  -2.997   0.229  0.00  0.00    +0.157 HD
ATOM     10  H   UNL     1      -0.545  -4.734  -2.026  0.00  0.00    +0.162 HD
ENDROOT
BRANCH   4  11
ATOM     11  C   UNL     1       1.081  -4.909   0.314  0.00  0.00    -0.013 A 
ATOM     12  C   UNL     1       2.023  -5.825   0.744  0.00  0.00    +0.055 A 
ATOM     13  C   UNL     1       1.833  -6.508   1.935  0.00  0.00    +0.168 A 
ATOM     14  C   UNL     1       0.692  -6.269   2.696  0.00  0.00    +0.184 A 
ATOM     15  C   UNL     1      -0.249  -5.351   2.258  0.00  0.00    +0.087 A 
ATOM     16  C   UNL     1      -0.050  -4.668   1.071  0.00  0.00    +0.030 A 
ATOM     17 CL   UNL     1      -1.674  -5.050   3.203  0.00  0.00    -0.080 Cl
ATOM     18  O   UNL     1       0.738  -7.057   3.810  0.00  0.00    -0.451 OA
ATOM     19  C   UNL     1       1.715  -8.074   3.522  0.00  0.00    +0.466 C 
ATOM     20  O   UNL     1       2.595  -7.444   2.572  0.00  0.00    -0.453 OA
ENDBRANCH   4  11
BRANCH   1  21
ATOM     21  C   UNL     1       0.718  -0.497  -1.257  0.00  0.00    +0.113 C 
BRANCH  21  23
ATOM     22  C   UNL     1      -0.019   1.526   0.010  0.00  0.00    +0.005 C 
ATOM     23  C   UNL     1       0.002  -0.004   0.002  0.00  0.00    +0.016 C 
ENDBRANCH  21  23
ENDBRANCH   1  21
TORSDOF 3
