REMARK  Name = ZINC10412019
REMARK  8 active torsions:
REMARK  status: ('A' for Active; 'I' for Inactive)
REMARK    1  A    between atoms: C_1  and  C_2
REMARK    2  A    between atoms: C_4  and  N_7
REMARK    3  A    between atoms: C_8  and  C_10
REMARK    4  A    between atoms: C_10  and  S_11
REMARK    5  A    between atoms: S_11  and  C_12
REMARK    6  A    between atoms: C_15  and  C_24
REMARK    7  A    between atoms: N_16  and  C_17
REMARK    8  A    between atoms: C_17  and  C_18
REMARK                            x       y       z     vdW  Elec       q    Type
REMARK                         _______ _______ _______ _____ _____    ______ ____
ROOT
ATOM      1  C   UNL     1      -3.425   1.634   2.351  0.00  0.00    +0.193 A 
ATOM      2  N   UNL     1      -4.024   0.847   3.217  0.00  0.00    -0.122 NA
ATOM      3  N   UNL     1      -3.586  -0.355   3.097  0.00  0.00    -0.128 NA
ATOM      4  C   UNL     1      -2.685  -0.410   2.144  0.00  0.00    +0.165 A 
ATOM      5  N   UNL     1      -2.550   0.863   1.641  0.00  0.00    -0.298 N 
ENDROOT
BRANCH   4   6
ATOM      6  C   UNL     1      -1.951  -1.614   1.698  0.00  0.00    +0.019 A 
ATOM      7  C   UNL     1      -1.612  -1.769   0.352  0.00  0.00    +0.013 A 
ATOM      8  C   UNL     1      -0.923  -2.892  -0.057  0.00  0.00    +0.021 A 
ATOM      9  C   UNL     1      -0.577  -3.868   0.861  0.00  0.00    +0.041 A 
ATOM     10  C   UNL     1      -0.915  -3.723   2.196  0.00  0.00    +0.021 A 
ATOM     11  C   UNL     1      -1.600  -2.602   2.619  0.00  0.00    +0.013 A 
ATOM     12 CL   UNL     1       0.284  -5.282   0.337  0.00  0.00    -0.084 Cl
ENDBRANCH   4   6
BRANCH   1  13
ATOM     13  S   UNL     1      -3.701   3.362   2.144  0.00  0.00    -0.077 S 
BRANCH  13  14
ATOM     14  C   UNL     1      -4.963   3.633   3.413  0.00  0.00    +0.173 C 
BRANCH  14  16
ATOM     15  N   UNL     1      -6.298   5.523   4.289  0.00  0.00    -0.254 N 
ATOM     16  C   UNL     1      -5.364   5.086   3.420  0.00  0.00    +0.230 C 
ATOM     17  O   UNL     1      -4.848   5.862   2.644  0.00  0.00    -0.274 OA
ATOM     18  H   UNL     1      -6.711   4.902   4.910  0.00  0.00    +0.158 HD
BRANCH  15  22
ATOM     19  C   UNL     1      -8.418   9.917   5.279  0.00  0.00    +0.069 C 
ATOM     20  C   UNL     1      -7.580   8.802   4.708  0.00  0.00    +0.082 A 
ATOM     21  C   UNL     1      -7.590   7.451   5.110  0.00  0.00    +0.092 A 
ATOM     22  C   UNL     1      -6.667   6.860   4.296  0.00  0.00    +0.224 A 
ATOM     23  O   UNL     1      -6.184   7.833   3.507  0.00  0.00    -0.339 OA
ATOM     24  N   UNL     1      -6.705   8.897   3.748  0.00  0.00    -0.081 NA
ENDBRANCH  15  22
ENDBRANCH  14  16
ENDBRANCH  13  14
ENDBRANCH   1  13
BRANCH   5  25
ATOM     25  C   UNL     1      -1.658   1.299   0.563  0.00  0.00    +0.161 C 
BRANCH  25  26
ATOM     26  C   UNL     1      -0.295   1.599   1.130  0.00  0.00    -0.028 A 
ATOM     27  C   UNL     1       0.659   0.601   1.202  0.00  0.00    +0.005 A 
ATOM     28  C   UNL     1       1.912   0.878   1.716  0.00  0.00    +0.000 A 
ATOM     29  C   UNL     1       2.209   2.151   2.164  0.00  0.00    +0.000 A 
ATOM     30  C   UNL     1       1.254   3.148   2.097  0.00  0.00    +0.000 A 
ATOM     31  C   UNL     1       0.001   2.872   1.583  0.00  0.00    +0.005 A 
ENDBRANCH  25  26
ENDBRANCH   5  25
TORSDOF 7
