REMARK  Name = ZINC22060636
REMARK  13 active torsions:
REMARK  status: ('A' for Active; 'I' for Inactive)
REMARK    1  A    between atoms: C_1  and  N_2
REMARK    2  A    between atoms: N_2  and  C_3
REMARK    3  A    between atoms: C_3  and  C_4
REMARK    4  A    between atoms: C_4  and  C_5
REMARK    5  A    between atoms: C_5  and  C_7
REMARK    6  A    between atoms: C_5  and  O_12
REMARK    7  A    between atoms: O_12  and  C_13
REMARK    8  A    between atoms: C_16  and  O_23
REMARK    9  A    between atoms: O_23  and  C_24
REMARK   10  A    between atoms: C_26  and  O_40
REMARK   11  A    between atoms: C_28  and  O_39
REMARK   12  A    between atoms: C_30  and  O_38
REMARK   13  A    between atoms: C_32  and  C_35
REMARK                            x       y       z     vdW  Elec       q    Type
REMARK                         _______ _______ _______ _____ _____    ______ ____
ROOT
ATOM      1  C   UNL     1       3.780   0.225  -3.074  0.00  0.00    +0.129 A 
ATOM      2  C   UNL     1       2.564  -0.350  -2.835  0.00  0.00    +0.050 A 
ATOM      3  C   UNL     1       1.756   0.091  -1.791  0.00  0.00    +0.050 A 
ATOM      4  C   UNL     1       2.155   1.112  -0.975  0.00  0.00    +0.132 A 
ATOM      5  C   UNL     1       3.401   1.734  -1.195  0.00  0.00    +0.027 A 
ATOM      6  C   UNL     1       4.226   1.281  -2.254  0.00  0.00    +0.027 A 
ATOM      7  C   UNL     1       5.470   1.896  -2.469  0.00  0.00    +0.012 A 
ATOM      8  C   UNL     1       5.868   2.913  -1.656  0.00  0.00    +0.001 A 
ATOM      9  C   UNL     1       5.059   3.355  -0.611  0.00  0.00    +0.001 A 
ATOM     10  C   UNL     1       3.847   2.782  -0.373  0.00  0.00    +0.012 A 
ENDROOT
BRANCH   1  11
ATOM     11  O   UNL     1       4.556  -0.218  -4.098  0.00  0.00    -0.483 OA
BRANCH  11  12
ATOM     12  C   UNL     1       3.989  -1.207  -4.960  0.00  0.00    +0.208 C 
BRANCH  12  13
ATOM     13  C   UNL     1       4.187  -2.573  -4.356  0.00  0.00    +0.030 A 
ATOM     14  C   UNL     1       3.366  -3.651  -4.395  0.00  0.00    +0.015 A 
ATOM     15  C   UNL     1       3.759  -4.817  -3.765  0.00  0.00    +0.008 A 
ATOM     16  C   UNL     1       4.950  -4.845  -3.119  0.00  0.00    +0.045 A 
ATOM     17  S   UNL     1       5.561  -3.190  -3.397  0.00  0.00    -0.098 S 
ENDBRANCH  12  13
BRANCH  12  18
ATOM     18  C   UNL     1       4.677  -1.148  -6.325  0.00  0.00    +0.031 C 
BRANCH  18  19
ATOM     19  C   UNL     1       4.372   0.194  -6.993  0.00  0.00    -0.079 C 
BRANCH  19  21
ATOM     20  C   UNL     1       4.761   1.528  -8.976  0.00  0.00    -0.101 C 
ATOM     21  N   UNL     1       5.033   0.250  -8.304  0.00  0.00    +0.377 N 
ATOM     22  H   UNL     1       4.657  -0.577  -8.924  0.00  0.00    -0.086 HD
ATOM     23  H   UNL     1       6.117   0.136  -8.158  0.00  0.00    -0.086 HD
ENDBRANCH  19  21
ENDBRANCH  18  19
ENDBRANCH  12  18
ENDBRANCH  11  12
ENDBRANCH   1  11
BRANCH   4  24
ATOM     24  O   UNL     1       1.353   1.530   0.039  0.00  0.00    -0.460 OA
BRANCH  24  25
ATOM     25  C   UNL     1       0.103   0.856   0.197  0.00  0.00    +0.340 C 
ATOM     26  C   UNL     1      -0.601   1.374   1.454  0.00  0.00    +0.214 C 
ATOM     27  C   UNL     1      -0.897   2.867   1.286  0.00  0.00    +0.180 C 
ATOM     28  C   UNL     1      -1.738   3.071   0.022  0.00  0.00    +0.186 C 
ATOM     29  C   UNL     1      -0.990   2.488  -1.179  0.00  0.00    +0.266 C 
ATOM     30  O   UNL     1      -0.720   1.104  -0.945  0.00  0.00    -0.322 OA
BRANCH  29  31
ATOM     31  C   UNL     1      -1.837   2.631  -2.418  0.00  0.00    +0.387 C 
ATOM     32  O   UNL     1      -2.250   1.648  -2.984  0.00  0.00    -0.243 OA
ATOM     33  O   UNL     1      -2.133   3.852  -2.891  0.00  0.00    -0.243 OA
ENDBRANCH  29  31
BRANCH  28  34
ATOM     34  O   UNL     1      -2.994   2.405   0.172  0.00  0.00    -0.386 OA
ATOM     35  H   UNL     1      -3.736   2.441  -0.640  0.00  0.00    +0.210 HD
ENDBRANCH  28  34
BRANCH  27  36
ATOM     36  O   UNL     1       0.332   3.587   1.163  0.00  0.00    -0.386 OA
ATOM     37  H   UNL     1       0.319   4.679   1.034  0.00  0.00    +0.210 HD
ENDBRANCH  27  36
BRANCH  26  38
ATOM     38  O   UNL     1      -1.827   0.663   1.642  0.00  0.00    -0.383 OA
ATOM     39  H   UNL     1      -2.474   0.899   2.500  0.00  0.00    +0.210 HD
ENDBRANCH  26  38
ENDBRANCH  24  25
ENDBRANCH   4  24
TORSDOF 12
