REMARK  Name = ZINC39665402
REMARK  11 active torsions:
REMARK  status: ('A' for Active; 'I' for Inactive)
REMARK    1  A    between atoms: C_1  and  C_2
REMARK    2  A    between atoms: C_2  and  C_4
REMARK    3  A    between atoms: C_2  and  O_31
REMARK    4  A    between atoms: C_4  and  N_5
REMARK    5  A    between atoms: C_6  and  C_8
REMARK    6  A    between atoms: C_19  and  C_21
REMARK    7  A    between atoms: C_21  and  C_22
REMARK    8  A    between atoms: C_22  and  C_23
REMARK    9  A    between atoms: C_26  and  O_29
REMARK   10  A    between atoms: O_29  and  C_30
REMARK   11  A    between atoms: O_31  and  C_32
REMARK                            x       y       z     vdW  Elec       q    Type
REMARK                         _______ _______ _______ _____ _____    ______ ____
ROOT
ATOM      1  C   UNL     1       1.371  -4.285   1.459  0.00  0.00    +0.100 C 
ATOM      2  C   UNL     1      -0.056  -4.839   1.245  0.00  0.00    +0.121 C 
ATOM      3  N   UNL     1      -0.030  -6.186   1.861  0.00  0.00    -0.300 N 
ATOM      4  C   UNL     1       0.784  -6.016   3.088  0.00  0.00    +0.115 C 
ATOM      5  C   UNL     1       1.918  -5.060   2.670  0.00  0.00    -0.004 C 
ATOM      6  C   UNL     1       3.158  -5.854   2.272  0.00  0.00    -0.010 C 
ATOM      7  C   UNL     1       3.717  -6.571   3.505  0.00  0.00    -0.082 C 
ATOM      8  N   UNL     1       4.054  -5.583   4.536  0.00  0.00    +0.379 N 
ATOM      9  C   UNL     1       2.840  -4.887   4.980  0.00  0.00    -0.082 C 
ATOM     10  C   UNL     1       2.244  -4.099   3.809  0.00  0.00    -0.010 C 
ATOM     11  C   UNL     1      -0.615  -7.313   1.407  0.00  0.00    +0.216 C 
ATOM     12  O   UNL     1      -0.502  -8.348   2.029  0.00  0.00    -0.276 OA
ATOM     13  H   UNL     1       4.478  -6.051   5.323  0.00  0.00    -0.086 HD
ATOM     14  H   UNL     1       4.705  -4.912   4.157  0.00  0.00    -0.086 HD
ENDROOT
BRANCH   1  16
ATOM     15  N   UNL     1       2.368  -2.021   1.444  0.00  0.00    -0.312 N 
ATOM     16  C   UNL     1       1.321  -2.809   1.760  0.00  0.00    +0.218 C 
ATOM     17  O   UNL     1       0.339  -2.330   2.286  0.00  0.00    -0.275 OA
ATOM     18  H   UNL     1       3.154  -2.404   1.024  0.00  0.00    +0.149 HD
BRANCH  15  19
ATOM     19  C   UNL     1       2.320  -0.587   1.737  0.00  0.00    +0.148 C 
BRANCH  19  21
ATOM     20  C   UNL     1       3.627   1.543   1.699  0.00  0.00    +0.053 C 
ATOM     21  C   UNL     1       3.625   0.071   1.282  0.00  0.00    +0.187 C 
BRANCH  21  22
ATOM     22  O   UNL     1       3.735  -0.022  -0.139  0.00  0.00    -0.488 OA
BRANCH  22  23
ATOM     23  C   UNL     1       4.987   0.031  -0.666  0.00  0.00    +0.121 A 
ATOM     24  C   UNL     1       6.076   0.282   0.155  0.00  0.00    +0.045 A 
ATOM     25  C   UNL     1       7.348   0.335  -0.382  0.00  0.00    +0.004 A 
ATOM     26  C   UNL     1       7.535   0.139  -1.738  0.00  0.00    +0.000 A 
ATOM     27  C   UNL     1       6.451  -0.111  -2.559  0.00  0.00    +0.004 A 
ATOM     28  C   UNL     1       5.178  -0.171  -2.025  0.00  0.00    +0.045 A 
ENDBRANCH  22  23
ENDBRANCH  21  22
ENDBRANCH  19  21
ENDBRANCH  15  19
ENDBRANCH   1  16
BRANCH  11  29
ATOM     29  C   UNL     1      -1.409  -7.286   0.126  0.00  0.00    +0.100 C 
BRANCH  29  30
ATOM     30  C   UNL     1      -1.961  -8.684  -0.161  0.00  0.00    +0.044 C 
BRANCH  30  31
ATOM     31  C   UNL     1      -2.755  -8.658  -1.441  0.00  0.00    -0.047 A 
ATOM     32  C   UNL     1      -4.108  -8.375  -1.409  0.00  0.00    +0.007 A 
ATOM     33  C   UNL     1      -4.838  -8.351  -2.581  0.00  0.00    +0.046 A 
ATOM     34  C   UNL     1      -4.212  -8.609  -3.792  0.00  0.00    +0.120 A 
ATOM     35  C   UNL     1      -2.854  -8.892  -3.822  0.00  0.00    +0.046 A 
ATOM     36  C   UNL     1      -2.128  -8.910  -2.647  0.00  0.00    +0.007 A 
BRANCH  34  37
ATOM     37  O   UNL     1      -4.928  -8.586  -4.947  0.00  0.00    -0.495 OA
ATOM     38  C   UNL     1      -4.219  -8.862  -6.156  0.00  0.00    +0.277 C 
ENDBRANCH  34  37
ENDBRANCH  30  31
ENDBRANCH  29  30
ENDBRANCH  11  29
TORSDOF 9
