REMARK  Name = ZINC16571500
REMARK  9 active torsions:
REMARK  status: ('A' for Active; 'I' for Inactive)
REMARK    1  A    between atoms: C_1  and  C_2
REMARK    2  A    between atoms: C_2  and  C_3
REMARK    3  A    between atoms: C_3  and  C_5
REMARK    4  A    between atoms: C_3  and  C_6
REMARK    5  A    between atoms: C_6  and  C_8
REMARK    6  A    between atoms: C_6  and  N_23
REMARK    7  A    between atoms: C_14  and  C_16
REMARK    8  A    between atoms: C_24  and  C_26
REMARK    9  A    between atoms: C_30  and  N_32
REMARK                            x       y       z     vdW  Elec       q    Type
REMARK                         _______ _______ _______ _____ _____    ______ ____
ROOT
ATOM      1  C   UNL     1       5.139   4.412   0.021  0.00  0.00    +0.162 C 
ENDROOT
BRANCH   1   2
ATOM      2  C   UNL     1       4.371   3.189   0.452  0.00  0.00    +0.239 C 
ATOM      3  O   UNL     1       4.781   2.084   0.166  0.00  0.00    -0.273 OA
ATOM      4  N   UNL     1       3.229   3.323   1.156  0.00  0.00    -0.262 N 
ATOM      5  C   UNL     1       2.467   2.203   1.463  0.00  0.00    +0.188 A 
ATOM      6  N   UNL     1       2.671   0.925   1.168  0.00  0.00    -0.125 NA
ATOM      7  N   UNL     1       1.869   0.022   1.528  0.00  0.00    -0.140 NA
ATOM      8  C   UNL     1       0.771   0.294   2.223  0.00  0.00    +0.134 A 
ATOM      9  S   UNL     1       0.928   2.072   2.369  0.00  0.00    -0.030 S 
ATOM     10  H   UNL     1       2.940   4.202   1.447  0.00  0.00    +0.157 HD
BRANCH   8  11
ATOM     11  C   UNL     1      -0.280  -0.611   2.732  0.00  0.00    +0.009 A 
ATOM     12  C   UNL     1      -1.358  -0.097   3.455  0.00  0.00    +0.012 A 
ATOM     13  C   UNL     1      -2.339  -0.947   3.923  0.00  0.00    +0.016 A 
ATOM     14  C   UNL     1      -2.250  -2.308   3.687  0.00  0.00    +0.018 A 
ATOM     15  C   UNL     1      -1.181  -2.824   2.975  0.00  0.00    +0.016 A 
ATOM     16  C   UNL     1      -0.197  -1.984   2.497  0.00  0.00    +0.012 A 
ATOM     17 BR   UNL     1      -3.595  -3.466   4.339  0.00  0.00    -0.050 Br
ENDBRANCH   8  11
ENDBRANCH   1   2
BRANCH   1  18
ATOM     18  N   UNL     1       6.518   4.035  -0.298  0.00  0.00    -0.300 N 
ATOM     19  C   UNL     1       7.503   4.951  -0.216  0.00  0.00    +0.245 C 
ATOM     20  O   UNL     1       7.247   6.090   0.123  0.00  0.00    -0.270 OA
ATOM     21  H   UNL     1       6.723   3.126  -0.568  0.00  0.00    +0.150 HD
BRANCH  19  22
ATOM     22  C   UNL     1       8.895   4.571  -0.538  0.00  0.00    +0.039 A 
ATOM     23  C   UNL     1       9.193   3.264  -0.928  0.00  0.00    +0.013 A 
ATOM     24  C   UNL     1      10.493   2.916  -1.227  0.00  0.00    +0.003 A 
ATOM     25  C   UNL     1      11.502   3.859  -1.141  0.00  0.00    +0.033 A 
ATOM     26  C   UNL     1      11.214   5.156  -0.756  0.00  0.00    +0.127 A 
ATOM     27  C   UNL     1       9.917   5.519  -0.459  0.00  0.00    +0.045 A 
BRANCH  26  28
ATOM     28  N   UNL     1      12.300   6.158  -0.668  0.00  0.00    +0.056 N 
ATOM     29  O   UNL     1      13.445   5.841  -0.934  0.00  0.00    -0.126 OA
ATOM     30  O   UNL     1      12.048   7.301  -0.329  0.00  0.00    -0.126 OA
ENDBRANCH  26  28
ENDBRANCH  19  22
ENDBRANCH   1  18
BRANCH   1  31
ATOM     31  C   UNL     1       4.477   5.020  -1.216  0.00  0.00    +0.015 C 
ATOM     32  C   UNL     1       4.610   4.052  -2.393  0.00  0.00    +0.010 C 
BRANCH  31  34
ATOM     33  C   UNL     1       4.884   7.367  -0.462  0.00  0.00    +0.004 C 
ATOM     34  C   UNL     1       5.163   6.343  -1.564  0.00  0.00    +0.002 C 
ENDBRANCH  31  34
ENDBRANCH   1  31
TORSDOF 7
