REMARK  Name = ZINC42170970
REMARK  5 active torsions:
REMARK  status: ('A' for Active; 'I' for Inactive)
REMARK    1  A    between atoms: C_2  and  C_20
REMARK    2  A    between atoms: C_4  and  N_10
REMARK    3  A    between atoms: C_6  and  C_7
REMARK    4  A    between atoms: C_11  and  C_13
REMARK    5  A    between atoms: C_13  and  C_14
REMARK                            x       y       z     vdW  Elec       q    Type
REMARK                         _______ _______ _______ _____ _____    ______ ____
ROOT
ATOM      1  C   UNL     1      -0.018   1.389  -0.015  0.00  0.00    +0.030 A 
ATOM      2  C   UNL     1       1.104   1.954   0.590  0.00  0.00    +0.066 A 
ATOM      3  C   UNL     1       2.321   1.266   0.581  0.00  0.00    +0.038 A 
ATOM      4  C   UNL     1       2.414   0.025  -0.030  0.00  0.00    +0.035 A 
ATOM      5  C   UNL     1       1.300  -0.540  -0.633  0.00  0.00    +0.038 A 
ATOM      6  C   UNL     1       0.080   0.140  -0.628  0.00  0.00    +0.066 A 
ENDROOT
BRANCH   4   7
ATOM      7  N   UNL     1       3.635  -0.660  -0.038  0.00  0.00    -0.286 N 
ATOM      8  C   UNL     1       3.654  -2.004   0.056  0.00  0.00    +0.216 C 
ATOM      9  O   UNL     1       2.613  -2.627   0.064  0.00  0.00    -0.276 OA
ATOM     10  H   UNL     1       4.467  -0.167  -0.111  0.00  0.00    +0.155 HD
BRANCH   8  11
ATOM     11  C   UNL     1       4.969  -2.734   0.152  0.00  0.00    +0.080 C 
BRANCH  11  12
ATOM     12  C   UNL     1       4.712  -4.239   0.248  0.00  0.00    -0.063 C 
ATOM     13  C   UNL     1       6.052  -5.014   0.296  0.00  0.00    -0.017 C 
ATOM     14  C   UNL     1       5.629  -6.329   1.001  0.00  0.00    -0.021 C 
ATOM     15  C   UNL     1       4.566  -5.854   2.014  0.00  0.00    -0.082 C 
ATOM     16  N   UNL     1       4.038  -4.566   1.522  0.00  0.00    +0.381 N 
ATOM     17  H   UNL     1       4.224  -3.842   2.200  0.00  0.00    -0.086 HD
ATOM     18  H   UNL     1       3.043  -4.640   1.371  0.00  0.00    -0.086 HD
ENDBRANCH  11  12
ENDBRANCH   8  11
ENDBRANCH   4   7
BRANCH   6  19
ATOM     19  C   UNL     1      -1.105  -0.462  -1.270  0.00  0.00    +0.387 C 
ATOM     20  O   UNL     1      -2.173   0.134  -1.265  0.00  0.00    -0.241 OA
ATOM     21  O   UNL     1      -1.019  -1.557  -1.807  0.00  0.00    -0.241 OA
ENDBRANCH   6  19
BRANCH   2  22
ATOM     22  C   UNL     1       1.007   3.275   1.240  0.00  0.00    +0.387 C 
ATOM     23  O   UNL     1      -0.058   3.876   1.247  0.00  0.00    -0.241 OA
ATOM     24  O   UNL     1       1.991   3.770   1.770  0.00  0.00    -0.241 OA
ENDBRANCH   2  22
TORSDOF 5
