REMARK  Name = ZINC14971732
REMARK  12 active torsions:
REMARK  status: ('A' for Active; 'I' for Inactive)
REMARK    1  A    between atoms: C_1  and  C_2
REMARK    2  A    between atoms: C_2  and  C_4
REMARK    3  A    between atoms: C_2  and  C_10
REMARK    4  A    between atoms: C_15  and  C_18
REMARK    5  A    between atoms: C_18  and  C_29
REMARK    6  A    between atoms: N_21  and  C_25
REMARK    7  A    between atoms: C_25  and  C_26
REMARK    8  A    between atoms: C_26  and  N_74
REMARK    9  A    between atoms: C_27  and  N_74
REMARK   10  A    between atoms: C_28  and  N_74
REMARK   11  A    between atoms: C_29  and  C_30
REMARK   12  A    between atoms: C_30  and  C_31
REMARK                            x       y       z     vdW  Elec       q    Type
REMARK                         _______ _______ _______ _____ _____    ______ ____
ROOT
ATOM      1  C   UNL     1      -8.655   1.390  -1.430  0.00  0.00    +0.116 C 
ATOM      2  C   UNL     1      -8.534   2.874  -1.145  0.00  0.00    +0.247 C 
ATOM      3  O   UNL     1      -7.979   3.395  -0.201  0.00  0.00    -0.273 OA
ATOM      4  N   UNL     1      -9.170   3.494  -2.159  0.00  0.00    -0.226 N 
ATOM      5  C   UNL     1      -9.672   2.617  -3.035  0.00  0.00    +0.309 C 
ATOM      6  O   UNL     1     -10.289   2.936  -4.033  0.00  0.00    -0.252 OA
ATOM      7  N   UNL     1      -9.418   1.342  -2.690  0.00  0.00    -0.285 N 
ATOM      8  H   UNL     1      -9.685   0.545  -3.175  0.00  0.00    +0.151 HD
ENDROOT
BRANCH   1  14
ATOM      9  C   UNL     1      -3.208   1.257  -1.288  0.00  0.00    +0.223 C 
ATOM     10  O   UNL     1      -2.651   1.914  -2.143  0.00  0.00    -0.275 OA
ATOM     11  N   UNL     1      -4.446   0.774  -1.510  0.00  0.00    -0.301 N 
ATOM     12  C   UNL     1      -5.173   0.062  -0.450  0.00  0.00    +0.108 C 
ATOM     13  C   UNL     1      -6.545   0.728  -0.268  0.00  0.00    +0.025 C 
ATOM     14  C   UNL     1      -7.272   0.762  -1.614  0.00  0.00    +0.024 C 
ATOM     15  C   UNL     1      -6.463   1.594  -2.612  0.00  0.00    +0.025 C 
ATOM     16  C   UNL     1      -5.092   0.943  -2.819  0.00  0.00    +0.108 C 
BRANCH   9  18
ATOM     17  C   UNL     1      -1.429   2.034   0.255  0.00  0.00    +0.022 C 
ATOM     18  C   UNL     1      -2.515   0.982   0.021  0.00  0.00    +0.102 C 
BRANCH  18  19
ATOM     19  C   UNL     1      -1.887  -0.388  -0.021  0.00  0.00    -0.036 A 
ATOM     20  C   UNL     1      -2.270  -1.351   0.894  0.00  0.00    +0.004 A 
ATOM     21  C   UNL     1      -1.698  -2.609   0.852  0.00  0.00    +0.000 A 
ATOM     22  C   UNL     1      -0.740  -2.902  -0.101  0.00  0.00    +0.000 A 
ATOM     23  C   UNL     1      -0.354  -1.936  -1.012  0.00  0.00    +0.000 A 
ATOM     24  C   UNL     1      -0.926  -0.678  -0.970  0.00  0.00    +0.004 A 
ENDBRANCH  18  19
ENDBRANCH   9  18
ENDBRANCH   1  14
BRANCH   4  25
ATOM     25  C   UNL     1      -9.297   4.948  -2.284  0.00  0.00    +0.099 C 
BRANCH  25  26
ATOM     26  C   UNL     1     -10.574   5.410  -1.579  0.00  0.00    -0.060 C 
BRANCH  26  29
ATOM     27  C   UNL     1     -10.914   7.260  -3.106  0.00  0.00    -0.097 C 
ATOM     28  C   UNL     1     -11.780   7.379  -0.847  0.00  0.00    -0.097 C 
ATOM     29  N   UNL     1     -10.678   6.880  -1.697  0.00  0.00    +0.377 N 
ATOM     30  H   UNL     1      -9.796   7.303  -1.381  0.00  0.00    -0.083 HD
ENDBRANCH  26  29
ENDBRANCH  25  26
ENDBRANCH   4  25
BRANCH   1  31
ATOM     31  C   UNL     1      -9.421   0.684  -0.310  0.00  0.00    +0.040 C 
BRANCH  31  32
ATOM     32  C   UNL     1     -10.842   1.247  -0.230  0.00  0.00    +0.038 C 
BRANCH  32  33
ATOM     33  C   UNL     1     -11.596   0.551   0.874  0.00  0.00    -0.047 A 
ATOM     34  C   UNL     1     -12.319  -0.595   0.602  0.00  0.00    +0.003 A 
ATOM     35  C   UNL     1     -13.007  -1.235   1.615  0.00  0.00    +0.000 A 
ATOM     36  C   UNL     1     -12.980  -0.724   2.899  0.00  0.00    +0.000 A 
ATOM     37  C   UNL     1     -12.261   0.425   3.171  0.00  0.00    +0.000 A 
ATOM     38  C   UNL     1     -11.569   1.063   2.158  0.00  0.00    +0.003 A 
ENDBRANCH  32  33
ENDBRANCH  31  32
ENDBRANCH   1  31
TORSDOF 9
