REMARK  Name = ZINC05100514
REMARK  14 active torsions:
REMARK  status: ('A' for Active; 'I' for Inactive)
REMARK    1  A    between atoms: C_1  and  C_2
REMARK    2  A    between atoms: C_2  and  C_3
REMARK    3  A    between atoms: C_3  and  C_4
REMARK    4  A    between atoms: C_4  and  C_5
REMARK    5  A    between atoms: C_5  and  N_6
REMARK    6  A    between atoms: N_6  and  C_7
REMARK    7  A    between atoms: C_7  and  C_8
REMARK    8  A    between atoms: N_12  and  C_13
REMARK    9  A    between atoms: C_13  and  C_14
REMARK   10  A    between atoms: C_19  and  C_20
REMARK   11  A    between atoms: C_21  and  C_23
REMARK   12  A    between atoms: C_23  and  C_24
REMARK   13  A    between atoms: C_24  and  C_25
REMARK   14  A    between atoms: C_24  and  C_26
REMARK                            x       y       z     vdW  Elec       q    Type
REMARK                         _______ _______ _______ _____ _____    ______ ____
ROOT
ATOM      1  C   UNL     1       2.751   2.190   0.165  0.00  0.00    +0.161 C 
ENDROOT
BRANCH   1   2
ATOM      2  C   UNL     1       1.269   2.395   0.345  0.00  0.00    +0.036 A 
ATOM      3  C   UNL     1       0.456   3.068  -0.494  0.00  0.00    +0.024 A 
ATOM      4  C   UNL     1      -0.843   3.023   0.050  0.00  0.00    +0.019 A 
ATOM      5  C   UNL     1      -0.776   2.315   1.196  0.00  0.00    +0.086 A 
ATOM      6  N   UNL     1       0.518   1.930   1.384  0.00  0.00    -0.345 N 
BRANCH   6   7
ATOM      7  C   UNL     1       1.020   1.147   2.516  0.00  0.00    +0.157 C 
BRANCH   7   8
ATOM      8  C   UNL     1       1.667   2.070   3.517  0.00  0.00    -0.025 A 
ATOM      9  C   UNL     1       3.026   2.316   3.453  0.00  0.00    +0.005 A 
ATOM     10  C   UNL     1       3.619   3.162   4.371  0.00  0.00    +0.000 A 
ATOM     11  C   UNL     1       2.854   3.762   5.353  0.00  0.00    +0.000 A 
ATOM     12  C   UNL     1       1.495   3.517   5.417  0.00  0.00    +0.004 A 
ATOM     13  C   UNL     1       0.901   2.674   4.496  0.00  0.00    -0.046 A 
ATOM     14  C   UNL     1      -0.582   2.410   4.563  0.00  0.00    +0.044 C 
ENDBRANCH   7   8
ENDBRANCH   6   7
ENDBRANCH   1   2
BRANCH   1  15
ATOM     15  N   UNL     1       3.089   2.294  -1.257  0.00  0.00    -0.296 N 
ATOM     16  C   UNL     1       3.465   3.480  -1.775  0.00  0.00    +0.216 C 
ATOM     17  O   UNL     1       3.651   3.589  -2.969  0.00  0.00    -0.276 OA
BRANCH  15  18
ATOM     18  C   UNL     1       3.018   1.109  -2.115  0.00  0.00    +0.108 C 
BRANCH  18  19
ATOM     19  C   UNL     1       1.617   0.999  -2.719  0.00  0.00    +0.019 C 
BRANCH  19  20
ATOM     20  C   UNL     1       1.544  -0.238  -3.615  0.00  0.00    +0.001 C 
BRANCH  20  22
ATOM     21  C   UNL     1       0.069  -1.586  -5.116  0.00  0.00    +0.004 C 
ATOM     22  C   UNL     1       0.142  -0.348  -4.220  0.00  0.00    -0.003 C 
ENDBRANCH  20  22
ENDBRANCH  19  20
ENDBRANCH  18  19
ENDBRANCH  15  18
BRANCH  16  23
ATOM     23  C   UNL     1       3.653   4.672  -0.872  0.00  0.00    +0.099 C 
BRANCH  23  24
ATOM     24  C   UNL     1       4.074   5.883  -1.706  0.00  0.00    -0.008 C 
ATOM     25  C   UNL     1       4.128   7.124  -0.813  0.00  0.00    +0.008 C 
ATOM     26  C   UNL     1       5.455   5.630  -2.313  0.00  0.00    +0.008 C 
ENDBRANCH  23  24
ENDBRANCH  16  23
ENDBRANCH   1  15
TORSDOF 10
