REMARK  Name = ZINC35747136
REMARK  11 active torsions:
REMARK  status: ('A' for Active; 'I' for Inactive)
REMARK    1  A    between atoms: C_1  and  C_2
REMARK    2  A    between atoms: C_8  and  C_17
REMARK    3  A    between atoms: C_12  and  C_13
REMARK    4  A    between atoms: C_13  and  O_15
REMARK    5  A    between atoms: O_15  and  C_16
REMARK    6  A    between atoms: C_17  and  N_18
REMARK    7  A    between atoms: N_18  and  C_19
REMARK    8  A    between atoms: N_18  and  C_24
REMARK    9  A    between atoms: C_19  and  C_20
REMARK   10  A    between atoms: C_20  and  C_22
REMARK   11  A    between atoms: C_20  and  O_23
REMARK                            x       y       z     vdW  Elec       q    Type
REMARK                         _______ _______ _______ _____ _____    ______ ____
ROOT
ATOM      1  C   UNL     1       3.178  -0.238  -8.974  0.00  0.00    +0.046 C 
ATOM      2  C   UNL     1       3.281  -1.543  -8.227  0.00  0.00    -0.015 A 
ATOM      3  C   UNL     1       2.283  -1.912  -7.322  0.00  0.00    +0.076 A 
ATOM      4  C   UNL     1       1.049  -1.187  -6.944  0.00  0.00    +0.260 A 
ATOM      5  O   UNL     1       0.781  -0.107  -7.439  0.00  0.00    -0.267 OA
ATOM      6  N   UNL     1       0.229  -1.753  -6.037  0.00  0.00    -0.312 N 
ATOM      7  H   UNL     1      -0.584  -1.291  -5.778  0.00  0.00    +0.170 HD
ATOM      8  C   UNL     1       0.516  -2.955  -5.479  0.00  0.00    +0.094 A 
ATOM      9  N   UNL     1       1.595  -3.620  -5.790  0.00  0.00    -0.229 NA
ATOM     10  C   UNL     1       2.470  -3.153  -6.672  0.00  0.00    +0.116 A 
ATOM     11  S   UNL     1       4.006  -3.738  -7.343  0.00  0.00    -0.062 S 
ATOM     12  C   UNL     1       4.347  -2.369  -8.437  0.00  0.00    +0.102 A 
ENDROOT
BRANCH  12  13
ATOM     13  C   UNL     1       5.488  -2.179  -9.335  0.00  0.00    +0.346 C 
ATOM     14  O   UNL     1       5.565  -1.175 -10.016  0.00  0.00    -0.244 OA
BRANCH  13  15
ATOM     15  O   UNL     1       6.454  -3.118  -9.406  0.00  0.00    -0.464 OA
ATOM     16  C   UNL     1       7.537  -2.868 -10.303  0.00  0.00    +0.280 C 
ENDBRANCH  13  15
ENDBRANCH  12  13
BRANCH   8  17
ATOM     17  C   UNL     1      -0.438  -3.539  -4.469  0.00  0.00    -0.003 C 
BRANCH  17  18
ATOM     18  N   UNL     1      -0.002  -4.896  -4.112  0.00  0.00    +0.388 N 
ATOM     19  H   UNL     1      -0.670  -5.308  -3.478  0.00  0.00    -0.081 HD
BRANCH  18  20
ATOM     20  C   UNL     1       0.092  -5.716  -5.327  0.00  0.00    -0.068 C 
ATOM     21  C   UNL     1       0.402  -7.164  -4.942  0.00  0.00    -0.015 C 
ATOM     22  C   UNL     1       0.499  -8.019  -6.207  0.00  0.00    -0.002 C 
ATOM     23  C   UNL     1      -0.830  -7.964  -6.963  0.00  0.00    -0.000 C 
ATOM     24  C   UNL     1      -1.139  -6.516  -7.348  0.00  0.00    -0.002 C 
ATOM     25  C   UNL     1      -1.237  -5.662  -6.082  0.00  0.00    -0.015 C 
ENDBRANCH  18  20
BRANCH  18  26
ATOM     26  C   UNL     1       1.314  -4.832  -3.461  0.00  0.00    -0.046 C 
BRANCH  26  27
ATOM     27  C   UNL     1       1.179  -4.135  -2.106  0.00  0.00    +0.095 C 
ATOM     28  C   UNL     1       2.563  -3.985  -1.470  0.00  0.00    +0.035 C 
BRANCH  27  29
ATOM     29  O   UNL     1       0.344  -4.917  -1.250  0.00  0.00    -0.394 OA
ATOM     30  H   UNL     1       0.678  -5.808  -1.080  0.00  0.00    +0.210 HD
ENDBRANCH  27  29
ENDBRANCH  26  27
ENDBRANCH  18  26
ENDBRANCH  17  18
ENDBRANCH   8  17
TORSDOF 8
