REMARK  Name = ZINC42656682
REMARK  5 active torsions:
REMARK  status: ('A' for Active; 'I' for Inactive)
REMARK    1  A    between atoms: C_6  and  C_7
REMARK    2  A    between atoms: N_10  and  C_12
REMARK    3  A    between atoms: C_12  and  C_13
REMARK    4  A    between atoms: C_13  and  C_15
REMARK    5  A    between atoms: C_13  and  O_23
REMARK                            x       y       z     vdW  Elec       q    Type
REMARK                         _______ _______ _______ _____ _____    ______ ____
ROOT
ATOM      1  C   UNL     1      -1.272  -0.766   0.011  0.00  0.00    +0.205 A 
ATOM      2  N   UNL     1      -2.511  -0.254   0.020  0.00  0.00    -0.108 NA
ATOM      3  N   UNL     1      -3.335  -1.247   0.024  0.00  0.00    -0.046 NA
ATOM      4  N   UNL     1      -2.665  -2.346   0.018  0.00  0.00    -0.160 N 
ATOM      5  N   UNL     1      -1.405  -2.078   0.005  0.00  0.00    -0.130 NA
ENDROOT
BRANCH   1  11
ATOM      6  C   UNL     1      -0.017   1.389   0.010  0.00  0.00    +0.013 A 
ATOM      7  C   UNL     1       1.170   2.093   0.002  0.00  0.00    +0.021 A 
ATOM      8  C   UNL     1       2.378   1.417  -0.013  0.00  0.00    +0.041 A 
ATOM      9  C   UNL     1       2.402   0.033  -0.021  0.00  0.00    +0.021 A 
ATOM     10  C   UNL     1       1.220  -0.680  -0.014  0.00  0.00    +0.013 A 
ATOM     11  C   UNL     1       0.002  -0.004   0.002  0.00  0.00    +0.023 A 
ATOM     12 CL   UNL     1       3.868   2.308  -0.022  0.00  0.00    -0.084 Cl
ENDBRANCH   1  11
BRANCH   4  13
ATOM     13  C   UNL     1      -3.245  -3.691   0.021  0.00  0.00    +0.204 C 
BRANCH  13  14
ATOM     14  C   UNL     1      -3.457  -4.159  -1.420  0.00  0.00    +0.168 C 
BRANCH  14  15
ATOM     15  C   UNL     1      -3.938  -5.587  -1.420  0.00  0.00    -0.014 A 
ATOM     16  C   UNL     1      -5.285  -5.862  -1.278  0.00  0.00    +0.009 A 
ATOM     17  C   UNL     1      -5.729  -7.171  -1.277  0.00  0.00    +0.041 A 
ATOM     18  C   UNL     1      -4.823  -8.208  -1.419  0.00  0.00    +0.158 A 
ATOM     19  C   UNL     1      -3.472  -7.933  -1.561  0.00  0.00    +0.159 A 
ATOM     20  C   UNL     1      -3.032  -6.620  -1.567  0.00  0.00    +0.047 A 
ATOM     21  F   UNL     1      -2.586  -8.943  -1.699  0.00  0.00    -0.202 F 
ATOM     22  F   UNL     1      -5.256  -9.488  -1.418  0.00  0.00    -0.202 F 
ENDBRANCH  14  15
BRANCH  14  23
ATOM     23  O   UNL     1      -4.433  -3.328  -2.052  0.00  0.00    -0.385 OA
ATOM     24  H   UNL     1      -5.298  -3.338  -1.618  0.00  0.00    +0.210 HD
ENDBRANCH  14  23
ENDBRANCH  13  14
ENDBRANCH   4  13
TORSDOF 5
