REMARK  Name = ZINC02098936
REMARK  8 active torsions:
REMARK  status: ('A' for Active; 'I' for Inactive)
REMARK    1  A    between atoms: C_1  and  N_56
REMARK    2  A    between atoms: C_8  and  O_30
REMARK    3  A    between atoms: C_10  and  C_12
REMARK    4  A    between atoms: N_19  and  C_22
REMARK    5  A    between atoms: C_20  and  O_21
REMARK    6  A    between atoms: C_26  and  O_28
REMARK    7  A    between atoms: O_28  and  C_29
REMARK    8  A    between atoms: O_30  and  C_31
REMARK                            x       y       z     vdW  Elec       q    Type
REMARK                         _______ _______ _______ _____ _____    ______ ____
ROOT
ATOM      1  C   UNL     1      -1.158   2.506  -0.489  0.00  0.00    +0.068 A 
ATOM      2  C   UNL     1      -1.049   3.908  -0.541  0.00  0.00    +0.258 A 
ATOM      3  O   UNL     1      -2.037   4.593  -0.743  0.00  0.00    -0.267 OA
ATOM      4  N   UNL     1       0.155   4.488  -0.370  0.00  0.00    -0.302 N 
ATOM      5  H   UNL     1       0.234   5.454  -0.409  0.00  0.00    +0.171 HD
ATOM      6  C   UNL     1       1.249   3.738  -0.147  0.00  0.00    +0.168 A 
ATOM      7  S   UNL     1       2.767   4.502   0.065  0.00  0.00    -0.012 S 
ATOM      8  N   UNL     1       1.169   2.396  -0.088  0.00  0.00    -0.260 N 
ATOM      9  C   UNL     1      -0.039   1.764  -0.256  0.00  0.00    +0.206 A 
ENDROOT
BRANCH   1  19
ATOM     10  C   UNL     1      -3.015   2.000   1.673  0.00  0.00    -0.095 C 
ATOM     11  C   UNL     1      -4.794   1.838   0.035  0.00  0.00    -0.073 C 
ATOM     12  C   UNL     1      -5.325   2.528  -1.222  0.00  0.00    +0.017 C 
ATOM     13  C   UNL     1      -4.308   2.432  -2.331  0.00  0.00    -0.040 A 
ATOM     14  C   UNL     1      -4.725   2.676  -3.631  0.00  0.00    +0.053 A 
ATOM     15  C   UNL     1      -3.827   2.603  -4.682  0.00  0.00    +0.170 A 
ATOM     16  C   UNL     1      -2.497   2.283  -4.432  0.00  0.00    +0.208 A 
ATOM     17  C   UNL     1      -2.083   2.038  -3.130  0.00  0.00    +0.167 A 
ATOM     18  C   UNL     1      -2.991   2.113  -2.078  0.00  0.00    -0.008 A 
ATOM     19  C   UNL     1      -2.494   1.836  -0.683  0.00  0.00    +0.007 C 
ATOM     20  O   UNL     1      -1.818   2.275  -5.617  0.00  0.00    -0.449 OA
ATOM     21  C   UNL     1      -2.656   2.992  -6.543  0.00  0.00    +0.467 C 
ATOM     22  O   UNL     1      -3.984   2.796  -6.025  0.00  0.00    -0.452 OA
ATOM     23  N   UNL     1      -3.444   2.372   0.305  0.00  0.00    +0.386 N 
ATOM     24  H   UNL     1      -3.466   3.395   0.229  0.00  0.00    -0.081 HD
BRANCH  17  25
ATOM     25  O   UNL     1      -0.783   1.725  -2.881  0.00  0.00    -0.491 OA
ATOM     26  C   UNL     1      -0.405   0.356  -3.034  0.00  0.00    +0.277 C 
ENDBRANCH  17  25
ENDBRANCH   1  19
BRANCH   8  27
ATOM     27  C   UNL     1       2.324   1.639   0.145  0.00  0.00    +0.055 A 
ATOM     28  C   UNL     1       3.294   1.528  -0.843  0.00  0.00    +0.026 A 
ATOM     29  C   UNL     1       4.436   0.786  -0.610  0.00  0.00    +0.006 A 
ATOM     30  C   UNL     1       4.611   0.142   0.601  0.00  0.00    +0.046 A 
ATOM     31  C   UNL     1       3.642   0.245   1.589  0.00  0.00    +0.122 A 
ATOM     32  C   UNL     1       2.498   0.994   1.361  0.00  0.00    +0.072 A 
BRANCH  31  33
ATOM     33  O   UNL     1       3.815  -0.388   2.779  0.00  0.00    -0.495 OA
ATOM     34  C   UNL     1       5.018  -1.141   2.944  0.00  0.00    +0.277 C 
ENDBRANCH  31  33
ENDBRANCH   8  27
BRANCH   9  35
ATOM     35  O   UNL     1      -0.116   0.417  -0.197  0.00  0.00    -0.493 OA
ATOM     36  H   UNL     1       0.741  -0.023  -0.113  0.00  0.00    +0.294 HD
ENDBRANCH   9  35
TORSDOF 5
