REMARK  Name = ZINC01326814
REMARK  5 active torsions:
REMARK  status: ('A' for Active; 'I' for Inactive)
REMARK    1  A    between atoms: C_4  and  N_34
REMARK    2  A    between atoms: C_5  and  N_7
REMARK    3  A    between atoms: C_8  and  C_10
REMARK    4  A    between atoms: C_15  and  C_30
REMARK    5  A    between atoms: C_18  and  C_21
REMARK                            x       y       z     vdW  Elec       q    Type
REMARK                         _______ _______ _______ _____ _____    ______ ____
ROOT
ATOM      1  C   UNL     1       0.113  -4.247   0.191  0.00  0.00    +0.149 A 
ATOM      2  C   UNL     1      -1.012  -5.094   0.304  0.00  0.00    +0.078 A 
ATOM      3  C   UNL     1      -0.562  -6.363   0.371  0.00  0.00    +0.119 A 
ATOM      4  N   UNL     1       0.802  -6.334   0.306  0.00  0.00    -0.238 N 
ATOM      5  N   UNL     1       1.198  -5.002   0.186  0.00  0.00    -0.164 NA
ATOM      6  C   UNL     1       1.644  -7.532   0.355  0.00  0.00    +0.215 C 
ATOM      7  C   UNL     1       0.833  -8.684   0.959  0.00  0.00    +0.063 C 
ATOM      8  C   UNL     1      -0.521  -8.798   0.248  0.00  0.00    +0.104 C 
ATOM      9  N   UNL     1      -1.282  -7.555   0.487  0.00  0.00    -0.322 N 
ATOM     10  H   UNL     1      -2.225  -7.566   0.711  0.00  0.00    +0.148 HD
ENDROOT
BRANCH   8  11
ATOM     11  C   UNL     1      -1.283  -9.976   0.797  0.00  0.00    -0.024 A 
ATOM     12  C   UNL     1      -1.967  -9.859   1.992  0.00  0.00    +0.009 A 
ATOM     13  C   UNL     1      -2.669 -10.937   2.499  0.00  0.00    +0.050 A 
ATOM     14  C   UNL     1      -2.687 -12.138   1.810  0.00  0.00    +0.166 A 
ATOM     15  C   UNL     1      -1.998 -12.256   0.605  0.00  0.00    +0.167 A 
ATOM     16  C   UNL     1      -1.302 -11.170   0.100  0.00  0.00    +0.055 A 
ATOM     17  O   UNL     1      -2.169 -13.523   0.127  0.00  0.00    -0.453 OA
ATOM     18  C   UNL     1      -2.629 -14.299   1.250  0.00  0.00    +0.466 C 
ATOM     19  O   UNL     1      -3.290 -13.331   2.086  0.00  0.00    -0.453 OA
ENDBRANCH   8  11
BRANCH   1  21
ATOM     20  N   UNL     1       1.234  -2.082  -0.021  0.00  0.00    -0.279 N 
ATOM     21  C   UNL     1       0.083  -2.774   0.088  0.00  0.00    +0.268 C 
ATOM     22  O   UNL     1      -0.982  -2.186   0.102  0.00  0.00    -0.268 OA
ATOM     23  H   UNL     1       2.078  -2.554  -0.098  0.00  0.00    +0.155 HD
BRANCH  20  28
ATOM     24  C   UNL     1       0.135   1.378  -0.616  0.00  0.00    +0.002 A 
ATOM     25  C   UNL     1       1.166   2.090  -0.032  0.00  0.00    +0.002 A 
ATOM     26  C   UNL     1       2.224   1.423   0.558  0.00  0.00    +0.025 A 
ATOM     27  C   UNL     1       2.252   0.036   0.565  0.00  0.00    +0.051 A 
ATOM     28  C   UNL     1       1.211  -0.681  -0.025  0.00  0.00    +0.055 A 
ATOM     29  C   UNL     1       0.154  -0.004  -0.614  0.00  0.00    +0.025 A 
BRANCH  27  30
ATOM     30  N   UNL     1       3.322  -0.641   1.161  0.00  0.00    -0.328 N 
ATOM     31  C   UNL     1       4.515  -0.990   0.378  0.00  0.00    +0.105 C 
ATOM     32  C   UNL     1       5.754  -0.449   1.099  0.00  0.00    +0.019 C 
ATOM     33  C   UNL     1       5.770  -0.970   2.538  0.00  0.00    +0.003 C 
ATOM     34  C   UNL     1       4.525  -0.473   3.277  0.00  0.00    +0.019 C 
ATOM     35  C   UNL     1       3.276  -1.010   2.582  0.00  0.00    +0.105 C 
ENDBRANCH  27  30
ENDBRANCH  20  28
ENDBRANCH   1  21
BRANCH   6  36
ATOM     36  C   UNL     1       2.874  -7.260   1.223  0.00  0.00    +0.412 C 
ATOM     37  F   UNL     1       2.466  -6.924   2.519  0.00  0.00    -0.168 F 
ATOM     38  F   UNL     1       3.676  -8.405   1.269  0.00  0.00    -0.168 F 
ATOM     39  F   UNL     1       3.606  -6.200   0.676  0.00  0.00    -0.168 F 
ENDBRANCH   6  36
TORSDOF 5
