REMARK  Name = ZINC27016742
REMARK  11 active torsions:
REMARK  status: ('A' for Active; 'I' for Inactive)
REMARK    1  A    between atoms: C_1  and  C_2
REMARK    2  A    between atoms: C_3  and  C_31
REMARK    3  A    between atoms: C_4  and  C_23
REMARK    4  A    between atoms: C_12  and  C_13
REMARK    5  A    between atoms: C_16  and  O_19
REMARK    6  A    between atoms: O_19  and  C_20
REMARK    7  A    between atoms: C_26  and  O_29
REMARK    8  A    between atoms: O_29  and  C_30
REMARK    9  A    between atoms: C_31  and  O_33
REMARK   10  A    between atoms: O_33  and  C_34
REMARK   11  A    between atoms: C_34  and  C_35
REMARK                            x       y       z     vdW  Elec       q    Type
REMARK                         _______ _______ _______ _____ _____    ______ ____
ROOT
ATOM      1  C   UNL     1       3.992  -3.002   1.705  0.00  0.00    +0.061 C 
ATOM      2  C   UNL     1       3.058  -2.199   0.836  0.00  0.00    +0.015 C 
ATOM      3  C   UNL     1       2.149  -2.857   0.101  0.00  0.00    +0.078 C 
ATOM      4  C   UNL     1       1.179  -2.156  -0.798  0.00  0.00    +0.148 C 
ATOM      5  N   UNL     1       1.233  -0.704  -0.492  0.00  0.00    -0.258 N 
ATOM      6  C   UNL     1       2.562  -0.075  -0.258  0.00  0.00    +0.227 C 
ATOM      7  N   UNL     1       3.180  -0.839   0.836  0.00  0.00    -0.320 N 
ATOM      8  S   UNL     1       2.097   1.598   0.331  0.00  0.00    -0.078 S 
ATOM      9  C   UNL     1       0.328   1.453   0.135  0.00  0.00    +0.074 C 
ATOM     10  C   UNL     1      -0.630   2.378   0.383  0.00  0.00    +0.028 C 
ATOM     11  C   UNL     1       0.172   0.080  -0.370  0.00  0.00    +0.256 C 
ATOM     12  O   UNL     1      -0.931  -0.334  -0.677  0.00  0.00    -0.269 OA
ATOM     13  H   UNL     1       3.727  -0.313   1.633  0.00  0.00    +0.148 HD
ENDROOT
BRANCH  10  14
ATOM     14  C   UNL     1      -2.050   2.005   0.306  0.00  0.00    -0.024 A 
ATOM     15  C   UNL     1      -2.974   2.874  -0.284  0.00  0.00    +0.011 A 
ATOM     16  C   UNL     1      -4.302   2.518  -0.358  0.00  0.00    +0.046 A 
ATOM     17  C   UNL     1      -4.727   1.301   0.162  0.00  0.00    +0.120 A 
ATOM     18  C   UNL     1      -3.814   0.436   0.754  0.00  0.00    +0.046 A 
ATOM     19  C   UNL     1      -2.483   0.780   0.828  0.00  0.00    +0.011 A 
BRANCH  17  20
ATOM     20  O   UNL     1      -6.039   0.957   0.092  0.00  0.00    -0.495 OA
ATOM     21  C   UNL     1      -6.923   1.892  -0.528  0.00  0.00    +0.277 C 
ENDBRANCH  17  20
ENDBRANCH  10  14
BRANCH   4  22
ATOM     22  C   UNL     1       1.587  -2.393  -2.229  0.00  0.00    -0.022 A 
ATOM     23  C   UNL     1       0.727  -3.045  -3.093  0.00  0.00    +0.009 A 
ATOM     24  C   UNL     1       1.097  -3.258  -4.407  0.00  0.00    +0.046 A 
ATOM     25  C   UNL     1       2.337  -2.828  -4.856  0.00  0.00    +0.120 A 
ATOM     26  C   UNL     1       3.201  -2.180  -3.985  0.00  0.00    +0.046 A 
ATOM     27  C   UNL     1       2.824  -1.964  -2.674  0.00  0.00    +0.009 A 
BRANCH  25  28
ATOM     28  O   UNL     1       2.706  -3.042  -6.146  0.00  0.00    -0.495 OA
ATOM     29  C   UNL     1       1.766  -3.716  -6.986  0.00  0.00    +0.277 C 
ENDBRANCH  25  28
ENDBRANCH   4  22
BRANCH   3  30
ATOM     30  C   UNL     1       2.097  -4.265   0.188  0.00  0.00    +0.339 C 
ATOM     31  O   UNL     1       2.868  -4.858   0.920  0.00  0.00    -0.245 OA
BRANCH  30  32
ATOM     32  O   UNL     1       1.193  -4.953  -0.540  0.00  0.00    -0.457 OA
BRANCH  32  33
ATOM     33  C   UNL     1       1.197  -6.376  -0.403  0.00  0.00    +0.259 C 
BRANCH  33  34
ATOM     34  C   UNL     1       0.128  -6.968  -1.284  0.00  0.00    +0.006 C 
ATOM     35  C   UNL     1       0.395  -8.018  -2.021  0.00  0.00    +0.007 C 
ENDBRANCH  33  34
ENDBRANCH  32  33
ENDBRANCH  30  32
ENDBRANCH   3  30
TORSDOF 8
