REMARK  Name = ZINC02713959
REMARK  8 active torsions:
REMARK  status: ('A' for Active; 'I' for Inactive)
REMARK    1  A    between atoms: C_1  and  O_2
REMARK    2  A    between atoms: O_2  and  C_3
REMARK    3  A    between atoms: C_3  and  C_5
REMARK    4  A    between atoms: C_5  and  C_6
REMARK    5  A    between atoms: C_6  and  C_33
REMARK    6  A    between atoms: N_11  and  C_12
REMARK    7  A    between atoms: C_33  and  O_35
REMARK    8  A    between atoms: O_35  and  C_36
REMARK                            x       y       z     vdW  Elec       q    Type
REMARK                         _______ _______ _______ _____ _____    ______ ____
ROOT
ATOM      1  C   UNL     1       1.236  -2.730  -2.965  0.00  0.00    +0.218 C 
ATOM      2  N   UNL     1       1.381  -4.185  -2.737  0.00  0.00    -0.162 N 
ATOM      3  N   UNL     1       2.677  -4.631  -2.599  0.00  0.00    -0.153 NA
ATOM      4  C   UNL     1       3.711  -3.847  -2.661  0.00  0.00    +0.178 C 
ATOM      5  S   UNL     1       3.007  -2.231  -2.945  0.00  0.00    -0.049 S 
ATOM      6  N   UNL     1       5.049  -4.186  -2.537  0.00  0.00    -0.293 N 
ATOM      7  C   UNL     1       0.305  -5.027  -2.667  0.00  0.00    +0.221 A 
ATOM      8  N   UNL     1       0.505  -6.360  -2.448  0.00  0.00    -0.293 N 
ATOM      9  H   UNL     1       1.410  -6.695  -2.345  0.00  0.00    +0.172 HD
ATOM     10  C   UNL     1      -0.529  -7.218  -2.374  0.00  0.00    +0.261 A 
ATOM     11  O   UNL     1      -0.334  -8.405  -2.177  0.00  0.00    -0.267 OA
ATOM     12  C   UNL     1      -1.861  -6.718  -2.528  0.00  0.00    +0.075 A 
ATOM     13  C   UNL     1      -3.120  -7.463  -2.485  0.00  0.00    -0.023 A 
ATOM     14  C   UNL     1      -4.255  -6.756  -2.659  0.00  0.00    -0.004 A 
ATOM     15  S   UNL     1      -3.725  -5.081  -2.887  0.00  0.00    -0.073 S 
ATOM     16  C   UNL     1      -1.974  -5.334  -2.749  0.00  0.00    +0.117 A 
ATOM     17  N   UNL     1      -0.913  -4.539  -2.807  0.00  0.00    -0.207 NA
ATOM     18  C   UNL     1      -5.660  -7.280  -2.659  0.00  0.00    +0.043 C 
ATOM     19  C   UNL     1      -5.607  -8.808  -2.801  0.00  0.00    +0.005 C 
ATOM     20  C   UNL     1      -4.579  -9.358  -1.808  0.00  0.00    +0.005 C 
ATOM     21  C   UNL     1      -3.168  -8.971  -2.254  0.00  0.00    +0.037 C 
ATOM     22  H   UNL     1       5.726  -3.492  -2.522  0.00  0.00    +0.154 HD
ENDROOT
BRANCH   6  23
ATOM     23  C   UNL     1       5.423  -5.529  -2.433  0.00  0.00    +0.033 A 
ATOM     24  C   UNL     1       4.621  -6.520  -2.986  0.00  0.00    +0.023 A 
ATOM     25  C   UNL     1       4.993  -7.845  -2.882  0.00  0.00    +0.002 A 
ATOM     26  C   UNL     1       6.162  -8.188  -2.227  0.00  0.00    +0.000 A 
ATOM     27  C   UNL     1       6.963  -7.204  -1.675  0.00  0.00    +0.002 A 
ATOM     28  C   UNL     1       6.600  -5.876  -1.782  0.00  0.00    +0.023 A 
ENDBRANCH   6  23
BRANCH   1  29
ATOM     29  C   UNL     1       0.602  -2.444  -4.302  0.00  0.00    +0.344 C 
ATOM     30  O   UNL     1       0.311  -3.356  -5.040  0.00  0.00    -0.247 OA
BRANCH  29  31
ATOM     31  O   UNL     1       0.359  -1.177  -4.673  0.00  0.00    -0.466 OA
ATOM     32  C   UNL     1      -0.244  -0.980  -5.953  0.00  0.00    +0.280 C 
ENDBRANCH  29  31
ENDBRANCH   1  29
BRANCH   1  33
ATOM     33  C   UNL     1       0.457  -2.063  -1.830  0.00  0.00    +0.171 C 
BRANCH  33  34
ATOM     34  C   UNL     1       1.057  -2.462  -0.507  0.00  0.00    +0.310 C 
ATOM     35  O   UNL     1       1.981  -3.239  -0.472  0.00  0.00    -0.251 OA
BRANCH  34  37
ATOM     36  C   UNL     1       1.182  -2.375   1.852  0.00  0.00    +0.280 C 
ATOM     37  O   UNL     1       0.565  -1.953   0.634  0.00  0.00    -0.468 OA
ENDBRANCH  34  37
ENDBRANCH  33  34
ENDBRANCH   1  33
TORSDOF 6
