REMARK  Name = ZINC02564905
REMARK  6 active torsions:
REMARK  status: ('A' for Active; 'I' for Inactive)
REMARK    1  A    between atoms: C_1  and  N_2
REMARK    2  A    between atoms: C_5  and  C_7
REMARK    3  A    between atoms: C_11  and  S_13
REMARK    4  A    between atoms: S_13  and  C_14
REMARK    5  A    between atoms: C_14  and  C_15
REMARK    6  A    between atoms: N_17  and  C_18
REMARK                            x       y       z     vdW  Elec       q    Type
REMARK                         _______ _______ _______ _____ _____    ______ ____
ROOT
ATOM      1  S   UNL     1       3.693  -5.688  -2.570  0.00  0.00    -0.088 S 
ENDROOT
BRANCH   1   5
ATOM      2  C   UNL     1      -0.026  -3.358  -1.682  0.00  0.00    +0.204 C 
ATOM      3  N   UNL     1       0.656  -3.056  -2.961  0.00  0.00    -0.248 N 
ATOM      4  N   UNL     1       1.796  -3.789  -3.205  0.00  0.00    -0.172 NA
ATOM      5  C   UNL     1       2.256  -4.684  -2.386  0.00  0.00    +0.151 C 
ATOM      6  S   UNL     1       1.096  -4.663  -1.029  0.00  0.00    -0.067 S 
ATOM      7  H   UNL     1       0.324  -2.390  -3.583  0.00  0.00    +0.170 HD
BRANCH   2  12
ATOM      8  C   UNL     1      -0.131   1.372  -0.005  0.00  0.00    +0.172 C 
ATOM      9  N   UNL     1      -0.098  -0.092  -0.021  0.00  0.00    -0.273 N 
ATOM     10  C   UNL     1      -0.079  -0.898   1.062  0.00  0.00    +0.128 A 
ATOM     11  C   UNL     1      -0.050  -2.179   0.622  0.00  0.00    +0.084 A 
ATOM     12  C   UNL     1      -0.052  -2.153  -0.777  0.00  0.00    +0.113 A 
ATOM     13  N   UNL     1      -0.086  -0.904  -1.163  0.00  0.00    -0.172 NA
ATOM     14 CL   UNL     1      -0.018  -3.600   1.618  0.00  0.00    -0.080 Cl
ENDBRANCH   2  12
ENDBRANCH   1   5
BRANCH   1  15
ATOM     15  C   UNL     1       4.381  -5.180  -4.170  0.00  0.00    +0.172 C 
BRANCH  15  16
ATOM     16  C   UNL     1       5.631  -5.973  -4.454  0.00  0.00    +0.228 C 
ATOM     17  O   UNL     1       6.019  -6.799  -3.655  0.00  0.00    -0.275 OA
ATOM     18  N   UNL     1       6.317  -5.764  -5.595  0.00  0.00    -0.282 N 
ATOM     19  H   UNL     1       5.973  -5.149  -6.261  0.00  0.00    +0.155 HD
BRANCH  18  20
ATOM     20  C   UNL     1       7.525  -6.435  -5.818  0.00  0.00    +0.071 A 
ATOM     21  C   UNL     1       7.711  -7.732  -5.346  0.00  0.00    +0.029 A 
ATOM     22  C   UNL     1       8.921  -8.357  -5.595  0.00  0.00    +0.042 A 
ATOM     23  C   UNL     1       9.904  -7.675  -6.291  0.00  0.00    +0.131 A 
ATOM     24  N   UNL     1       9.699  -6.444  -6.721  0.00  0.00    -0.222 NA
ATOM     25  C   UNL     1       8.559  -5.815  -6.509  0.00  0.00    +0.152 A 
ATOM     26 CL   UNL     1       8.347  -4.197  -7.101  0.00  0.00    -0.060 Cl
ATOM     27 CL   UNL     1      11.427  -8.448  -6.602  0.00  0.00    -0.062 Cl
ENDBRANCH  18  20
ENDBRANCH  15  16
ENDBRANCH   1  15
TORSDOF 5
