REMARK  Name = ZINC16610131
REMARK  11 active torsions:
REMARK  status: ('A' for Active; 'I' for Inactive)
REMARK    1  A    between atoms: C_1  and  C_2
REMARK    2  A    between atoms: C_3  and  C_27
REMARK    3  A    between atoms: C_4  and  C_11
REMARK    4  A    between atoms: N_9  and  C_10
REMARK    5  A    between atoms: C_14  and  N_17
REMARK    6  A    between atoms: N_20  and  C_21
REMARK    7  A    between atoms: C_27  and  O_29
REMARK    8  A    between atoms: O_29  and  C_30
REMARK    9  A    between atoms: C_30  and  C_31
REMARK   10  A    between atoms: C_31  and  C_32
REMARK   11  A    between atoms: C_31  and  C_33
REMARK                            x       y       z     vdW  Elec       q    Type
REMARK                         _______ _______ _______ _____ _____    ______ ____
ROOT
ATOM      1  C   UNL     1       0.861   4.316   8.475  0.00  0.00    -0.022 A 
ATOM      2  C   UNL     1      -0.487   4.603   8.358  0.00  0.00    +0.007 A 
ATOM      3  C   UNL     1      -1.099   4.556   7.121  0.00  0.00    +0.024 A 
ATOM      4  C   UNL     1      -0.361   4.220   5.994  0.00  0.00    +0.035 A 
ATOM      5  C   UNL     1       0.991   3.926   6.116  0.00  0.00    +0.024 A 
ATOM      6  C   UNL     1       1.599   3.981   7.355  0.00  0.00    +0.007 A 
ENDROOT
BRANCH   1  10
ATOM      7  C   UNL     1       2.962   1.063  11.197  0.00  0.00    +0.061 C 
ATOM      8  C   UNL     1       2.834   2.466  10.663  0.00  0.00    +0.021 C 
ATOM      9  C   UNL     1       1.610   2.953  10.361  0.00  0.00    +0.078 C 
ATOM     10  C   UNL     1       1.526   4.368   9.826  0.00  0.00    +0.141 C 
ATOM     11  N   UNL     1       2.795   5.102   9.680  0.00  0.00    -0.315 N 
ATOM     12  C   UNL     1       3.939   4.479  10.025  0.00  0.00    +0.137 C 
ATOM     13  S   UNL     1       5.421   5.321   9.860  0.00  0.00    -0.018 S 
ATOM     14  N   UNL     1       3.955   3.225  10.493  0.00  0.00    -0.289 N 
ATOM     15  C   UNL     1       5.249   2.634  10.841  0.00  0.00    +0.137 C 
ATOM     16  H   UNL     1       2.806   6.011   9.343  0.00  0.00    +0.149 HD
BRANCH   9  17
ATOM     17  C   UNL     1       0.447   2.168  10.537  0.00  0.00    +0.339 C 
ATOM     18  O   UNL     1      -0.652   2.659  10.359  0.00  0.00    -0.245 OA
BRANCH  17  19
ATOM     19  O   UNL     1       0.556   0.874  10.904  0.00  0.00    -0.461 OA
BRANCH  19  20
ATOM     20  C   UNL     1      -0.651   0.110  10.955  0.00  0.00    +0.235 C 
BRANCH  20  21
ATOM     21  C   UNL     1      -0.349  -1.285  11.505  0.00  0.00    +0.020 C 
ATOM     22  C   UNL     1       0.124  -1.171  12.955  0.00  0.00    +0.010 C 
ATOM     23  C   UNL     1      -1.616  -2.142  11.447  0.00  0.00    +0.010 C 
ENDBRANCH  20  21
ENDBRANCH  19  20
ENDBRANCH  17  19
ENDBRANCH   9  17
ENDBRANCH   1  10
BRANCH   4  24
ATOM     24  N   UNL     1      -0.978   4.171   4.739  0.00  0.00    -0.269 N 
ATOM     25  C   UNL     1      -0.256   4.394   3.624  0.00  0.00    +0.304 C 
ATOM     26  O   UNL     1       0.911   4.725   3.711  0.00  0.00    -0.253 OA
ATOM     27  N   UNL     1      -0.828   4.252   2.411  0.00  0.00    -0.296 N 
ATOM     28  H   UNL     1      -1.926   3.977   4.673  0.00  0.00    +0.156 HD
ATOM     29  H   UNL     1      -1.758   3.988   2.342  0.00  0.00    +0.151 HD
BRANCH  27  30
ATOM     30  C   UNL     1      -0.043   4.494   1.198  0.00  0.00    +0.074 C 
ATOM     31  C   UNL     1       0.724   3.224   0.824  0.00  0.00    +0.022 C 
ATOM     32  C   UNL     1       1.544   3.478  -0.442  0.00  0.00    +0.002 C 
ATOM     33  C   UNL     1       0.606   3.864  -1.588  0.00  0.00    +0.000 C 
ATOM     34  C   UNL     1      -0.161   5.134  -1.214  0.00  0.00    +0.002 C 
ATOM     35  C   UNL     1      -0.980   4.880   0.053  0.00  0.00    +0.022 C 
ENDBRANCH  27  30
ENDBRANCH   4  24
TORSDOF 7
