REMARK  Name = ZINC45662672
REMARK  9 active torsions:
REMARK  status: ('A' for Active; 'I' for Inactive)
REMARK    1  A    between atoms: C_1  and  C_2
REMARK    2  A    between atoms: C_2  and  C_3
REMARK    3  A    between atoms: C_3  and  C_5
REMARK    4  A    between atoms: C_3  and  N_24
REMARK    5  A    between atoms: C_5  and  C_7
REMARK    6  A    between atoms: C_5  and  N_14
REMARK    7  A    between atoms: C_16  and  C_23
REMARK    8  A    between atoms: C_19  and  C_21
REMARK    9  A    between atoms: C_19  and  C_22
REMARK                            x       y       z     vdW  Elec       q    Type
REMARK                         _______ _______ _______ _____ _____    ______ ____
ROOT
ATOM      1  C   UNL     1       0.655  -2.037   1.299  0.00  0.00    +0.074 C 
ENDROOT
BRANCH   1   2
ATOM      2  N   UNL     1      -0.753  -2.450   1.248  0.00  0.00    -0.292 NA
ATOM      3  C   UNL     1      -1.525  -1.823   2.331  0.00  0.00    +0.116 C 
ATOM      4  C   UNL     1      -2.995  -2.232   2.205  0.00  0.00    +0.130 C 
ATOM      5  O   UNL     1      -3.092  -3.659   2.227  0.00  0.00    -0.368 OA
ATOM      6  C   UNL     1      -2.352  -4.302   1.186  0.00  0.00    +0.077 C 
ATOM      7  C   UNL     1      -0.876  -3.914   1.301  0.00  0.00    +0.119 C 
ATOM      8  C   UNL     1      -2.494  -5.819   1.320  0.00  0.00    +0.042 C 
ATOM      9  C   UNL     1      -2.893  -3.856  -0.175  0.00  0.00    +0.042 C 
ATOM     10  C   UNL     1      -3.790  -1.647   3.375  0.00  0.00    +0.039 C 
ENDBRANCH   1   2
BRANCH   1  11
ATOM     11  C   UNL     1       1.394  -2.627   0.125  0.00  0.00    -0.018 A 
ATOM     12  C   UNL     1       0.708  -2.955  -1.030  0.00  0.00    +0.006 A 
ATOM     13  C   UNL     1       1.385  -3.495  -2.107  0.00  0.00    +0.000 A 
ATOM     14  C   UNL     1       2.749  -3.707  -2.030  0.00  0.00    +0.001 A 
ATOM     15  C   UNL     1       3.436  -3.379  -0.877  0.00  0.00    +0.015 A 
ATOM     16  C   UNL     1       2.759  -2.834   0.200  0.00  0.00    +0.022 A 
ATOM     17 BR   UNL     1       3.700  -2.378   1.776  0.00  0.00    -0.050 Br
ENDBRANCH   1  11
BRANCH   1  18
ATOM     18  C   UNL     1       0.742  -0.511   1.242  0.00  0.00    -0.053 C 
BRANCH  18  19
ATOM     19  N   UNL     1       2.151  -0.103   1.171  0.00  0.00    +0.381 N 
ATOM     20  H   UNL     1       2.209   0.904   1.134  0.00  0.00    -0.090 HD
ATOM     21  H   UNL     1       2.639  -0.437   1.989  0.00  0.00    -0.090 HD
ATOM     22  H   UNL     1       2.574  -0.495   0.344  0.00  0.00    -0.090 HD
ENDBRANCH  18  19
BRANCH  18  24
ATOM     23  C   UNL     1      -0.019   1.526   0.010  0.00  0.00    +0.002 C 
ATOM     24  C   UNL     1       0.002  -0.004   0.002  0.00  0.00    -0.018 C 
ENDBRANCH  18  24
ENDBRANCH   1  18
TORSDOF 5
