REMARK  Name = ZINC53473226
REMARK  7 active torsions:
REMARK  status: ('A' for Active; 'I' for Inactive)
REMARK    1  A    between atoms: C_1  and  C_2
REMARK    2  A    between atoms: C_5  and  C_8
REMARK    3  A    between atoms: C_8  and  C_29
REMARK    4  A    between atoms: N_11  and  C_15
REMARK    5  A    between atoms: C_15  and  C_16
REMARK    6  A    between atoms: N_18  and  C_19
REMARK    7  A    between atoms: C_19  and  C_23
REMARK                            x       y       z     vdW  Elec       q    Type
REMARK                         _______ _______ _______ _____ _____    ______ ____
ROOT
ATOM      1  C   UNL     1       0.137  -4.284  -0.113  0.00  0.00    +0.135 C 
ATOM      2  C   UNL     1       0.914  -4.811   1.077  0.00  0.00    +0.251 C 
ATOM      3  O   UNL     1       0.658  -4.647   2.250  0.00  0.00    -0.272 OA
ATOM      4  N   UNL     1       1.950  -5.500   0.558  0.00  0.00    -0.215 N 
ATOM      5  C   UNL     1       1.935  -5.482  -0.779  0.00  0.00    +0.310 C 
ATOM      6  O   UNL     1       2.767  -6.035  -1.472  0.00  0.00    -0.252 OA
ATOM      7  N   UNL     1       0.895  -4.784  -1.272  0.00  0.00    -0.281 N 
ATOM      8  C   UNL     1      -1.288  -4.843  -0.119  0.00  0.00    +0.047 C 
ATOM      9  H   UNL     1       0.686  -4.639  -2.208  0.00  0.00    +0.152 HD
ENDROOT
BRANCH   1  14
ATOM     10  C   UNL     1       0.043   1.494  -0.082  0.00  0.00    +0.044 C 
ATOM     11  C   UNL     1       0.067  -0.013  -0.090  0.00  0.00    -0.050 A 
ATOM     12  C   UNL     1       0.112  -0.697  -1.291  0.00  0.00    +0.004 A 
ATOM     13  C   UNL     1       0.134  -2.079  -1.298  0.00  0.00    +0.006 A 
ATOM     14  C   UNL     1       0.113  -2.777  -0.105  0.00  0.00    -0.015 A 
ATOM     15  C   UNL     1       0.070  -2.092   1.096  0.00  0.00    +0.006 A 
ATOM     16  C   UNL     1       0.051  -0.710   1.103  0.00  0.00    +0.004 A 
ENDBRANCH   1  14
BRANCH   4  17
ATOM     17  C   UNL     1       2.967  -6.185   1.361  0.00  0.00    +0.213 C 
BRANCH  17  18
ATOM     18  C   UNL     1       2.526  -7.600   1.629  0.00  0.00    +0.232 C 
ATOM     19  O   UNL     1       1.467  -7.999   1.193  0.00  0.00    -0.274 OA
ATOM     20  N   UNL     1       3.309  -8.424   2.353  0.00  0.00    -0.304 N 
ATOM     21  H   UNL     1       4.189  -8.131   2.638  0.00  0.00    +0.150 HD
BRANCH  20  22
ATOM     22  C   UNL     1       2.832  -9.762   2.712  0.00  0.00    +0.060 C 
ATOM     23  C   UNL     1       3.957 -10.733   3.105  0.00  0.00    +0.030 C 
ATOM     24  C   UNL     1       4.050 -11.106   1.617  0.00  0.00    +0.005 C 
ATOM     25  C   UNL     1       2.579 -10.671   1.497  0.00  0.00    +0.030 C 
BRANCH  22  26
ATOM     26  C   UNL     1       1.687  -9.732   3.692  0.00  0.00    -0.024 A 
ATOM     27  C   UNL     1       0.930 -10.868   3.905  0.00  0.00    +0.006 A 
ATOM     28  C   UNL     1      -0.120 -10.841   4.804  0.00  0.00    +0.000 A 
ATOM     29  C   UNL     1      -0.412  -9.677   5.490  0.00  0.00    +0.000 A 
ATOM     30  C   UNL     1       0.346  -8.541   5.278  0.00  0.00    +0.000 A 
ATOM     31  C   UNL     1       1.399  -8.569   4.382  0.00  0.00    +0.006 A 
ENDBRANCH  22  26
ENDBRANCH  20  22
ENDBRANCH  17  18
ENDBRANCH   4  17
TORSDOF 5
