REMARK  Name = ZINC09936925
REMARK  19 active torsions:
REMARK  status: ('A' for Active; 'I' for Inactive)
REMARK    1  A    between atoms: C_1  and  C_2
REMARK    2  A    between atoms: C_2  and  C_3
REMARK    3  A    between atoms: C_3  and  N_78
REMARK    4  A    between atoms: C_4  and  C_5
REMARK    5  A    between atoms: C_4  and  N_78
REMARK    6  A    between atoms: C_5  and  C_6
REMARK    7  A    between atoms: C_7  and  C_8
REMARK    8  A    between atoms: C_7  and  N_78
REMARK    9  A    between atoms: C_8  and  C_9
REMARK   10  A    between atoms: C_9  and  N_10
REMARK   11  A    between atoms: C_11  and  C_13
REMARK   12  A    between atoms: C_17  and  O_37
REMARK   13  A    between atoms: C_18  and  O_35
REMARK   14  A    between atoms: N_23  and  C_34
REMARK   15  A    between atoms: C_24  and  C_26
REMARK   16  A    between atoms: C_29  and  S_32
REMARK   17  A    between atoms: S_32  and  C_33
REMARK   18  A    between atoms: O_35  and  C_36
REMARK   19  A    between atoms: O_37  and  C_38
REMARK                            x       y       z     vdW  Elec       q    Type
REMARK                         _______ _______ _______ _____ _____    ______ ____
ROOT
ATOM      1  C   UNL     1       2.071   2.058   9.384  0.00  0.00    +0.130 C 
ATOM      2  C   UNL     1       3.514   2.260   9.000  0.00  0.00    -0.018 A 
ATOM      3  C   UNL     1       4.237   1.235   8.431  0.00  0.00    +0.054 A 
ATOM      4  C   UNL     1       5.559   1.440   8.061  0.00  0.00    +0.162 A 
ATOM      5  C   UNL     1       6.159   2.683   8.260  0.00  0.00    +0.162 A 
ATOM      6  C   UNL     1       5.440   3.713   8.837  0.00  0.00    +0.062 A 
ATOM      7  C   UNL     1       4.118   3.500   9.225  0.00  0.00    +0.045 A 
ATOM      8  C   UNL     1       3.327   4.577   9.852  0.00  0.00    +0.247 C 
ATOM      9  O   UNL     1       3.727   5.724   9.831  0.00  0.00    -0.270 OA
ATOM     10  N   UNL     1       2.157   4.276  10.448  0.00  0.00    -0.292 N 
ATOM     11  C   UNL     1       1.737   2.887  10.622  0.00  0.00    +0.122 C 
ATOM     12  C   UNL     1       1.293   5.356  10.928  0.00  0.00    +0.133 C 
ENDROOT
BRANCH  11  13
ATOM     13  C   UNL     1       2.446   2.301  11.816  0.00  0.00    -0.026 A 
ATOM     14  C   UNL     1       3.786   2.575  12.025  0.00  0.00    +0.006 A 
ATOM     15  C   UNL     1       4.437   2.045  13.122  0.00  0.00    +0.015 A 
ATOM     16  C   UNL     1       3.748   1.227  14.009  0.00  0.00    +0.008 A 
ATOM     17  C   UNL     1       2.404   0.950  13.793  0.00  0.00    +0.015 A 
ATOM     18  C   UNL     1       1.757   1.488  12.697  0.00  0.00    +0.006 A 
BRANCH  16  19
ATOM     19  S   UNL     1       4.577   0.543  15.405  0.00  0.00    -0.129 S 
ATOM     20  C   UNL     1       6.272   1.174  15.262  0.00  0.00    +0.090 C 
ENDBRANCH  16  19
ENDBRANCH  11  13
BRANCH   1  22
ATOM     21  N   UNL     1       1.301   1.889   7.040  0.00  0.00    -0.315 N 
ATOM     22  C   UNL     1       1.185   2.486   8.243  0.00  0.00    +0.223 C 
ATOM     23  O   UNL     1       0.369   3.367   8.406  0.00  0.00    -0.275 OA
ATOM     24  H   UNL     1       1.955   1.184   6.909  0.00  0.00    +0.149 HD
BRANCH  21  25
ATOM     25  C   UNL     1       0.440   2.305   5.930  0.00  0.00    +0.102 C 
BRANCH  25  26
ATOM     26  C   UNL     1       0.773   1.476   4.688  0.00  0.00    +0.000 C 
BRANCH  26  27
ATOM     27  C   UNL     1      -0.126   1.911   3.529  0.00  0.00    -0.077 C 
BRANCH  27  28
ATOM     28  N   UNL     1       0.112   1.010   2.381  0.00  0.00    +0.380 N 
ATOM     29  H   UNL     1       0.183   0.045   2.724  0.00  0.00    -0.082 HD
BRANCH  28  30
ATOM     30  C   UNL     1       1.375   1.374   1.706  0.00  0.00    -0.079 C 
BRANCH  30  32
ATOM     31  C   UNL     1       3.027   0.650  -0.022  0.00  0.00    +0.002 C 
ATOM     32  C   UNL     1       1.710   0.298   0.671  0.00  0.00    -0.022 C 
ENDBRANCH  30  32
ENDBRANCH  28  30
BRANCH  28  33
ATOM     33  C   UNL     1      -1.014   1.098   1.428  0.00  0.00    -0.079 C 
BRANCH  33  34
ATOM     34  C   UNL     1      -2.222   0.372   2.025  0.00  0.00    -0.022 C 
ATOM     35  C   UNL     1      -3.398   0.452   1.050  0.00  0.00    +0.002 C 
ENDBRANCH  33  34
ENDBRANCH  28  33
ENDBRANCH  27  28
ENDBRANCH  26  27
ENDBRANCH  25  26
ENDBRANCH  21  25
ENDBRANCH   1  22
BRANCH   5  36
ATOM     36  O   UNL     1       7.452   2.882   7.888  0.00  0.00    -0.491 OA
ATOM     37  C   UNL     1       8.003   4.180   8.122  0.00  0.00    +0.277 C 
ENDBRANCH   5  36
BRANCH   4  38
ATOM     38  O   UNL     1       6.271   0.427   7.504  0.00  0.00    -0.491 OA
ATOM     39  C   UNL     1       5.596  -0.820   7.329  0.00  0.00    +0.277 C 
ENDBRANCH   4  38
TORSDOF 13
