REMARK  Name = ZINC39711186
REMARK  12 active torsions:
REMARK  status: ('A' for Active; 'I' for Inactive)
REMARK    1  A    between atoms: C_1  and  C_2
REMARK    2  A    between atoms: C_5  and  C_40
REMARK    3  A    between atoms: C_6  and  N_8
REMARK    4  A    between atoms: N_11  and  C_14
REMARK    5  A    between atoms: C_14  and  C_16
REMARK    6  A    between atoms: C_14  and  C_30
REMARK    7  A    between atoms: C_21  and  C_29
REMARK    8  A    between atoms: C_22  and  C_28
REMARK    9  A    between atoms: N_35  and  C_36
REMARK   10  A    between atoms: C_36  and  C_37
REMARK   11  A    between atoms: C_36  and  C_38
REMARK   12  A    between atoms: C_36  and  C_39
REMARK                            x       y       z     vdW  Elec       q    Type
REMARK                         _______ _______ _______ _____ _____    ______ ____
ROOT
ATOM      1  C   UNL     1      -1.357  -5.740   5.734  0.00  0.00    -0.009 C 
ENDROOT
BRANCH   1   2
ATOM      2  C   UNL     1      -2.369  -6.836   6.071  0.00  0.00    +0.088 C 
ATOM      3  C   UNL     1      -1.854  -8.139   5.492  0.00  0.00    -0.006 C 
ATOM      4  C   UNL     1      -1.658  -9.174   6.358  0.00  0.00    -0.007 A 
ATOM      5  C   UNL     1      -1.163 -10.467   5.884  0.00  0.00    +0.013 A 
ATOM      6  C   UNL     1      -0.983 -11.469   6.783  0.00  0.00    -0.047 A 
ATOM      7  C   UNL     1      -1.261 -11.288   8.138  0.00  0.00    -0.046 A 
ATOM      8  C   UNL     1      -1.722 -10.113   8.641  0.00  0.00    +0.027 A 
ATOM      9  C   UNL     1      -1.942  -9.011   7.794  0.00  0.00    +0.041 A 
ATOM     10  N   UNL     1      -2.395  -7.863   8.299  0.00  0.00    -0.285 N 
ATOM     11  C   UNL     1      -2.624  -6.791   7.561  0.00  0.00    +0.223 C 
ATOM     12  O   UNL     1      -3.037  -5.771   8.079  0.00  0.00    -0.275 OA
ATOM     13  C   UNL     1      -1.040 -12.442   9.082  0.00  0.00    +0.044 C 
ATOM     14  C   UNL     1      -0.474 -12.805   6.306  0.00  0.00    +0.044 C 
ATOM     15  H   UNL     1      -2.565  -7.813   9.253  0.00  0.00    +0.155 HD
ENDBRANCH   1   2
BRANCH   1  19
ATOM     16  N   UNL     1      -2.943  -1.868   5.699  0.00  0.00    -0.333 N 
ATOM     17  C   UNL     1      -1.537  -2.010   6.107  0.00  0.00    +0.086 C 
ATOM     18  C   UNL     1      -1.024  -3.369   5.617  0.00  0.00    -0.059 C 
ATOM     19  N   UNL     1      -1.909  -4.431   6.110  0.00  0.00    +0.387 N 
ATOM     20  C   UNL     1      -3.247  -4.280   5.525  0.00  0.00    -0.059 C 
ATOM     21  C   UNL     1      -3.871  -2.964   6.015  0.00  0.00    +0.086 C 
ATOM     22  H   UNL     1      -1.974  -4.373   7.116  0.00  0.00    -0.081 HD
BRANCH  16  28
ATOM     23  C   UNL     1      -4.802   2.678   5.887  0.00  0.00    +0.044 C 
ATOM     24  C   UNL     1      -4.292   1.498   5.100  0.00  0.00    -0.049 A 
ATOM     25  C   UNL     1      -4.261   1.550   3.719  0.00  0.00    +0.004 A 
ATOM     26  C   UNL     1      -3.795   0.469   2.993  0.00  0.00    +0.005 A 
ATOM     27  C   UNL     1      -3.356  -0.666   3.647  0.00  0.00    -0.029 A 
ATOM     28  C   UNL     1      -3.385  -0.721   5.034  0.00  0.00    +0.033 A 
ATOM     29  C   UNL     1      -3.850   0.368   5.760  0.00  0.00    +0.026 A 
ATOM     30  C   UNL     1      -2.848  -1.843   2.855  0.00  0.00    +0.045 C 
ENDBRANCH  16  28
ENDBRANCH   1  19
BRANCH   1  31
ATOM     31  C   UNL     1      -0.060  -5.988   6.507  0.00  0.00    +0.205 C 
ATOM     32  N   UNL     1      -0.246  -5.683   7.932  0.00  0.00    -0.152 NA
ATOM     33  N   UNL     1       0.523  -4.773   8.249  0.00  0.00    -0.070 NA
ATOM     34  N   UNL     1       1.308  -4.331   7.184  0.00  0.00    -0.179 N 
ATOM     35  N   UNL     1       0.994  -5.053   6.060  0.00  0.00    -0.183 NA
ATOM     36  H   UNL     1       1.972  -3.626   7.231  0.00  0.00    +0.191 HD
BRANCH  35  37
ATOM     37  C   UNL     1       2.165  -5.782   5.555  0.00  0.00    +0.035 C 
ATOM     38  C   UNL     1       1.739  -6.697   4.404  0.00  0.00    +0.029 C 
ATOM     39  C   UNL     1       3.210  -4.784   5.053  0.00  0.00    +0.029 C 
ATOM     40  C   UNL     1       2.765  -6.626   6.681  0.00  0.00    +0.029 C 
ENDBRANCH  35  37
ENDBRANCH   1  31
TORSDOF 5
