REMARK  Name = ZINC08881073
REMARK  12 active torsions:
REMARK  status: ('A' for Active; 'I' for Inactive)
REMARK    1  A    between atoms: C_1  and  C_2
REMARK    2  A    between atoms: C_2  and  C_3
REMARK    3  A    between atoms: C_3  and  N_71
REMARK    4  A    between atoms: C_9  and  N_15
REMARK    5  A    between atoms: C_10  and  C_11
REMARK    6  A    between atoms: C_11  and  O_13
REMARK    7  A    between atoms: O_13  and  C_14
REMARK    8  A    between atoms: C_16  and  C_18
REMARK    9  A    between atoms: C_21  and  S_24
REMARK   10  A    between atoms: S_24  and  N_27
REMARK   11  A    between atoms: C_29  and  C_36
REMARK   12  A    between atoms: C_32  and  C_35
REMARK                            x       y       z     vdW  Elec       q    Type
REMARK                         _______ _______ _______ _____ _____    ______ ____
ROOT
ATOM      1  N   UNL     1      -1.999   4.816   8.603  0.00  0.00    -0.275 N 
ATOM      2  C   UNL     1      -2.778   4.367   7.600  0.00  0.00    +0.249 C 
ATOM      3  O   UNL     1      -3.918   4.775   7.486  0.00  0.00    -0.270 OA
ATOM      4  H   UNL     1      -1.090   4.491   8.694  0.00  0.00    +0.156 HD
ENDROOT
BRANCH   1  10
ATOM      5  C   UNL     1      -2.967   9.205  12.889  0.00  0.00    -0.074 C 
ATOM      6  C   UNL     1      -2.063   8.000  12.611  0.00  0.00    +0.018 C 
ATOM      7  C   UNL     1      -2.607   7.272  11.387  0.00  0.00    -0.025 A 
ATOM      8  C   UNL     1      -3.873   7.497  10.971  0.00  0.00    -0.021 A 
ATOM      9  S   UNL     1      -4.069   6.470   9.544  0.00  0.00    -0.079 S 
ATOM     10  C   UNL     1      -2.496   5.742   9.505  0.00  0.00    +0.086 A 
ATOM     11  C   UNL     1      -1.853   6.318  10.595  0.00  0.00    +0.091 A 
ATOM     12  C   UNL     1      -4.865   8.424  11.602  0.00  0.00    -0.035 C 
ATOM     13  N   UNL     1      -4.373   8.757  12.961  0.00  0.00    +0.383 N 
ATOM     14  H   UNL     1      -4.427   7.919  13.551  0.00  0.00    -0.081 HD
BRANCH  11  15
ATOM     15  C   UNL     1      -0.469   5.977  10.929  0.00  0.00    +0.342 C 
ATOM     16  O   UNL     1       0.448   6.618  10.451  0.00  0.00    -0.245 OA
BRANCH  15  17
ATOM     17  O   UNL     1      -0.211   4.951  11.766  0.00  0.00    -0.464 OA
ATOM     18  C   UNL     1       1.184   4.669  12.052  0.00  0.00    +0.280 C 
ENDBRANCH  15  17
ENDBRANCH  11  15
BRANCH  13  19
ATOM     19  C   UNL     1      -5.212   9.819  13.556  0.00  0.00    -0.079 C 
BRANCH  19  21
ATOM     20  C   UNL     1      -7.562  10.537  14.010  0.00  0.00    +0.002 C 
ATOM     21  C   UNL     1      -6.687   9.454  13.374  0.00  0.00    -0.022 C 
ENDBRANCH  19  21
ENDBRANCH  13  19
ENDBRANCH   1  10
BRANCH   2  22
ATOM     22  C   UNL     1      -2.248   3.379   6.637  0.00  0.00    +0.037 A 
ATOM     23  C   UNL     1      -3.052   2.912   5.597  0.00  0.00    +0.015 A 
ATOM     24  C   UNL     1      -2.551   1.989   4.702  0.00  0.00    +0.029 A 
ATOM     25  C   UNL     1      -1.253   1.526   4.835  0.00  0.00    +0.106 A 
ATOM     26  C   UNL     1      -0.452   1.981   5.867  0.00  0.00    +0.029 A 
ATOM     27  C   UNL     1      -0.940   2.908   6.766  0.00  0.00    +0.015 A 
BRANCH  25  28
ATOM     28  S   UNL     1      -0.621   0.347   3.688  0.00  0.00    +0.061 S 
ATOM     29  O   UNL     1      -1.744  -0.332   3.144  0.00  0.00    -0.153 OA
ATOM     30  O   UNL     1       0.435  -0.336   4.349  0.00  0.00    -0.153 OA
BRANCH  28  31
ATOM     31  N   UNL     1       0.069   1.195   2.444  0.00  0.00    -0.176 NA
ATOM     32  C   UNL     1       1.486   1.577   2.494  0.00  0.00    +0.112 C 
ATOM     33  C   UNL     1       2.175   1.082   1.218  0.00  0.00    +0.002 C 
ATOM     34  C   UNL     1       1.423   1.616  -0.003  0.00  0.00    +0.009 C 
ATOM     35  C   UNL     1      -0.013   1.086   0.008  0.00  0.00    +0.002 C 
ATOM     36  C   UNL     1      -0.726   1.581   1.270  0.00  0.00    +0.112 C 
ATOM     37  C   UNL     1      -0.754   1.593  -1.230  0.00  0.00    +0.009 C 
ATOM     38  C   UNL     1       3.619   1.586   1.189  0.00  0.00    +0.009 C 
ENDBRANCH  28  31
ENDBRANCH  25  28
ENDBRANCH   2  22
TORSDOF 8
