REMARK  Name = ZINC61455219
REMARK  5 active torsions:
REMARK  status: ('A' for Active; 'I' for Inactive)
REMARK    1  A    between atoms: C_3  and  N_18
REMARK    2  A    between atoms: C_6  and  C_7
REMARK    3  A    between atoms: C_7  and  S_8
REMARK    4  A    between atoms: S_8  and  C_9
REMARK    5  A    between atoms: C_9  and  C_10
REMARK                            x       y       z     vdW  Elec       q    Type
REMARK                         _______ _______ _______ _____ _____    ______ ____
ROOT
ATOM      1  C   UNL     1      -3.378  -2.001  -1.514  0.00  0.00    +0.145 C 
ENDROOT
BRANCH   1   2
ATOM      2  C   UNL     1      -3.937  -2.318  -2.877  0.00  0.00    +0.146 A 
ATOM      3  N   UNL     1      -4.763  -1.471  -3.464  0.00  0.00    -0.199 NA
ATOM      4  C   UNL     1      -5.259  -1.748  -4.668  0.00  0.00    +0.217 A 
ATOM      5  N   UNL     1      -4.922  -2.878  -5.279  0.00  0.00    -0.181 NA
ATOM      6  C   UNL     1      -4.091  -3.728  -4.686  0.00  0.00    +0.217 A 
ATOM      7  N   UNL     1      -3.595  -3.442  -3.484  0.00  0.00    -0.199 NA
ATOM      8  N   UNL     1      -3.737  -4.903  -5.316  0.00  0.00    -0.327 N 
ATOM      9  N   UNL     1      -6.122  -0.862  -5.281  0.00  0.00    -0.327 N 
ATOM     10  H   UNL     1      -4.096  -5.110  -6.194  0.00  0.00    +0.145 HD
ATOM     11  H   UNL     1      -3.131  -5.523  -4.882  0.00  0.00    +0.145 HD
ATOM     12  H   UNL     1      -6.368  -0.037  -4.834  0.00  0.00    +0.145 HD
ATOM     13  H   UNL     1      -6.482  -1.065  -6.158  0.00  0.00    +0.145 HD
ENDBRANCH   1   2
BRANCH   1  14
ATOM     14  S   UNL     1      -1.828  -1.075  -1.697  0.00  0.00    -0.148 S 
BRANCH  14  15
ATOM     15  C   UNL     1      -1.293  -0.775   0.010  0.00  0.00    +0.104 C 
BRANCH  15  21
ATOM     16  C   UNL     1      -0.017   1.378   0.010  0.00  0.00    +0.006 A 
ATOM     17  C   UNL     1       1.171   2.086   0.002  0.00  0.00    +0.033 A 
ATOM     18  C   UNL     1       2.377   1.411  -0.013  0.00  0.00    +0.126 A 
ATOM     19  C   UNL     1       2.396   0.029  -0.020  0.00  0.00    +0.033 A 
ATOM     20  C   UNL     1       1.208  -0.679  -0.012  0.00  0.00    +0.006 A 
ATOM     21  C   UNL     1       0.002  -0.004   0.002  0.00  0.00    -0.037 A 
BRANCH  18  22
ATOM     22  N   UNL     1       3.649   2.168  -0.022  0.00  0.00    +0.056 N 
ATOM     23  O   UNL     1       3.633   3.377  -0.016  0.00  0.00    -0.126 OA
ATOM     24  O   UNL     1       4.704   1.578  -0.035  0.00  0.00    -0.126 OA
ENDBRANCH  18  22
ENDBRANCH  15  21
ENDBRANCH  14  15
ENDBRANCH   1  14
TORSDOF 5
