REMARK  Name = ZINC22312860
REMARK  12 active torsions:
REMARK  status: ('A' for Active; 'I' for Inactive)
REMARK    1  A    between atoms: C_1  and  C_2
REMARK    2  A    between atoms: C_5  and  N_9
REMARK    3  A    between atoms: C_7  and  C_8
REMARK    4  A    between atoms: C_10  and  C_28
REMARK    5  A    between atoms: C_13  and  S_14
REMARK    6  A    between atoms: S_14  and  C_15
REMARK    7  A    between atoms: C_15  and  C_17
REMARK    8  A    between atoms: C_15  and  C_18
REMARK    9  A    between atoms: N_23  and  C_24
REMARK   10  A    between atoms: C_24  and  C_25
REMARK   11  A    between atoms: C_25  and  C_26
REMARK   12  A    between atoms: C_25  and  C_27
REMARK                            x       y       z     vdW  Elec       q    Type
REMARK                         _______ _______ _______ _____ _____    ______ ____
ROOT
ATOM      1  N   UNL     1      -3.164  -5.536  -1.185  0.00  0.00    -0.270 N 
ATOM      2  C   UNL     1      -2.469  -6.713  -1.013  0.00  0.00    +0.169 A 
ATOM      3  N   UNL     1      -1.304  -6.400  -0.494  0.00  0.00    -0.128 NA
ATOM      4  N   UNL     1      -1.221  -5.127  -0.336  0.00  0.00    -0.122 NA
ATOM      5  C   UNL     1      -2.333  -4.548  -0.737  0.00  0.00    +0.197 A 
ENDROOT
BRANCH   1  10
ATOM      6  C   UNL     1      -8.393  -4.922  -3.306  0.00  0.00    +0.044 C 
ATOM      7  C   UNL     1      -7.004  -5.084  -2.743  0.00  0.00    -0.047 A 
ATOM      8  C   UNL     1      -5.984  -5.559  -3.548  0.00  0.00    +0.005 A 
ATOM      9  C   UNL     1      -4.711  -5.710  -3.034  0.00  0.00    +0.026 A 
ATOM     10  C   UNL     1      -4.456  -5.384  -1.709  0.00  0.00    +0.051 A 
ATOM     11  C   UNL     1      -5.482  -4.912  -0.902  0.00  0.00    +0.030 A 
ATOM     12  C   UNL     1      -6.753  -4.759  -1.423  0.00  0.00    -0.046 A 
ATOM     13  C   UNL     1      -7.867  -4.242  -0.550  0.00  0.00    +0.044 C 
ENDBRANCH   1  10
BRANCH   2  14
ATOM     14  C   UNL     1      -2.944  -8.071  -1.348  0.00  0.00    +0.022 A 
ATOM     15  C   UNL     1      -4.300  -8.319  -1.596  0.00  0.00    +0.031 A 
ATOM     16  C   UNL     1      -4.699  -9.601  -1.909  0.00  0.00    +0.111 A 
ATOM     17  N   UNL     1      -3.824 -10.588  -1.969  0.00  0.00    -0.263 NA
ATOM     18  C   UNL     1      -2.538 -10.399  -1.738  0.00  0.00    +0.111 A 
ATOM     19  C   UNL     1      -2.051  -9.148  -1.422  0.00  0.00    +0.031 A 
ENDBRANCH   2  14
BRANCH   5  20
ATOM     20  S   UNL     1      -2.680  -2.821  -0.709  0.00  0.00    -0.073 S 
BRANCH  20  21
ATOM     21  C   UNL     1      -1.135  -2.201   0.001  0.00  0.00    +0.137 C 
ATOM     22  C   UNL     1      -0.989  -2.717   1.434  0.00  0.00    +0.029 C 
BRANCH  21  23
ATOM     23  C   UNL     1      -1.156  -0.694   0.009  0.00  0.00    +0.233 C 
ATOM     24  O   UNL     1      -2.214  -0.102   0.023  0.00  0.00    -0.274 OA
ATOM     25  N   UNL     1       0.002  -0.004   0.002  0.00  0.00    -0.239 N 
ATOM     26  C   UNL     1      -0.016   1.344   0.009  0.00  0.00    +0.306 C 
ATOM     27  O   UNL     1      -1.077   1.937   0.018  0.00  0.00    -0.252 OA
ATOM     28  N   UNL     1       1.142   2.033   0.002  0.00  0.00    -0.299 N 
ATOM     29  H   UNL     1       0.962  -0.541  -0.010  0.00  0.00    +0.159 HD
ATOM     30  H   UNL     1       2.102   1.496  -0.010  0.00  0.00    +0.150 HD
BRANCH  28  31
ATOM     31  C   UNL     1       1.122   3.498   0.010  0.00  0.00    +0.108 C 
BRANCH  31  32
ATOM     32  C   UNL     1       2.557   4.028  -0.001  0.00  0.00    -0.000 C 
ATOM     33  C   UNL     1       3.234   3.639  -1.317  0.00  0.00    +0.009 C 
ATOM     34  C   UNL     1       2.540   5.552   0.133  0.00  0.00    +0.009 C 
ENDBRANCH  31  32
ENDBRANCH  28  31
ENDBRANCH  21  23
ENDBRANCH  20  21
ENDBRANCH   5  20
TORSDOF 7
