REMARK  Name = ZINC09963572
REMARK  10 active torsions:
REMARK  status: ('A' for Active; 'I' for Inactive)
REMARK    1  A    between atoms: C_1  and  O_2
REMARK    2  A    between atoms: O_2  and  C_3
REMARK    3  A    between atoms: C_6  and  N_31
REMARK    4  A    between atoms: C_8  and  N_9
REMARK    5  A    between atoms: C_10  and  C_12
REMARK    6  A    between atoms: C_12  and  O_13
REMARK    7  A    between atoms: O_13  and  C_14
REMARK    8  A    between atoms: C_14  and  C_16
REMARK    9  A    between atoms: N_19  and  C_22
REMARK   10  A    between atoms: C_25  and  C_27
REMARK                            x       y       z     vdW  Elec       q    Type
REMARK                         _______ _______ _______ _____ _____    ______ ____
ROOT
ATOM      1  C   UNL     1      -0.181   1.170   2.384  0.00  0.00    +0.311 C 
ATOM      2  O   UNL     1       0.810   0.480   2.418  0.00  0.00    -0.251 OA
ENDROOT
BRANCH   1   3
ATOM      3  C   UNL     1      -0.834   1.616   3.667  0.00  0.00    +0.101 C 
ATOM      4  C   UNL     1      -0.842   3.146   3.732  0.00  0.00    +0.033 C 
ATOM      5  C   UNL     1      -1.449   3.591   5.064  0.00  0.00    +0.107 C 
ATOM      6  N   UNL     1      -0.660   3.040   6.173  0.00  0.00    -0.317 N 
ATOM      7  C   UNL     1      -0.677   1.571   6.158  0.00  0.00    +0.107 C 
ATOM      8  C   UNL     1      -0.046   1.065   4.859  0.00  0.00    +0.033 C 
BRANCH   6   9
ATOM      9  C   UNL     1      -1.106   3.531   7.394  0.00  0.00    +0.099 A 
ATOM     10  C   UNL     1      -1.162   4.905   7.606  0.00  0.00    +0.042 A 
ATOM     11  C   UNL     1      -1.608   5.380   8.826  0.00  0.00    +0.017 A 
ATOM     12  C   UNL     1      -1.984   4.462   9.798  0.00  0.00    +0.071 A 
ATOM     13  C   UNL     1      -1.902   3.112   9.520  0.00  0.00    +0.096 A 
ATOM     14  N   UNL     1      -1.474   2.610   8.331  0.00  0.00    -0.349 N 
ATOM     15  H   UNL     1      -1.432   1.600   8.149  0.00  0.00    +0.167 HD
BRANCH  12  16
ATOM     16  C   UNL     1      -2.476   4.934  11.141  0.00  0.00    +0.419 C 
ATOM     17  F   UNL     1      -3.864   5.099  11.098  0.00  0.00    -0.166 F 
ATOM     18  F   UNL     1      -2.149   3.986  12.117  0.00  0.00    -0.166 F 
ATOM     19  F   UNL     1      -1.870   6.155  11.457  0.00  0.00    -0.166 F 
ENDBRANCH  12  16
ENDBRANCH   6   9
ENDBRANCH   1   3
BRANCH   1  20
ATOM     20  O   UNL     1      -0.702   1.538   1.203  0.00  0.00    -0.455 OA
BRANCH  20  21
ATOM     21  C   UNL     1      -0.021   1.072   0.008  0.00  0.00    +0.328 C 
BRANCH  21  23
ATOM     22  N   UNL     1      -0.288   1.272  -2.443  0.00  0.00    -0.280 N 
ATOM     23  C   UNL     1      -0.744   1.582  -1.213  0.00  0.00    +0.255 C 
ATOM     24  O   UNL     1      -1.734   2.270  -1.088  0.00  0.00    -0.272 OA
ATOM     25  H   UNL     1       0.547   0.790  -2.544  0.00  0.00    +0.155 HD
BRANCH  22  31
ATOM     26  C   UNL     1      -0.381   1.808  -4.802  0.00  0.00    +0.141 A 
ATOM     27  C   UNL     1      -1.112   2.179  -5.919  0.00  0.00    +0.050 A 
ATOM     28  C   UNL     1      -2.475   2.388  -5.816  0.00  0.00    +0.036 A 
ATOM     29  C   UNL     1      -3.112   2.228  -4.599  0.00  0.00    +0.128 A 
ATOM     30  C   UNL     1      -2.391   1.853  -3.482  0.00  0.00    +0.059 A 
ATOM     31  C   UNL     1      -1.023   1.647  -3.576  0.00  0.00    +0.078 A 
BRANCH  29  32
ATOM     32  N   UNL     1      -4.572   2.452  -4.495  0.00  0.00    +0.056 N 
ATOM     33  O   UNL     1      -5.209   2.778  -5.481  0.00  0.00    -0.126 OA
ATOM     34  O   UNL     1      -5.135   2.312  -3.425  0.00  0.00    -0.126 OA
ENDBRANCH  29  32
BRANCH  26  36
ATOM     35  C   UNL     1       1.550   1.786  -6.191  0.00  0.00    +0.277 C 
ATOM     36  O   UNL     1       0.959   1.603  -4.902  0.00  0.00    -0.493 OA
ENDBRANCH  26  36
ENDBRANCH  22  31
ENDBRANCH  21  23
ENDBRANCH  20  21
ENDBRANCH   1  20
TORSDOF 9
