REMARK  Name = ZINC19451294
REMARK  7 active torsions:
REMARK  status: ('A' for Active; 'I' for Inactive)
REMARK    1  A    between atoms: C_1  and  C_2
REMARK    2  A    between atoms: C_2  and  C_3
REMARK    3  A    between atoms: C_2  and  C_4
REMARK    4  A    between atoms: C_7  and  C_28
REMARK    5  A    between atoms: C_12  and  C_14
REMARK    6  A    between atoms: N_19  and  C_20
REMARK    7  A    between atoms: C_20  and  C_21
REMARK                            x       y       z     vdW  Elec       q    Type
REMARK                         _______ _______ _______ _____ _____    ______ ____
ROOT
ATOM      1  C   UNL     1      -6.536  -1.042  -3.820  0.00  0.00    +0.077 C 
ATOM      2  C   UNL     1      -5.835  -2.266  -3.221  0.00  0.00    +0.058 C 
ATOM      3  C   UNL     1      -4.327  -2.007  -3.125  0.00  0.00    +0.214 C 
ATOM      4  N   UNL     1      -4.108  -0.713  -2.474  0.00  0.00    -0.239 N 
ATOM      5  C   UNL     1      -5.056   0.256  -2.381  0.00  0.00    +0.118 A 
ATOM      6  C   UNL     1      -4.519   1.303  -1.718  0.00  0.00    +0.066 A 
ATOM      7  C   UNL     1      -3.195   0.969  -1.402  0.00  0.00    +0.051 A 
ATOM      8  N   UNL     1      -2.953  -0.238  -1.854  0.00  0.00    -0.176 NA
ATOM      9  N   UNL     1      -6.341   0.103  -2.909  0.00  0.00    -0.326 N 
ATOM     10  H   UNL     1      -7.181   0.775  -2.682  0.00  0.00    +0.148 HD
ENDROOT
BRANCH   7  11
ATOM     11  C   UNL     1      -2.217   1.847  -0.663  0.00  0.00    -0.017 C 
ATOM     12  C   UNL     1      -1.587   1.061   0.506  0.00  0.00    -0.011 C 
ATOM     13  C   UNL     1      -0.110   1.546   0.499  0.00  0.00    -0.020 C 
ATOM     14  C   UNL     1       0.150   1.720  -1.018  0.00  0.00    -0.078 C 
ATOM     15  N   UNL     1      -1.120   2.244  -1.564  0.00  0.00    +0.386 N 
ATOM     16  H   UNL     1      -1.074   3.341  -1.629  0.00  0.00    -0.081 HD
BRANCH  15  17
ATOM     17  C   UNL     1      -1.351   1.746  -2.927  0.00  0.00    -0.072 C 
BRANCH  17  18
ATOM     18  C   UNL     1      -0.453   2.505  -3.906  0.00  0.00    +0.000 C 
ATOM     19  C   UNL     1      -0.708   2.043  -5.361  0.00  0.00    +0.032 C 
ATOM     20  C   UNL     1       0.699   1.970  -5.986  0.00  0.00    +0.160 C 
ATOM     21  O   UNL     1       1.634   2.402  -4.984  0.00  0.00    -0.380 OA
ATOM     22  C   UNL     1       1.035   2.125  -3.700  0.00  0.00    +0.161 C 
ENDBRANCH  17  18
ENDBRANCH  15  17
ENDBRANCH   7  11
BRANCH   3  23
ATOM     23  C   UNL     1      -3.668  -3.114  -2.298  0.00  0.00    +0.412 C 
ATOM     24  F   UNL     1      -4.231  -3.136  -1.017  0.00  0.00    -0.168 F 
ATOM     25  F   UNL     1      -3.878  -4.349  -2.921  0.00  0.00    -0.168 F 
ATOM     26  F   UNL     1      -2.295  -2.868  -2.200  0.00  0.00    -0.168 F 
ENDBRANCH   3  23
BRANCH   1  28
ATOM     27  C   UNL     1      -8.728  -0.105  -4.569  0.00  0.00    +0.009 C 
ATOM     28  C   UNL     1      -8.031  -1.329  -3.971  0.00  0.00    +0.003 C 
ATOM     29  C   UNL     1      -8.229  -2.532  -4.897  0.00  0.00    +0.009 C 
ENDBRANCH   1  28
TORSDOF 5
