REMARK  Name = ZINC33271540
REMARK  7 active torsions:
REMARK  status: ('A' for Active; 'I' for Inactive)
REMARK    1  A    between atoms: C_1  and  C_2
REMARK    2  A    between atoms: C_2  and  C_3
REMARK    3  A    between atoms: C_3  and  O_4
REMARK    4  A    between atoms: O_4  and  C_5
REMARK    5  A    between atoms: C_9  and  C_11
REMARK    6  A    between atoms: C_19  and  C_32
REMARK    7  A    between atoms: C_27  and  C_31
REMARK                            x       y       z     vdW  Elec       q    Type
REMARK                         _______ _______ _______ _____ _____    ______ ____
ROOT
ATOM      1  C   UNL     1      -2.562  -4.208   0.028  0.00  0.00    +0.063 C 
ATOM      2  C   UNL     1      -1.411  -4.934  -0.675  0.00  0.00    +0.109 C 
ATOM      3  C   UNL     1      -0.079  -4.397  -0.234  0.00  0.00    +0.219 C 
ATOM      4  O   UNL     1       0.843  -5.168  -0.075  0.00  0.00    -0.275 OA
ATOM      5  N   UNL     1       0.123  -3.081  -0.009  0.00  0.00    -0.270 N 
ATOM      6  C   UNL     1      -0.988  -2.239  -0.006  0.00  0.00    +0.135 A 
ATOM      7  C   UNL     1      -2.266  -2.729   0.017  0.00  0.00    +0.023 A 
ATOM      8  C   UNL     1      -3.139  -1.651   0.028  0.00  0.00    +0.066 A 
ATOM      9  N   UNL     1      -2.430  -0.546   0.021  0.00  0.00    -0.168 NA
ATOM     10  N   UNL     1      -1.069  -0.890   0.007  0.00  0.00    -0.193 N 
ATOM     11  C   UNL     1       0.002  -0.004   0.002  0.00  0.00    +0.196 A 
ATOM     12  N   UNL     1       1.287  -0.266  -0.012  0.00  0.00    -0.221 NA
ATOM     13  C   UNL     1       2.227   0.704  -0.015  0.00  0.00    +0.081 A 
ATOM     14  C   UNL     1       3.633   0.557  -0.030  0.00  0.00    +0.029 A 
ATOM     15  C   UNL     1       4.451   1.656  -0.032  0.00  0.00    +0.005 A 
ATOM     16  C   UNL     1       3.936   2.944  -0.021  0.00  0.00    -0.049 A 
ATOM     17  C   UNL     1       2.565   3.125  -0.006  0.00  0.00    +0.020 A 
ATOM     18  C   UNL     1       1.737   2.030  -0.004  0.00  0.00    +0.041 A 
ATOM     19  S   UNL     1      -0.022   1.783   0.012  0.00  0.00    -0.048 S 
ATOM     20  C   UNL     1       4.860   4.135  -0.024  0.00  0.00    +0.044 C 
ATOM     21  C   UNL     1      -4.644  -1.733   0.044  0.00  0.00    +0.068 C 
ATOM     22  H   UNL     1       1.141  -2.702   0.164  0.00  0.00    +0.156 HD
ENDROOT
BRANCH   1  27
ATOM     23  C   UNL     1      -3.957  -5.711   3.202  0.00  0.00    +0.121 A 
ATOM     24  C   UNL     1      -2.878  -5.581   4.064  0.00  0.00    +0.045 A 
ATOM     25  C   UNL     1      -1.704  -5.007   3.617  0.00  0.00    +0.004 A 
ATOM     26  C   UNL     1      -1.602  -4.564   2.312  0.00  0.00    +0.004 A 
ATOM     27  C   UNL     1      -2.676  -4.692   1.450  0.00  0.00    -0.036 A 
ATOM     28  C   UNL     1      -3.855  -5.260   1.894  0.00  0.00    +0.050 A 
BRANCH  23  29
ATOM     29  O   UNL     1      -5.114  -6.274   3.639  0.00  0.00    -0.492 OA
BRANCH  29  30
ATOM     30  C   UNL     1      -5.149  -6.710   4.999  0.00  0.00    +0.229 C 
BRANCH  30  32
ATOM     31  C   UNL     1      -6.560  -7.780   6.763  0.00  0.00    +0.007 C 
ATOM     32  C   UNL     1      -6.522  -7.313   5.306  0.00  0.00    +0.038 C 
ENDBRANCH  30  32
ENDBRANCH  29  30
ENDBRANCH  23  29
ENDBRANCH   1  27
TORSDOF 4
