REMARK  Name = ZINC12090163
REMARK  10 active torsions:
REMARK  status: ('A' for Active; 'I' for Inactive)
REMARK    1  A    between atoms: C_1  and  C_2
REMARK    2  A    between atoms: C_2  and  N_50
REMARK    3  A    between atoms: C_3  and  C_17
REMARK    4  A    between atoms: C_5  and  C_12
REMARK    5  A    between atoms: C_8  and  C_9
REMARK    6  A    between atoms: C_8  and  C_10
REMARK    7  A    between atoms: C_10  and  O_11
REMARK    8  A    between atoms: C_12  and  N_52
REMARK    9  A    between atoms: C_13  and  C_14
REMARK   10  A    between atoms: C_13  and  N_52
REMARK                            x       y       z     vdW  Elec       q    Type
REMARK                         _______ _______ _______ _____ _____    ______ ____
ROOT
ATOM      1  C   UNL     1       0.423  -0.178  -0.239  0.00  0.00    -0.035 C 
ATOM      2  C   UNL     1       1.760  -0.272  -0.997  0.00  0.00    -0.039 C 
ATOM      3  C   UNL     1       2.227   1.192  -1.175  0.00  0.00    -0.010 C 
ATOM      4  C   UNL     1       1.463   1.938  -0.052  0.00  0.00    -0.044 C 
ATOM      5  C   UNL     1       2.177   1.770   1.290  0.00  0.00    -0.007 C 
ATOM      6  N   UNL     1       0.165   1.253  -0.047  0.00  0.00    +0.389 N 
ATOM      7  H   UNL     1      -0.417   1.607  -0.816  0.00  0.00    -0.080 HD
ENDROOT
BRANCH   1   8
ATOM      8  C   UNL     1      -0.678  -0.805  -1.054  0.00  0.00    -0.061 A 
ATOM      9  C   UNL     1      -1.255  -0.101  -2.094  0.00  0.00    +0.003 A 
ATOM     10  C   UNL     1      -2.261  -0.677  -2.845  0.00  0.00    +0.020 A 
ATOM     11  C   UNL     1      -2.700  -1.955  -2.549  0.00  0.00    +0.041 A 
ATOM     12  C   UNL     1      -2.127  -2.658  -1.504  0.00  0.00    +0.020 A 
ATOM     13  C   UNL     1      -1.116  -2.082  -0.757  0.00  0.00    +0.003 A 
ATOM     14 CL   UNL     1      -3.969  -2.678  -3.488  0.00  0.00    -0.084 Cl
ENDBRANCH   1   8
BRANCH   6  16
ATOM     15  C   UNL     1      -1.932   0.839   1.201  0.00  0.00    -0.017 C 
ATOM     16  C   UNL     1      -0.544   1.482   1.248  0.00  0.00    -0.081 C 
ENDBRANCH   6  16
BRANCH   4  17
ATOM     17  C   UNL     1       1.303   3.419  -0.400  0.00  0.00    +0.143 C 
BRANCH  17  18
ATOM     18  O   UNL     1       2.587   4.046  -0.413  0.00  0.00    -0.396 OA
ATOM     19  H   UNL     1       2.562   4.989  -0.627  0.00  0.00    +0.209 HD
ENDBRANCH  17  18
ENDBRANCH   4  17
BRANCH   2  20
ATOM     20  C   UNL     1       1.553  -0.934  -2.360  0.00  0.00    -0.080 C 
BRANCH  20  21
ATOM     21  N   UNL     1       2.863  -1.120  -3.013  0.00  0.00    +0.379 N 
ATOM     22  H   UNL     1       3.454  -1.716  -2.421  0.00  0.00    -0.086 HD
ATOM     23  H   UNL     1       3.313  -0.205  -3.134  0.00  0.00    -0.086 HD
BRANCH  21  24
ATOM     24  C   UNL     1       2.693  -1.758  -4.331  0.00  0.00    -0.079 C 
BRANCH  24  25
ATOM     25  C   UNL     1       4.066  -1.937  -4.983  0.00  0.00    -0.028 C 
ATOM     26  C   UNL     1       4.337  -1.174  -6.280  0.00  0.00    +0.002 C 
ATOM     27  C   UNL     1       4.123  -2.689  -6.314  0.00  0.00    +0.002 C 
ENDBRANCH  24  25
ENDBRANCH  21  24
ENDBRANCH  20  21
ENDBRANCH   2  20
TORSDOF 8
