REMARK  Name = ZINC39324476
REMARK  5 active torsions:
REMARK  status: ('A' for Active; 'I' for Inactive)
REMARK    1  A    between atoms: C_1  and  C_2
REMARK    2  A    between atoms: C_6  and  C_7
REMARK    3  A    between atoms: C_17  and  C_25
REMARK    4  A    between atoms: C_19  and  C_23
REMARK    5  A    between atoms: C_20  and  N_22
REMARK                            x       y       z     vdW  Elec       q    Type
REMARK                         _______ _______ _______ _____ _____    ______ ____
ROOT
ATOM      1  C   UNL     1      -0.709   1.245   0.257  0.00  0.00    +0.008 C 
ATOM      2  C   UNL     1      -0.366  -0.243   0.166  0.00  0.00    -0.006 C 
ATOM      3  C   UNL     1       0.341  -0.528  -1.167  0.00  0.00    +0.042 C 
ATOM      4  C   UNL     1       0.603  -2.017  -1.217  0.00  0.00    -0.004 C 
ATOM      5  C   UNL     1       0.415  -2.714  -2.352  0.00  0.00    +0.016 C 
ATOM      6  C   UNL     1       1.071  -2.686   0.014  0.00  0.00    +0.133 C 
ATOM      7  C   UNL     1       1.052  -2.046   1.183  0.00  0.00    -0.014 C 
ATOM      8  C   UNL     1       0.567  -0.624   1.311  0.00  0.00    +0.039 C 
ATOM      9  C   UNL     1       1.522  -2.742   2.439  0.00  0.00    +0.095 C 
ATOM     10  C   UNL     1       2.373  -3.930   2.094  0.00  0.00    +0.098 C 
ATOM     11  C   UNL     1       2.325  -4.475   0.853  0.00  0.00    +0.199 C 
ATOM     12  O   UNL     1       1.516  -3.964  -0.090  0.00  0.00    -0.441 OA
ENDROOT
BRANCH   5  13
ATOM     13  C   UNL     1       0.088  -2.009  -3.603  0.00  0.00    -0.006 A 
ATOM     14  C   UNL     1       0.690  -0.782  -3.897  0.00  0.00    +0.009 A 
ATOM     15  C   UNL     1       0.379  -0.129  -5.070  0.00  0.00    +0.001 A 
ATOM     16  C   UNL     1      -0.527  -0.683  -5.957  0.00  0.00    +0.001 A 
ATOM     17  C   UNL     1      -1.129  -1.896  -5.674  0.00  0.00    +0.020 A 
ATOM     18  C   UNL     1      -0.823  -2.566  -4.506  0.00  0.00    +0.048 A 
ATOM     19 CL   UNL     1      -1.573  -4.093  -4.156  0.00  0.00    -0.083 Cl
ENDBRANCH   5  13
BRANCH   9  20
ATOM     20  C   UNL     1       0.326  -3.204   3.231  0.00  0.00    -0.017 A 
ATOM     21  C   UNL     1      -0.569  -4.097   2.672  0.00  0.00    +0.006 A 
ATOM     22  C   UNL     1      -1.666  -4.522   3.398  0.00  0.00    +0.000 A 
ATOM     23  C   UNL     1      -1.869  -4.053   4.683  0.00  0.00    +0.001 A 
ATOM     24  C   UNL     1      -0.975  -3.160   5.242  0.00  0.00    +0.020 A 
ATOM     25  C   UNL     1       0.126  -2.739   4.518  0.00  0.00    +0.045 A 
ATOM     26 CL   UNL     1       1.253  -1.622   5.223  0.00  0.00    -0.083 Cl
ENDBRANCH   9  20
BRANCH  11  27
ATOM     27  N   UNL     1       3.113  -5.560   0.556  0.00  0.00    -0.328 N 
ATOM     28  H   UNL     1       3.700  -5.932   1.233  0.00  0.00    +0.145 HD
ATOM     29  H   UNL     1       3.083  -5.953  -0.330  0.00  0.00    +0.145 HD
ENDBRANCH  11  27
BRANCH  10  30
ATOM     30  C   UNL     1       3.243  -4.492   3.083  0.00  0.00    +0.101 C 
ATOM     31  N   UNL     1       3.933  -4.937   3.868  0.00  0.00    -0.191 NA
ENDBRANCH  10  30
TORSDOF 4
