REMARK  Name = ZINC34792157
REMARK  5 active torsions:
REMARK  status: ('A' for Active; 'I' for Inactive)
REMARK    1  A    between atoms: C_1  and  N_2
REMARK    2  A    between atoms: C_5  and  C_10
REMARK    3  A    between atoms: C_15  and  C_16
REMARK    4  A    between atoms: N_22  and  C_24
REMARK    5  A    between atoms: C_24  and  C_25
REMARK                            x       y       z     vdW  Elec       q    Type
REMARK                         _______ _______ _______ _____ _____    ______ ____
ROOT
ATOM      1  C   UNL     1      -1.716   1.155   0.440  0.00  0.00    +0.139 C 
ATOM      2  N   UNL     1      -1.246  -0.224   0.290  0.00  0.00    -0.260 N 
ATOM      3  C   UNL     1      -2.160  -1.233   0.401  0.00  0.00    +0.042 C 
ATOM      4  C   UNL     1      -1.794  -2.525   0.274  0.00  0.00    +0.058 C 
ATOM      5  C   UNL     1      -0.333  -2.819   0.002  0.00  0.00    +0.142 C 
ATOM      6  N   UNL     1       0.573  -1.662  -0.101  0.00  0.00    -0.288 N 
ATOM      7  C   UNL     1       0.055  -0.427   0.045  0.00  0.00    +0.307 C 
ATOM      8  O   UNL     1       0.794   0.535  -0.042  0.00  0.00    -0.252 OA
ATOM      9  C   UNL     1      -2.913  -3.369   0.430  0.00  0.00    +0.247 C 
ATOM     10  O   UNL     1      -2.872  -4.584   0.364  0.00  0.00    -0.270 OA
ATOM     11  N   UNL     1      -4.030  -2.657   0.662  0.00  0.00    -0.283 N 
ATOM     12  C   UNL     1      -3.649  -1.236   0.664  0.00  0.00    +0.160 C 
ATOM     13  H   UNL     1       1.519  -1.787  -0.274  0.00  0.00    +0.151 HD
ENDROOT
BRANCH   5  14
ATOM     14  C   UNL     1      -0.247  -3.592  -1.289  0.00  0.00    -0.011 A 
ATOM     15  C   UNL     1      -0.502  -2.959  -2.492  0.00  0.00    +0.006 A 
ATOM     16  C   UNL     1      -0.423  -3.667  -3.676  0.00  0.00    +0.000 A 
ATOM     17  C   UNL     1      -0.089  -5.009  -3.658  0.00  0.00    +0.001 A 
ATOM     18  C   UNL     1       0.166  -5.641  -2.456  0.00  0.00    +0.013 A 
ATOM     19  C   UNL     1       0.092  -4.932  -1.272  0.00  0.00    +0.060 A 
BRANCH  19  20
ATOM     20  C   UNL     1       0.376  -5.620   0.038  0.00  0.00    +0.418 C 
ATOM     21  F   UNL     1       0.617  -6.979  -0.191  0.00  0.00    -0.166 F 
ATOM     22  F   UNL     1       1.500  -5.041   0.635  0.00  0.00    -0.166 F 
ATOM     23  F   UNL     1      -0.728  -5.480   0.887  0.00  0.00    -0.166 F 
ENDBRANCH  19  20
ENDBRANCH   5  14
BRANCH  11  24
ATOM     24  C   UNL     1      -5.376  -3.196   0.873  0.00  0.00    +0.204 C 
BRANCH  24  25
ATOM     25  C   UNL     1      -5.591  -3.449   2.343  0.00  0.00    +0.233 C 
ATOM     26  O   UNL     1      -4.707  -3.203   3.136  0.00  0.00    -0.274 OA
ATOM     27  N   UNL     1      -6.766  -3.948   2.776  0.00  0.00    -0.297 N 
ATOM     28  C   UNL     1      -7.843  -4.257   1.825  0.00  0.00    +0.126 C 
ATOM     29  C   UNL     1      -8.256  -5.722   2.011  0.00  0.00    +0.125 C 
ATOM     30  N   UNL     1      -8.482  -5.969   3.442  0.00  0.00    -0.314 N 
ATOM     31  C   UNL     1      -7.404  -5.660   4.392  0.00  0.00    +0.125 C 
ATOM     32  C   UNL     1      -6.990  -4.200   4.206  0.00  0.00    +0.126 C 
ATOM     33  C   UNL     1      -9.693  -6.484   3.888  0.00  0.00    +0.099 A 
ATOM     34  C   UNL     1     -10.619  -6.966   2.968  0.00  0.00    +0.042 A 
ATOM     35  C   UNL     1     -11.820  -7.475   3.426  0.00  0.00    +0.005 A 
ATOM     36  C   UNL     1     -12.057  -7.486   4.795  0.00  0.00    +0.018 A 
ATOM     37  C   UNL     1     -11.094  -6.992   5.651  0.00  0.00    +0.084 A 
ATOM     38  N   UNL     1      -9.954  -6.516   5.186  0.00  0.00    -0.350 N 
ATOM     39  H   UNL     1      -9.293  -6.179   5.810  0.00  0.00    +0.166 HD
ENDBRANCH  24  25
ENDBRANCH  11  24
TORSDOF 4
