REMARK  Name = ZINC13063796
REMARK  13 active torsions:
REMARK  status: ('A' for Active; 'I' for Inactive)
REMARK    1  A    between atoms: C_1  and  C_2
REMARK    2  A    between atoms: C_2  and  C_3
REMARK    3  A    between atoms: C_3  and  C_5
REMARK    4  A    between atoms: C_3  and  N_71
REMARK    5  A    between atoms: N_9  and  C_10
REMARK    6  A    between atoms: C_10  and  C_11
REMARK    7  A    between atoms: C_10  and  C_12
REMARK    8  A    between atoms: C_10  and  C_13
REMARK    9  A    between atoms: C_13  and  C_14
REMARK   10  A    between atoms: C_15  and  C_16
REMARK   11  A    between atoms: C_15  and  N_71
REMARK   12  A    between atoms: C_21  and  C_28
REMARK   13  A    between atoms: C_29  and  N_71
REMARK                            x       y       z     vdW  Elec       q    Type
REMARK                         _______ _______ _______ _____ _____    ______ ____
ROOT
ATOM      1  N   UNL     1      -2.448  -0.427   1.068  0.00  0.00    +0.391 N 
ATOM      2  H   UNL     1      -3.372  -0.861   1.184  0.00  0.00    -0.080 HD
ENDROOT
BRANCH   1   3
ATOM      3  C   UNL     1      -1.508  -1.033   2.034  0.00  0.00    -0.067 C 
ATOM      4  C   UNL     1      -2.133  -0.984   3.429  0.00  0.00    -0.015 C 
ATOM      5  C   UNL     1      -1.180  -1.629   4.438  0.00  0.00    -0.002 C 
ATOM      6  C   UNL     1       0.146  -0.866   4.446  0.00  0.00    -0.000 C 
ATOM      7  C   UNL     1       0.771  -0.915   3.050  0.00  0.00    -0.002 C 
ATOM      8  C   UNL     1      -0.181  -0.270   2.042  0.00  0.00    -0.015 C 
ENDBRANCH   1   3
BRANCH   1   9
ATOM      9  C   UNL     1      -2.566   1.025   1.321  0.00  0.00    +0.003 C 
BRANCH   9  10
ATOM     10  C   UNL     1      -1.368   1.754   0.771  0.00  0.00    +0.139 A 
ATOM     11  N   UNL     1      -0.737   1.492  -0.347  0.00  0.00    -0.115 NA
ATOM     12  N   UNL     1       0.230   2.335  -0.466  0.00  0.00    -0.023 NA
ATOM     13  N   UNL     1       0.232   3.129   0.548  0.00  0.00    -0.043 NA
ATOM     14  N   UNL     1      -0.741   2.806   1.331  0.00  0.00    -0.225 N 
BRANCH  14  15
ATOM     15  C   UNL     1      -1.095   3.460   2.593  0.00  0.00    +0.061 C 
ATOM     16  C   UNL     1      -2.570   3.865   2.561  0.00  0.00    +0.036 C 
ATOM     17  C   UNL     1      -0.858   2.491   3.753  0.00  0.00    +0.036 C 
BRANCH  15  18
ATOM     18  C   UNL     1      -0.228   4.706   2.784  0.00  0.00    +0.026 C 
ATOM     19  C   UNL     1      -0.598   5.388   4.102  0.00  0.00    +0.006 C 
ENDBRANCH  15  18
ENDBRANCH  14  15
ENDBRANCH   9  10
BRANCH   9  21
ATOM     20  C   UNL     1      -5.061   0.899   1.291  0.00  0.00    +0.002 C 
ATOM     21  C   UNL     1      -3.835   1.540   0.639  0.00  0.00    -0.011 C 
ENDBRANCH   9  21
ENDBRANCH   1   9
BRANCH   1  22
ATOM     22  C   UNL     1      -1.977  -0.662  -0.313  0.00  0.00    -0.036 C 
BRANCH  22  23
ATOM     23  C   UNL     1      -2.259  -2.096  -0.682  0.00  0.00    +0.001 A 
ATOM     24  C   UNL     1      -3.413  -2.415  -1.319  0.00  0.00    +0.017 A 
ATOM     25  C   UNL     1      -3.654  -3.816  -1.669  0.00  0.00    -0.001 A 
ATOM     26  C   UNL     1      -4.823  -4.206  -2.330  0.00  0.00    +0.010 A 
ATOM     27  C   UNL     1      -5.021  -5.522  -2.637  0.00  0.00    +0.004 A 
ATOM     28  C   UNL     1      -4.072  -6.477  -2.298  0.00  0.00    -0.048 A 
ATOM     29  C   UNL     1      -2.912  -6.116  -1.647  0.00  0.00    +0.029 A 
ATOM     30  C   UNL     1      -2.689  -4.781  -1.324  0.00  0.00    +0.049 A 
ATOM     31  N   UNL     1      -1.539  -4.392  -0.671  0.00  0.00    -0.322 N 
ATOM     32  H   UNL     1      -0.875  -5.059  -0.434  0.00  0.00    +0.169 HD
ATOM     33  C   UNL     1      -1.324  -3.102  -0.359  0.00  0.00    +0.251 A 
ATOM     34  O   UNL     1      -0.295  -2.794   0.219  0.00  0.00    -0.268 OA
ATOM     35  C   UNL     1      -4.311  -7.923  -2.647  0.00  0.00    +0.044 C 
ENDBRANCH  22  23
ENDBRANCH   1  22
TORSDOF 8
