REMARK  Name = ZINC14971485
REMARK  8 active torsions:
REMARK  status: ('A' for Active; 'I' for Inactive)
REMARK    1  A    between atoms: C_1  and  C_2
REMARK    2  A    between atoms: C_3  and  C_12
REMARK    3  A    between atoms: C_5  and  C_7
REMARK    4  A    between atoms: C_12  and  N_13
REMARK    5  A    between atoms: C_14  and  C_16
REMARK    6  A    between atoms: C_16  and  C_17
REMARK    7  A    between atoms: C_24  and  C_25
REMARK    8  A    between atoms: C_24  and  N_54
REMARK                            x       y       z     vdW  Elec       q    Type
REMARK                         _______ _______ _______ _____ _____    ______ ____
ROOT
ATOM      1  C   UNL     1      -1.718  -1.578   1.757  0.00  0.00    +0.089 C 
ENDROOT
BRANCH   1   2
ATOM      2  C   UNL     1      -1.929  -0.134   2.217  0.00  0.00    +0.028 C 
ATOM      3  C   UNL     1      -2.947   0.528   1.332  0.00  0.00    +0.200 C 
ATOM      4  O   UNL     1      -3.939  -0.096   1.022  0.00  0.00    -0.278 OA
ATOM      5  N   UNL     1      -2.805   1.776   0.874  0.00  0.00    -0.318 N 
ATOM      6  C   UNL     1      -1.633   2.598   1.159  0.00  0.00    +0.085 C 
ATOM      7  C   UNL     1      -0.875   2.031   2.361  0.00  0.00    -0.058 C 
ATOM      8  H   UNL     1      -3.513   2.151   0.327  0.00  0.00    +0.149 HD
ATOM      9  N   UNL     1      -0.648   0.592   2.121  0.00  0.00    +0.391 N 
ATOM     10  H   UNL     1      -0.261   0.466   1.178  0.00  0.00    -0.080 HD
BRANCH   9  11
ATOM     11  C   UNL     1       0.313   0.056   3.112  0.00  0.00    -0.042 C 
BRANCH  11  12
ATOM     12  C   UNL     1      -0.259   0.158   4.502  0.00  0.00    -0.064 A 
ATOM     13  C   UNL     1      -0.912  -0.925   5.062  0.00  0.00    +0.002 A 
ATOM     14  C   UNL     1      -1.432  -0.834   6.339  0.00  0.00    +0.000 A 
ATOM     15  C   UNL     1      -1.304   0.342   7.055  0.00  0.00    +0.000 A 
ATOM     16  C   UNL     1      -0.656   1.426   6.494  0.00  0.00    +0.000 A 
ATOM     17  C   UNL     1      -0.136   1.335   5.216  0.00  0.00    +0.002 A 
ENDBRANCH  11  12
ENDBRANCH   9  11
ENDBRANCH   1   2
BRANCH   1  19
ATOM     18  N   UNL     1      -0.792  -2.748  -0.215  0.00  0.00    -0.310 N 
ATOM     19  C   UNL     1      -1.139  -1.583   0.366  0.00  0.00    +0.212 C 
ATOM     20  O   UNL     1      -0.984  -0.538  -0.230  0.00  0.00    -0.276 OA
ATOM     21  H   UNL     1      -0.915  -3.584   0.262  0.00  0.00    +0.149 HD
BRANCH  18  22
ATOM     22  C   UNL     1      -0.229  -2.753  -1.568  0.00  0.00    +0.163 C 
BRANCH  22  25
ATOM     23  C   UNL     1       2.464  -4.273  -1.119  0.00  0.00    +0.088 C 
ATOM     24  C   UNL     1       1.231  -4.824  -1.788  0.00  0.00    +0.127 A 
ATOM     25  C   UNL     1       0.071  -4.171  -1.982  0.00  0.00    +0.100 A 
ATOM     26  N   UNL     1      -0.770  -5.003  -2.615  0.00  0.00    -0.212 NA
ATOM     27  C   UNL     1      -0.158  -6.151  -2.809  0.00  0.00    +0.234 A 
ATOM     28  O   UNL     1       1.085  -6.063  -2.300  0.00  0.00    -0.440 OA
BRANCH  27  29
ATOM     29  C   UNL     1      -0.734  -7.331  -3.470  0.00  0.00    +0.074 A 
ATOM     30  C   UNL     1      -0.157  -8.565  -3.709  0.00  0.00    +0.021 A 
ATOM     31  C   UNL     1      -0.905  -9.523  -4.352  0.00  0.00    +0.008 A 
ATOM     32  C   UNL     1      -2.177  -9.231  -4.729  0.00  0.00    +0.046 A 
ATOM     33  S   UNL     1      -2.364  -7.548  -4.166  0.00  0.00    -0.092 S 
ENDBRANCH  27  29
ENDBRANCH  22  25
ENDBRANCH  18  22
ENDBRANCH   1  19
TORSDOF 7
