REMARK  Name = ZINC33770311
REMARK  7 active torsions:
REMARK  status: ('A' for Active; 'I' for Inactive)
REMARK    1  A    between atoms: C_2  and  C_3
REMARK    2  A    between atoms: C_3  and  N_4
REMARK    3  A    between atoms: C_7  and  C_21
REMARK    4  A    between atoms: N_11  and  C_12
REMARK    5  A    between atoms: C_17  and  C_18
REMARK    6  A    between atoms: C_21  and  C_22
REMARK    7  A    between atoms: N_24  and  C_25
REMARK                            x       y       z     vdW  Elec       q    Type
REMARK                         _______ _______ _______ _____ _____    ______ ____
ROOT
ATOM      1  N   UNL     1       4.457  -6.733  -1.589  0.00  0.00    -0.246 N 
ATOM      2  C   UNL     1       4.037  -6.258  -0.429  0.00  0.00    +0.235 C 
ATOM      3  O   UNL     1       3.581  -6.977   0.435  0.00  0.00    -0.274 OA
ATOM      4  C   UNL     1       4.160  -4.754  -0.246  0.00  0.00    +0.149 C 
ATOM      5  S   UNL     1       4.896  -4.284  -1.862  0.00  0.00    -0.077 S 
ATOM      6  C   UNL     1       4.975  -5.922  -2.574  0.00  0.00    +0.164 C 
ATOM      7  N   UNL     1       5.423  -6.271  -3.761  0.00  0.00    -0.225 NA
ENDROOT
BRANCH   7   8
ATOM      8  C   UNL     1       5.909  -5.324  -4.610  0.00  0.00    +0.081 A 
ATOM      9  C   UNL     1       5.174  -4.162  -4.865  0.00  0.00    +0.028 A 
ATOM     10  C   UNL     1       5.671  -3.208  -5.724  0.00  0.00    +0.002 A 
ATOM     11  C   UNL     1       6.899  -3.389  -6.345  0.00  0.00    +0.001 A 
ATOM     12  C   UNL     1       7.641  -4.525  -6.110  0.00  0.00    +0.017 A 
ATOM     13  C   UNL     1       7.160  -5.505  -5.237  0.00  0.00    +0.088 A 
BRANCH  13  14
ATOM     14  C   UNL     1       7.950  -6.718  -4.977  0.00  0.00    +0.389 C 
ATOM     15  O   UNL     1       7.526  -7.569  -4.220  0.00  0.00    -0.241 OA
ATOM     16  O   UNL     1       9.145  -6.886  -5.578  0.00  0.00    -0.241 OA
ENDBRANCH  13  14
ENDBRANCH   7   8
BRANCH   1  17
ATOM     17  C   UNL     1       4.369  -8.175  -1.835  0.00  0.00    +0.142 C 
BRANCH  17  19
ATOM     18  C   UNL     1       2.988  -9.145  -3.599  0.00  0.00    +0.005 C 
ATOM     19  C   UNL     1       3.037  -8.497  -2.461  0.00  0.00    -0.015 C 
ENDBRANCH  17  19
ENDBRANCH   1  17
BRANCH   4  20
ATOM     20  C   UNL     1       2.788  -4.105  -0.052  0.00  0.00    +0.120 C 
BRANCH  20  21
ATOM     21  C   UNL     1       2.958  -2.622   0.154  0.00  0.00    +0.219 C 
ATOM     22  O   UNL     1       4.068  -2.132   0.146  0.00  0.00    -0.275 OA
ATOM     23  N   UNL     1       1.877  -1.840   0.346  0.00  0.00    -0.285 N 
ATOM     24  H   UNL     1       0.880  -2.293   0.438  0.00  0.00    +0.155 HD
BRANCH  23  25
ATOM     25  C   UNL     1       2.025  -0.450   0.429  0.00  0.00    +0.033 A 
ATOM     26  C   UNL     1       2.997   0.192  -0.326  0.00  0.00    +0.025 A 
ATOM     27  C   UNL     1       3.141   1.563  -0.242  0.00  0.00    +0.022 A 
ATOM     28  C   UNL     1       2.318   2.297   0.594  0.00  0.00    +0.041 A 
ATOM     29  C   UNL     1       1.348   1.659   1.347  0.00  0.00    +0.022 A 
ATOM     30  C   UNL     1       1.200   0.288   1.267  0.00  0.00    +0.025 A 
ATOM     31 CL   UNL     1       2.501   4.020   0.697  0.00  0.00    -0.084 Cl
ENDBRANCH  23  25
ENDBRANCH  20  21
ENDBRANCH   4  20
TORSDOF 7
