REMARK  Name = ZINC39664776
REMARK  11 active torsions:
REMARK  status: ('A' for Active; 'I' for Inactive)
REMARK    1  A    between atoms: C_1  and  C_2
REMARK    2  A    between atoms: C_2  and  C_3
REMARK    3  A    between atoms: C_3  and  C_5
REMARK    4  A    between atoms: C_3  and  C_11
REMARK    5  A    between atoms: C_15  and  C_24
REMARK    6  A    between atoms: N_26  and  C_27
REMARK    7  A    between atoms: C_27  and  C_29
REMARK    8  A    between atoms: C_27  and  C_33
REMARK    9  A    between atoms: C_29  and  N_30
REMARK   10  A    between atoms: N_30  and  C_31
REMARK   11  A    between atoms: N_30  and  C_32
REMARK                            x       y       z     vdW  Elec       q    Type
REMARK                         _______ _______ _______ _____ _____    ______ ____
ROOT
ATOM      1  C   UNL     1       1.675  -0.209  -0.668  0.00  0.00    +0.223 C 
ATOM      2  O   UNL     1       2.536  -1.039  -0.870  0.00  0.00    -0.275 OA
ATOM      3  N   UNL     1       1.992   1.101  -0.656  0.00  0.00    -0.300 N 
ATOM      4  C   UNL     1       1.073   2.256  -0.524  0.00  0.00    +0.121 C 
ATOM      5  C   UNL     1       1.827   3.252   0.386  0.00  0.00    +0.100 C 
ATOM      6  C   UNL     1       3.313   2.891   0.216  0.00  0.00    -0.004 C 
ATOM      7  C   UNL     1       3.338   1.711  -0.766  0.00  0.00    +0.115 C 
ATOM      8  C   UNL     1       3.909   2.467   1.555  0.00  0.00    -0.010 C 
ATOM      9  C   UNL     1       5.400   2.168   1.373  0.00  0.00    -0.082 C 
ATOM     10  N   UNL     1       6.083   3.365   0.867  0.00  0.00    +0.379 N 
ATOM     11  C   UNL     1       5.566   3.711  -0.463  0.00  0.00    -0.082 C 
ATOM     12  C   UNL     1       4.083   4.076  -0.358  0.00  0.00    -0.010 C 
ATOM     13  H   UNL     1       5.922   4.135   1.499  0.00  0.00    -0.086 HD
ATOM     14  H   UNL     1       7.073   3.185   0.805  0.00  0.00    -0.086 HD
ENDROOT
BRANCH   5  15
ATOM     15  C   UNL     1       1.575   4.668  -0.064  0.00  0.00    +0.219 C 
ATOM     16  O   UNL     1       1.280   4.894  -1.219  0.00  0.00    -0.275 OA
ATOM     17  N   UNL     1       1.677   5.683   0.816  0.00  0.00    -0.310 N 
ATOM     18  H   UNL     1       1.983   5.512   1.721  0.00  0.00    +0.149 HD
BRANCH  17  19
ATOM     19  C   UNL     1       1.326   7.045   0.408  0.00  0.00    +0.087 C 
BRANCH  19  20
ATOM     20  C   UNL     1       2.138   8.034   1.204  0.00  0.00    -0.029 A 
ATOM     21  C   UNL     1       2.374   7.812   2.548  0.00  0.00    +0.005 A 
ATOM     22  C   UNL     1       3.119   8.719   3.278  0.00  0.00    +0.000 A 
ATOM     23  C   UNL     1       3.630   9.847   2.664  0.00  0.00    +0.000 A 
ATOM     24  C   UNL     1       3.395  10.069   1.319  0.00  0.00    +0.000 A 
ATOM     25  C   UNL     1       2.653   9.160   0.588  0.00  0.00    +0.005 A 
ENDBRANCH  19  20
BRANCH  19  26
ATOM     26  C   UNL     1      -0.164   7.287   0.663  0.00  0.00    -0.052 C 
BRANCH  26  27
ATOM     27  N   UNL     1      -0.542   8.607   0.143  0.00  0.00    +0.377 N 
ATOM     28  C   UNL     1      -0.426   8.607  -1.322  0.00  0.00    -0.097 C 
ATOM     29  C   UNL     1      -1.929   8.904   0.524  0.00  0.00    -0.097 C 
ATOM     30  H   UNL     1       0.070   9.309   0.529  0.00  0.00    -0.083 HD
ENDBRANCH  26  27
ENDBRANCH  19  26
ENDBRANCH  17  19
ENDBRANCH   5  15
BRANCH   1  31
ATOM     31  C   UNL     1       0.252  -0.642  -0.431  0.00  0.00    +0.105 C 
BRANCH  31  32
ATOM     32  C   UNL     1      -0.446  -0.823  -1.754  0.00  0.00    -0.036 A 
ATOM     33  C   UNL     1       0.031  -1.745  -2.667  0.00  0.00    +0.004 A 
ATOM     34  C   UNL     1      -0.609  -1.910  -3.881  0.00  0.00    +0.000 A 
ATOM     35  C   UNL     1      -1.726  -1.154  -4.183  0.00  0.00    +0.000 A 
ATOM     36  C   UNL     1      -2.203  -0.232  -3.269  0.00  0.00    +0.000 A 
ATOM     37  C   UNL     1      -1.566  -0.070  -2.054  0.00  0.00    +0.004 A 
ENDBRANCH  31  32
BRANCH  31  39
ATOM     38  C   UNL     1       0.827  -1.752   1.733  0.00  0.00    +0.005 C 
ATOM     39  C   UNL     1       0.243  -1.967   0.335  0.00  0.00    +0.014 C 
ENDBRANCH  31  39
ENDBRANCH   1  31
TORSDOF 8
