REMARK  Name = ZINC06409198
REMARK  10 active torsions:
REMARK  status: ('A' for Active; 'I' for Inactive)
REMARK    1  A    between atoms: C_1  and  C_2
REMARK    2  A    between atoms: C_9  and  C_14
REMARK    3  A    between atoms: C_14  and  C_16
REMARK    4  A    between atoms: C_14  and  N_68
REMARK    5  A    between atoms: N_20  and  C_21
REMARK    6  A    between atoms: C_21  and  C_22
REMARK    7  A    between atoms: C_28  and  C_29
REMARK    8  A    between atoms: C_28  and  N_68
REMARK    9  A    between atoms: C_35  and  C_36
REMARK   10  A    between atoms: C_35  and  N_68
REMARK                            x       y       z     vdW  Elec       q    Type
REMARK                         _______ _______ _______ _____ _____    ______ ____
ROOT
ATOM      1  C   UNL     1       2.878   4.744   1.967  0.00  0.00    +0.040 C 
ENDROOT
BRANCH   1  10
ATOM      2  C   UNL     1       9.234   7.483  -0.811  0.00  0.00    +0.044 C 
ATOM      3  C   UNL     1       7.828   7.680  -0.305  0.00  0.00    -0.050 A 
ATOM      4  C   UNL     1       7.281   8.956  -0.272  0.00  0.00    +0.005 A 
ATOM      5  C   UNL     1       5.998   9.159   0.186  0.00  0.00    +0.026 A 
ATOM      6  C   UNL     1       5.240   8.076   0.621  0.00  0.00    +0.049 A 
ATOM      7  C   UNL     1       5.798   6.784   0.586  0.00  0.00    -0.001 A 
ATOM      8  C   UNL     1       7.103   6.601   0.115  0.00  0.00    +0.013 A 
ATOM      9  C   UNL     1       4.995   5.651   1.049  0.00  0.00    +0.017 A 
ATOM     10  C   UNL     1       3.734   5.888   1.488  0.00  0.00    +0.011 A 
ATOM     11  C   UNL     1       3.221   7.203   1.502  0.00  0.00    +0.251 A 
ATOM     12  O   UNL     1       2.087   7.394   1.904  0.00  0.00    -0.268 OA
ATOM     13  N   UNL     1       3.953   8.250   1.083  0.00  0.00    -0.322 N 
ATOM     14  H   UNL     1       3.571   9.141   1.107  0.00  0.00    +0.169 HD
ENDBRANCH   1  10
BRANCH   1  15
ATOM     15  C   UNL     1       1.601   4.702   1.168  0.00  0.00    +0.143 A 
ATOM     16  N   UNL     1       0.580   5.516   1.282  0.00  0.00    -0.115 NA
ATOM     17  N   UNL     1      -0.315   5.155   0.428  0.00  0.00    -0.023 NA
ATOM     18  N   UNL     1       0.112   4.135  -0.232  0.00  0.00    -0.044 NA
ATOM     19  N   UNL     1       1.287   3.822   0.199  0.00  0.00    -0.228 N 
BRANCH  19  20
ATOM     20  C   UNL     1       2.125   2.720  -0.281  0.00  0.00    +0.178 C 
BRANCH  20  21
ATOM     21  C   UNL     1       1.711   1.424   0.418  0.00  0.00    +0.140 C 
ATOM     22  C   UNL     1       2.587   0.240  -0.065  0.00  0.00    +0.035 C 
ATOM     23  C   UNL     1       1.668  -0.976   0.209  0.00  0.00    +0.031 C 
ATOM     24  C   UNL     1       0.253  -0.370   0.285  0.00  0.00    +0.160 C 
ATOM     25  O   UNL     1       0.377   1.038   0.026  0.00  0.00    -0.375 OA
ENDBRANCH  20  21
ENDBRANCH  19  20
ENDBRANCH   1  15
BRANCH   1  26
ATOM     26  N   UNL     1       2.545   4.955   3.391  0.00  0.00    +0.395 N 
ATOM     27  H   UNL     1       1.982   5.809   3.478  0.00  0.00    -0.079 HD
BRANCH  26  28
ATOM     28  C   UNL     1       3.784   5.114   4.181  0.00  0.00    -0.041 C 
BRANCH  28  29
ATOM     29  C   UNL     1       3.986   6.581   4.461  0.00  0.00    -0.064 A 
ATOM     30  C   UNL     1       4.783   7.341   3.626  0.00  0.00    +0.002 A 
ATOM     31  C   UNL     1       4.965   8.687   3.880  0.00  0.00    +0.000 A 
ATOM     32  C   UNL     1       4.358   9.272   4.975  0.00  0.00    +0.000 A 
ATOM     33  C   UNL     1       3.565   8.511   5.814  0.00  0.00    +0.000 A 
ATOM     34  C   UNL     1       3.379   7.166   5.557  0.00  0.00    +0.002 A 
ENDBRANCH  28  29
ENDBRANCH  26  28
BRANCH  26  35
ATOM     35  C   UNL     1       1.763   3.810   3.902  0.00  0.00    -0.034 C 
BRANCH  35  36
ATOM     36  C   UNL     1       0.329   3.974   3.469  0.00  0.00    -0.027 A 
ATOM     37  C   UNL     1      -0.354   3.305   2.507  0.00  0.00    +0.009 A 
ATOM     38  C   UNL     1      -1.680   3.624   2.281  0.00  0.00    +0.008 A 
ATOM     39  C   UNL     1      -2.255   4.603   3.021  0.00  0.00    +0.045 A 
ATOM     40  S   UNL     1      -0.910   5.103   4.082  0.00  0.00    -0.103 S 
ENDBRANCH  35  36
ENDBRANCH  26  35
ENDBRANCH   1  26
TORSDOF 9
