REMARK  Name = ZINC66490225
REMARK  5 active torsions:
REMARK  status: ('A' for Active; 'I' for Inactive)
REMARK    1  A    between atoms: C_4  and  O_7
REMARK    2  A    between atoms: O_7  and  C_8
REMARK    3  A    between atoms: N_10  and  C_11
REMARK    4  A    between atoms: C_17  and  C_19
REMARK    5  A    between atoms: C_24  and  C_27
REMARK                            x       y       z     vdW  Elec       q    Type
REMARK                         _______ _______ _______ _____ _____    ______ ____
ROOT
ATOM      1  C   UNL     1       5.001  -3.922  -0.006  0.00  0.00    +0.079 C 
ATOM      2  C   UNL     1       4.807  -4.646  -1.340  0.00  0.00    +0.041 C 
ATOM      3  C   UNL     1       4.638  -6.146  -1.083  0.00  0.00    +0.109 C 
ATOM      4  N   UNL     1       5.785  -6.624  -0.299  0.00  0.00    -0.301 N 
ATOM      5  C   UNL     1       6.115  -5.940   0.958  0.00  0.00    +0.109 C 
ATOM      6  C   UNL     1       6.268  -4.441   0.678  0.00  0.00    +0.041 C 
ATOM      7  C   UNL     1       6.519  -7.671  -0.725  0.00  0.00    +0.219 C 
ATOM      8  O   UNL     1       6.289  -8.175  -1.803  0.00  0.00    -0.275 OA
ENDROOT
BRANCH   7   9
ATOM      9  C   UNL     1       7.627  -8.215   0.140  0.00  0.00    +0.076 C 
ATOM     10  C   UNL     1       7.040  -8.742   1.451  0.00  0.00    +0.013 C 
ATOM     11  C   UNL     1       6.035  -9.856   1.148  0.00  0.00    +0.001 C 
ATOM     12  C   UNL     1       6.743 -10.995   0.412  0.00  0.00    +0.012 C 
ATOM     13  C   UNL     1       7.331 -10.468  -0.899  0.00  0.00    +0.094 C 
ATOM     14  C   UNL     1       8.336  -9.354  -0.596  0.00  0.00    +0.025 C 
BRANCH  13  15
ATOM     15  C   UNL     1       8.040 -11.607  -1.634  0.00  0.00    +0.393 C 
ATOM     16  F   UNL     1       7.121 -12.626  -1.911  0.00  0.00    -0.170 F 
ATOM     17  F   UNL     1       8.577 -11.126  -2.833  0.00  0.00    -0.170 F 
ATOM     18  F   UNL     1       9.068 -12.113  -0.832  0.00  0.00    -0.170 F 
ENDBRANCH  13  15
ENDBRANCH   7   9
BRANCH   1  21
ATOM     19  C   UNL     1       4.028  -1.716  -0.354  0.00  0.00    +0.406 C 
ATOM     20  O   UNL     1       2.926  -2.219  -0.254  0.00  0.00    -0.226 OA
ATOM     21  N   UNL     1       5.131  -2.483  -0.245  0.00  0.00    -0.278 N 
ATOM     22  H   UNL     1       6.010  -2.082  -0.325  0.00  0.00    +0.152 HD
BRANCH  19  23
ATOM     23  O   UNL     1       4.146  -0.393  -0.575  0.00  0.00    -0.412 OA
BRANCH  23  27
ATOM     24  C   UNL     1       0.713   1.895  -0.534  0.00  0.00    +0.000 A 
ATOM     25  C   UNL     1       1.266   1.459   0.656  0.00  0.00    +0.004 A 
ATOM     26  C   UNL     1       2.416   0.693   0.645  0.00  0.00    +0.046 A 
ATOM     27  C   UNL     1       3.015   0.360  -0.561  0.00  0.00    +0.133 A 
ATOM     28  C   UNL     1       2.458   0.798  -1.754  0.00  0.00    +0.046 A 
ATOM     29  C   UNL     1       1.308   1.565  -1.738  0.00  0.00    +0.004 A 
ENDBRANCH  23  27
ENDBRANCH  19  23
ENDBRANCH   1  21
TORSDOF 5
