REMARK  Name = ZINC12247240
REMARK  10 active torsions:
REMARK  status: ('A' for Active; 'I' for Inactive)
REMARK    1  A    between atoms: C_1  and  C_2
REMARK    2  A    between atoms: C_3  and  C_4
REMARK    3  A    between atoms: C_4  and  N_5
REMARK    4  A    between atoms: C_8  and  C_12
REMARK    5  A    between atoms: C_8  and  C_20
REMARK    6  A    between atoms: C_12  and  C_13
REMARK    7  A    between atoms: C_13  and  C_14
REMARK    8  A    between atoms: C_25  and  C_26
REMARK    9  A    between atoms: C_25  and  N_75
REMARK   10  A    between atoms: C_29  and  N_32
REMARK                            x       y       z     vdW  Elec       q    Type
REMARK                         _______ _______ _______ _____ _____    ______ ____
ROOT
ATOM      1  N   UNL     1       5.714   5.656   0.247  0.00  0.00    -0.212 N 
ATOM      2  C   UNL     1       5.259   5.244  -0.953  0.00  0.00    +0.248 C 
ATOM      3  O   UNL     1       4.978   5.938  -1.907  0.00  0.00    -0.273 OA
ATOM      4  C   UNL     1       5.172   3.734  -0.862  0.00  0.00    +0.115 C 
ATOM      5  N   UNL     1       5.631   3.442   0.507  0.00  0.00    -0.285 N 
ATOM      6  C   UNL     1       5.925   4.626   1.075  0.00  0.00    +0.310 C 
ATOM      7  O   UNL     1       6.335   4.746   2.212  0.00  0.00    -0.252 OA
ATOM      8  H   UNL     1       5.708   2.567   0.918  0.00  0.00    +0.151 HD
ENDROOT
BRANCH   4   9
ATOM      9  C   UNL     1       3.728   3.265  -1.057  0.00  0.00    +0.018 C 
ATOM     10  C   UNL     1       2.819   3.977  -0.051  0.00  0.00    -0.013 C 
ATOM     11  C   UNL     1       1.387   3.461  -0.211  0.00  0.00    -0.078 C 
ATOM     12  C   UNL     1       2.188   1.302  -0.964  0.00  0.00    -0.078 C 
ATOM     13  C   UNL     1       3.644   1.754  -0.827  0.00  0.00    -0.013 C 
ATOM     14  N   UNL     1       1.371   2.006   0.046  0.00  0.00    +0.382 N 
ATOM     15  H   UNL     1       1.766   1.827   0.977  0.00  0.00    -0.081 HD
BRANCH  14  16
ATOM     16  C   UNL     1      -0.018   1.503   0.010  0.00  0.00    -0.043 C 
BRANCH  16  17
ATOM     17  C   UNL     1       0.002  -0.004   0.002  0.00  0.00    -0.064 A 
ATOM     18  C   UNL     1       0.011  -0.687  -1.200  0.00  0.00    +0.003 A 
ATOM     19  C   UNL     1       0.035  -2.068  -1.212  0.00  0.00    +0.023 A 
ATOM     20  C   UNL     1       0.040  -2.771  -0.013  0.00  0.00    +0.030 A 
ATOM     21  C   UNL     1       0.025  -2.081   1.193  0.00  0.00    +0.023 A 
ATOM     22  C   UNL     1       0.006  -0.701   1.197  0.00  0.00    +0.003 A 
BRANCH  20  23
ATOM     23  N   UNL     1       0.058  -4.167  -0.021  0.00  0.00    -0.330 N 
ATOM     24  C   UNL     1       1.300  -4.687   0.607  0.00  0.00    +0.105 C 
ATOM     25  C   UNL     1       0.924  -6.142   0.985  0.00  0.00    +0.020 C 
ATOM     26  C   UNL     1      -0.549  -6.013   1.435  0.00  0.00    +0.020 C 
ATOM     27  C   UNL     1      -1.058  -4.717   0.779  0.00  0.00    +0.105 C 
ENDBRANCH  20  23
ENDBRANCH  16  17
ENDBRANCH  14  16
ENDBRANCH   4   9
BRANCH   1  28
ATOM     28  C   UNL     1       5.950   7.058   0.601  0.00  0.00    +0.206 C 
BRANCH  28  31
ATOM     29  C   UNL     1       9.823   8.081  -0.354  0.00  0.00    +0.106 C 
ATOM     30  C   UNL     1       8.439   7.715  -0.013  0.00  0.00    -0.104 C 
ATOM     31  C   UNL     1       7.335   7.423   0.259  0.00  0.00    -0.083 C 
ENDBRANCH  28  31
ENDBRANCH   1  28
BRANCH   4  32
ATOM     32  C   UNL     1       6.093   3.075  -1.891  0.00  0.00    +0.040 C 
BRANCH  32  33
ATOM     33  C   UNL     1       7.544   3.462  -1.597  0.00  0.00    +0.038 C 
BRANCH  33  34
ATOM     34  C   UNL     1       8.452   2.813  -2.611  0.00  0.00    -0.047 A 
ATOM     35  C   UNL     1       8.983   1.562  -2.361  0.00  0.00    +0.003 A 
ATOM     36  C   UNL     1       9.812   0.965  -3.293  0.00  0.00    +0.000 A 
ATOM     37  C   UNL     1      10.117   1.623  -4.469  0.00  0.00    +0.000 A 
ATOM     38  C   UNL     1       9.590   2.877  -4.716  0.00  0.00    +0.000 A 
ATOM     39  C   UNL     1       8.757   3.472  -3.787  0.00  0.00    +0.003 A 
ENDBRANCH  33  34
ENDBRANCH  32  33
ENDBRANCH   4  32
TORSDOF 9
