REMARK  Name = ZINC39668723
REMARK  9 active torsions:
REMARK  status: ('A' for Active; 'I' for Inactive)
REMARK    1  A    between atoms: C_1  and  C_2
REMARK    2  A    between atoms: C_4  and  C_11
REMARK    3  A    between atoms: C_5  and  C_7
REMARK    4  A    between atoms: C_15  and  C_24
REMARK    5  A    between atoms: N_26  and  C_27
REMARK    6  A    between atoms: C_27  and  C_28
REMARK    7  A    between atoms: C_28  and  C_30
REMARK    8  A    between atoms: C_28  and  O_31
REMARK    9  A    between atoms: O_31  and  C_32
REMARK                            x       y       z     vdW  Elec       q    Type
REMARK                         _______ _______ _______ _____ _____    ______ ____
ROOT
ATOM      1  C   UNL     1      -0.356  -1.574  -0.495  0.00  0.00    +0.250 C 
ATOM      2  O   UNL     1       0.296  -2.573  -0.260  0.00  0.00    -0.270 OA
ATOM      3  N   UNL     1      -1.679  -1.556  -0.236  0.00  0.00    -0.296 N 
ATOM      4  C   UNL     1      -2.657  -0.497  -0.578  0.00  0.00    +0.121 C 
ATOM      5  C   UNL     1      -3.928  -1.264  -1.009  0.00  0.00    +0.100 C 
ATOM      6  C   UNL     1      -3.808  -2.636  -0.326  0.00  0.00    -0.004 C 
ATOM      7  C   UNL     1      -2.484  -2.594   0.451  0.00  0.00    +0.115 C 
ATOM      8  C   UNL     1      -3.764  -3.745  -1.372  0.00  0.00    -0.010 C 
ATOM      9  C   UNL     1      -3.703  -5.104  -0.667  0.00  0.00    -0.082 C 
ATOM     10  N   UNL     1      -4.880  -5.263   0.194  0.00  0.00    +0.379 N 
ATOM     11  C   UNL     1      -4.866  -4.248   1.255  0.00  0.00    -0.082 C 
ATOM     12  C   UNL     1      -4.976  -2.854   0.631  0.00  0.00    -0.010 C 
ATOM     13  H   UNL     1      -5.717  -5.157  -0.359  0.00  0.00    -0.086 HD
ATOM     14  H   UNL     1      -4.869  -6.182   0.610  0.00  0.00    -0.086 HD
ENDROOT
BRANCH   1  18
ATOM     15  C   UNL     1       0.526   3.147  -2.216  0.00  0.00    +0.086 C 
ATOM     16  C   UNL     1       0.669   1.701  -1.818  0.00  0.00    +0.103 A 
ATOM     17  C   UNL     1      -0.300   0.942  -1.283  0.00  0.00    +0.058 A 
ATOM     18  C   UNL     1       0.299  -0.383  -1.065  0.00  0.00    +0.087 A 
ATOM     19  C   UNL     1       1.588  -0.280  -1.500  0.00  0.00    +0.220 A 
ATOM     20  O   UNL     1       1.784   0.965  -1.947  0.00  0.00    -0.455 OA
BRANCH  19  21
ATOM     21  C   UNL     1       2.615  -1.382  -1.484  0.00  0.00    +0.451 C 
ATOM     22  F   UNL     1       2.554  -2.093  -2.687  0.00  0.00    -0.163 F 
ATOM     23  F   UNL     1       3.891  -0.829  -1.332  0.00  0.00    -0.163 F 
ATOM     24  F   UNL     1       2.352  -2.248  -0.417  0.00  0.00    -0.163 F 
ENDBRANCH  19  21
ENDBRANCH   1  18
BRANCH   5  25
ATOM     25  C   UNL     1      -3.962  -1.422  -2.507  0.00  0.00    +0.218 C 
ATOM     26  O   UNL     1      -2.926  -1.457  -3.137  0.00  0.00    -0.275 OA
ATOM     27  N   UNL     1      -5.144  -1.525  -3.147  0.00  0.00    -0.312 N 
ATOM     28  H   UNL     1      -5.973  -1.420  -2.654  0.00  0.00    +0.149 HD
BRANCH  27  29
ATOM     29  C   UNL     1      -5.176  -1.794  -4.587  0.00  0.00    +0.148 C 
BRANCH  29  30
ATOM     30  C   UNL     1      -6.622  -1.741  -5.083  0.00  0.00    +0.187 C 
ATOM     31  C   UNL     1      -6.670  -2.137  -6.560  0.00  0.00    +0.053 C 
BRANCH  30  32
ATOM     32  O   UNL     1      -7.131  -0.415  -4.929  0.00  0.00    -0.486 OA
BRANCH  32  33
ATOM     33  C   UNL     1      -8.478  -0.280  -4.812  0.00  0.00    +0.139 A 
ATOM     34  C   UNL     1      -9.043   0.965  -4.553  0.00  0.00    +0.049 A 
ATOM     35  C   UNL     1     -10.421   1.052  -4.443  0.00  0.00    +0.023 A 
ATOM     36  C   UNL     1     -11.184  -0.091  -4.593  0.00  0.00    +0.111 A 
ATOM     37  N   UNL     1     -10.617  -1.256  -4.838  0.00  0.00    -0.260 NA
ATOM     38  C   UNL     1      -9.310  -1.381  -4.955  0.00  0.00    +0.156 A 
ENDBRANCH  32  33
ENDBRANCH  30  32
ENDBRANCH  29  30
ENDBRANCH  27  29
ENDBRANCH   5  25
TORSDOF 7
