REMARK  Name = ZINC09951434
REMARK  8 active torsions:
REMARK  status: ('A' for Active; 'I' for Inactive)
REMARK    1  A    between atoms: C_1  and  O_2
REMARK    2  A    between atoms: O_2  and  C_3
REMARK    3  A    between atoms: C_7  and  C_11
REMARK    4  A    between atoms: C_8  and  O_9
REMARK    5  A    between atoms: O_9  and  C_10
REMARK    6  A    between atoms: C_14  and  C_25
REMARK    7  A    between atoms: C_19  and  C_21
REMARK    8  A    between atoms: C_29  and  O_31
REMARK                            x       y       z     vdW  Elec       q    Type
REMARK                         _______ _______ _______ _____ _____    ______ ____
ROOT
ATOM      1  C   UNL     1      -0.013   1.086   0.008  0.00  0.00    +0.169 C 
ATOM      2  C   UNL     1      -0.715   1.570   1.248  0.00  0.00    +0.028 C 
ATOM      3  C   UNL     1      -1.659   2.500   1.234  0.00  0.00    +0.039 C 
ATOM      4  N   UNL     1      -2.087   3.107   0.046  0.00  0.00    -0.283 N 
ATOM      5  C   UNL     1      -1.682   2.520  -1.144  0.00  0.00    +0.219 A 
ATOM      6  N   UNL     1      -0.717   1.569  -1.176  0.00  0.00    -0.221 N 
ATOM      7  N   UNL     1      -0.571   1.199  -2.513  0.00  0.00    -0.143 NA
ATOM      8  C   UNL     1      -1.419   1.922  -3.201  0.00  0.00    +0.256 A 
ATOM      9  N   UNL     1      -2.091   2.723  -2.366  0.00  0.00    -0.189 NA
ATOM     10  H   UNL     1      -2.642   3.903   0.055  0.00  0.00    +0.155 HD
ENDROOT
BRANCH   1  15
ATOM     11  C   UNL     1       3.771   1.204  -0.027  0.00  0.00    +0.162 A 
ATOM     12  C   UNL     1       3.999   2.570  -0.022  0.00  0.00    +0.049 A 
ATOM     13  C   UNL     1       2.933   3.450  -0.007  0.00  0.00    +0.004 A 
ATOM     14  C   UNL     1       1.637   2.969  -0.003  0.00  0.00    +0.010 A 
ATOM     15  C   UNL     1       1.401   1.606  -0.003  0.00  0.00    +0.026 A 
ATOM     16  C   UNL     1       2.466   0.720  -0.018  0.00  0.00    +0.167 A 
BRANCH  11  18
ATOM     17  C   UNL     1       6.130   0.905  -0.051  0.00  0.00    +0.277 C 
ATOM     18  O   UNL     1       4.819   0.337  -0.042  0.00  0.00    -0.491 OA
ENDBRANCH  11  18
BRANCH  16  19
ATOM     19  O   UNL     1       2.236  -0.621  -0.023  0.00  0.00    -0.491 OA
ATOM     20  C   UNL     1       2.115  -1.253  -1.299  0.00  0.00    +0.277 C 
ENDBRANCH  16  19
ENDBRANCH   1  15
BRANCH   3  21
ATOM     21  C   UNL     1      -2.281   2.911   2.514  0.00  0.00    -0.001 A 
ATOM     22  C   UNL     1      -1.876   2.318   3.711  0.00  0.00    +0.010 A 
ATOM     23  C   UNL     1      -2.454   2.706   4.902  0.00  0.00    +0.004 A 
ATOM     24  C   UNL     1      -3.441   3.674   4.914  0.00  0.00    +0.045 A 
ATOM     25  C   UNL     1      -3.853   4.265   3.728  0.00  0.00    +0.117 A 
ATOM     26  C   UNL     1      -3.276   3.886   2.527  0.00  0.00    +0.055 A 
BRANCH  25  27
ATOM     27  O   UNL     1      -4.824   5.216   3.744  0.00  0.00    -0.507 OA
ATOM     28  H   UNL     1      -5.720   4.865   3.651  0.00  0.00    +0.292 HD
ENDBRANCH  25  27
ENDBRANCH   3  21
BRANCH   8  29
ATOM     29  C   UNL     1      -1.610   1.861  -4.694  0.00  0.00    +0.454 C 
ATOM     30  F   UNL     1      -2.329   2.983  -5.119  0.00  0.00    -0.163 F 
ATOM     31  F   UNL     1      -0.360   1.842  -5.323  0.00  0.00    -0.163 F 
ATOM     32  F   UNL     1      -2.317   0.700  -5.027  0.00  0.00    -0.163 F 
ENDBRANCH   8  29
TORSDOF 6
