REMARK  Name = ZINC08811462
REMARK  12 active torsions:
REMARK  status: ('A' for Active; 'I' for Inactive)
REMARK    1  A    between atoms: C_1  and  C_2
REMARK    2  A    between atoms: C_2  and  C_3
REMARK    3  A    between atoms: C_9  and  C_10
REMARK    4  A    between atoms: C_9  and  N_67
REMARK    5  A    between atoms: C_10  and  C_11
REMARK    6  A    between atoms: C_11  and  N_12
REMARK    7  A    between atoms: C_13  and  C_15
REMARK    8  A    between atoms: C_18  and  S_25
REMARK    9  A    between atoms: C_19  and  N_21
REMARK   10  A    between atoms: C_22  and  C_24
REMARK   11  A    between atoms: S_25  and  C_26
REMARK   12  A    between atoms: C_29  and  C_32
REMARK                            x       y       z     vdW  Elec       q    Type
REMARK                         _______ _______ _______ _____ _____    ______ ____
ROOT
ATOM      1  C   UNL     1      -5.716   6.194  -5.534  0.00  0.00    +0.039 A 
ATOM      2  C   UNL     1      -5.108   6.989  -4.557  0.00  0.00    +0.014 A 
ATOM      3  C   UNL     1      -5.256   8.357  -4.591  0.00  0.00    +0.017 A 
ATOM      4  C   UNL     1      -6.020   8.953  -5.590  0.00  0.00    +0.034 A 
ATOM      5  C   UNL     1      -6.635   8.164  -6.566  0.00  0.00    +0.048 A 
ATOM      6  C   UNL     1      -6.484   6.790  -6.538  0.00  0.00    +0.037 A 
ENDROOT
BRANCH   5   7
ATOM      7  N   UNL     1      -7.405   8.765  -7.571  0.00  0.00    -0.285 N 
ATOM      8  C   UNL     1      -8.490   8.131  -8.058  0.00  0.00    +0.214 C 
ATOM      9  O   UNL     1      -8.748   7.003  -7.694  0.00  0.00    -0.276 OA
ATOM     10  C   UNL     1      -9.383   8.825  -9.054  0.00  0.00    +0.109 C 
ATOM     11  H   UNL     1      -7.156   9.636  -7.916  0.00  0.00    +0.155 HD
ENDBRANCH   5   7
BRANCH   1  13
ATOM     12  N   UNL     1      -4.812   4.155  -4.531  0.00  0.00    -0.311 N 
ATOM     13  C   UNL     1      -5.553   4.729  -5.500  0.00  0.00    +0.244 C 
ATOM     14  O   UNL     1      -6.086   4.038  -6.347  0.00  0.00    -0.270 OA
ATOM     15  H   UNL     1      -4.386   4.707  -3.856  0.00  0.00    +0.149 HD
BRANCH  12  16
ATOM     16  C   UNL     1      -4.650   2.700  -4.498  0.00  0.00    +0.102 C 
BRANCH  16  17
ATOM     17  C   UNL     1      -3.770   2.312  -3.308  0.00  0.00    +0.000 C 
BRANCH  17  18
ATOM     18  C   UNL     1      -3.601   0.792  -3.273  0.00  0.00    -0.077 C 
BRANCH  18  24
ATOM     19  C   UNL     1      -3.466   0.956  -0.862  0.00  0.00    -0.069 C 
ATOM     20  C   UNL     1      -2.736   0.421   0.373  0.00  0.00    -0.015 C 
ATOM     21  C   UNL     1      -1.261   0.830   0.306  0.00  0.00    -0.003 C 
ATOM     22  C   UNL     1      -0.649   0.291  -0.989  0.00  0.00    -0.019 C 
ATOM     23  C   UNL     1      -1.439   0.830  -2.184  0.00  0.00    -0.078 C 
ATOM     24  N   UNL     1      -2.843   0.381  -2.073  0.00  0.00    +0.382 N 
ATOM     25  H   UNL     1      -2.860  -0.643  -2.003  0.00  0.00    -0.081 HD
BRANCH  19  27
ATOM     26  C   UNL     1      -5.608   1.174   0.406  0.00  0.00    +0.002 C 
ATOM     27  C   UNL     1      -4.935   0.532  -0.809  0.00  0.00    -0.019 C 
ENDBRANCH  19  27
ENDBRANCH  18  24
ENDBRANCH  17  18
ENDBRANCH  16  17
ENDBRANCH  12  16
ENDBRANCH   1  13
BRANCH   4  28
ATOM     28  S   UNL     1      -6.212  10.704  -5.624  0.00  0.00    -0.088 S 
BRANCH  28  29
ATOM     29  C   UNL     1      -7.839  10.967  -5.001  0.00  0.00    +0.013 A 
ATOM     30  C   UNL     1      -8.585   9.894  -4.526  0.00  0.00    +0.015 A 
ATOM     31  C   UNL     1      -9.858  10.105  -4.034  0.00  0.00    +0.004 A 
ATOM     32  C   UNL     1     -10.395  11.379  -4.024  0.00  0.00    -0.050 A 
ATOM     33  C   UNL     1      -9.659  12.447  -4.502  0.00  0.00    +0.004 A 
ATOM     34  C   UNL     1      -8.383  12.245  -4.990  0.00  0.00    +0.015 A 
ATOM     35  C   UNL     1     -11.787  11.603  -3.492  0.00  0.00    +0.044 C 
ENDBRANCH  28  29
ENDBRANCH   4  28
TORSDOF 9
