REMARK  Name = ZINC33256695
REMARK  14 active torsions:
REMARK  status: ('A' for Active; 'I' for Inactive)
REMARK    1  A    between atoms: C_1  and  C_2
REMARK    2  A    between atoms: C_4  and  C_37
REMARK    3  A    between atoms: C_6  and  N_8
REMARK    4  A    between atoms: C_9  and  C_11
REMARK    5  A    between atoms: C_11  and  S_12
REMARK    6  A    between atoms: S_12  and  C_13
REMARK    7  A    between atoms: C_20  and  C_31
REMARK    8  A    between atoms: N_26  and  C_27
REMARK    9  A    between atoms: C_27  and  C_28
REMARK   10  A    between atoms: C_28  and  C_29
REMARK   11  A    between atoms: C_28  and  C_30
REMARK   12  A    between atoms: N_33  and  C_34
REMARK   13  A    between atoms: C_34  and  C_35
REMARK   14  A    between atoms: C_34  and  C_36
REMARK                            x       y       z     vdW  Elec       q    Type
REMARK                         _______ _______ _______ _____ _____    ______ ____
ROOT
ATOM      1  C   UNL     1      -5.290   0.812   0.259  0.00  0.00    +0.198 A 
ATOM      2  N   UNL     1      -5.240  -0.494   0.351  0.00  0.00    -0.120 NA
ATOM      3  N   UNL     1      -6.553  -0.972   0.445  0.00  0.00    -0.109 NA
ATOM      4  C   UNL     1      -7.367   0.059   0.407  0.00  0.00    +0.240 A 
ATOM      5  N   UNL     1      -6.605   1.190   0.297  0.00  0.00    -0.256 N 
ATOM      6  C   UNL     1      -7.204   2.447   0.241  0.00  0.00    +0.065 A 
ATOM      7  C   UNL     1      -6.438   3.596   0.125  0.00  0.00    +0.040 A 
ATOM      8  C   UNL     1      -7.062   4.840   0.071  0.00  0.00    +0.039 A 
ATOM      9  C   UNL     1      -8.456   4.932   0.132  0.00  0.00    +0.014 A 
ATOM     10  C   UNL     1      -9.221   3.793   0.247  0.00  0.00    +0.016 A 
ATOM     11  C   UNL     1      -8.602   2.545   0.302  0.00  0.00    +0.064 A 
ATOM     12  C   UNL     1      -9.396   1.305   0.425  0.00  0.00    +0.263 A 
ATOM     13  O   UNL     1     -10.610   1.351   0.480  0.00  0.00    -0.267 OA
ATOM     14  N   UNL     1      -8.751   0.122   0.466  0.00  0.00    -0.276 N 
ENDROOT
BRANCH   8  15
ATOM     15  C   UNL     1      -6.247   6.069  -0.053  0.00  0.00    +0.244 C 
ATOM     16  O   UNL     1      -5.035   5.992  -0.107  0.00  0.00    -0.270 OA
ATOM     17  N   UNL     1      -6.848   7.274  -0.106  0.00  0.00    -0.309 N 
ATOM     18  H   UNL     1      -7.945   7.345  -0.057  0.00  0.00    +0.149 HD
BRANCH  17  19
ATOM     19  C   UNL     1      -6.041   8.491  -0.228  0.00  0.00    +0.067 C 
ATOM     20  C   UNL     1      -5.725   8.747  -1.703  0.00  0.00    +0.027 C 
ATOM     21  C   UNL     1      -6.820   9.679   0.340  0.00  0.00    +0.027 C 
ENDBRANCH  17  19
ENDBRANCH   8  15
BRANCH   1  22
ATOM     22  S   UNL     1      -3.905   1.894   0.118  0.00  0.00    -0.076 S 
BRANCH  22  23
ATOM     23  C   UNL     1      -2.474   0.779   0.133  0.00  0.00    +0.173 C 
BRANCH  23  25
ATOM     24  N   UNL     1      -0.011   0.966   0.007  0.00  0.00    -0.285 N 
ATOM     25  C   UNL     1      -1.207   1.587   0.017  0.00  0.00    +0.227 C 
ATOM     26  O   UNL     1      -1.264   2.795  -0.067  0.00  0.00    -0.275 OA
ATOM     27  H   UNL     1       0.038  -0.133   0.011  0.00  0.00    +0.155 HD
BRANCH  24  33
ATOM     28  C   UNL     1       4.673   1.524   1.393  0.00  0.00    +0.044 C 
ATOM     29  C   UNL     1       3.454   2.013   0.655  0.00  0.00    -0.048 A 
ATOM     30  C   UNL     1       3.500   3.208  -0.039  0.00  0.00    +0.006 A 
ATOM     31  C   UNL     1       2.383   3.661  -0.718  0.00  0.00    -0.048 A 
ATOM     32  C   UNL     1       1.218   2.920  -0.704  0.00  0.00    +0.026 A 
ATOM     33  C   UNL     1       1.168   1.719  -0.008  0.00  0.00    +0.034 A 
ATOM     34  C   UNL     1       2.289   1.271   0.677  0.00  0.00    +0.026 A 
ATOM     35  C   UNL     1       2.438   4.964  -1.473  0.00  0.00    +0.044 C 
ENDBRANCH  24  33
ENDBRANCH  23  25
ENDBRANCH  22  23
ENDBRANCH   1  22
BRANCH  14  36
ATOM     36  C   UNL     1      -9.524  -1.116   0.589  0.00  0.00    +0.131 C 
BRANCH  36  37
ATOM     37  C   UNL     1      -9.727  -1.445   2.070  0.00  0.00    +0.003 C 
ATOM     38  C   UNL     1     -10.592  -0.361   2.718  0.00  0.00    +0.009 C 
ATOM     39  C   UNL     1     -10.425  -2.800   2.200  0.00  0.00    +0.009 C 
ENDBRANCH  36  37
ENDBRANCH  14  36
TORSDOF 8
