REMARK  Name = ZINC20601708
REMARK  7 active torsions:
REMARK  status: ('A' for Active; 'I' for Inactive)
REMARK    1  A    between atoms: C_3  and  N_8
REMARK    2  A    between atoms: C_15  and  C_27
REMARK    3  A    between atoms: C_27  and  N_28
REMARK    4  A    between atoms: N_28  and  C_29
REMARK    5  A    between atoms: C_29  and  C_30
REMARK    6  A    between atoms: C_30  and  C_31
REMARK    7  A    between atoms: C_31  and  O_32
REMARK                            x       y       z     vdW  Elec       q    Type
REMARK                         _______ _______ _______ _____ _____    ______ ____
ROOT
ATOM      1  N   UNL     1       4.785  -7.012   3.438  0.00  0.00    -0.327 N 
ATOM      2  C   UNL     1       4.766  -6.077   4.571  0.00  0.00    +0.124 C 
ATOM      3  C   UNL     1       4.188  -4.736   4.113  0.00  0.00    +0.125 C 
ATOM      4  N   UNL     1       5.002  -4.205   3.011  0.00  0.00    -0.312 N 
ATOM      5  C   UNL     1       5.021  -5.141   1.877  0.00  0.00    +0.125 C 
ATOM      6  C   UNL     1       5.599  -6.482   2.335  0.00  0.00    +0.124 C 
ATOM      7  C   UNL     1       4.550  -2.954   2.615  0.00  0.00    +0.123 A 
ATOM      8  C   UNL     1       5.398  -1.846   2.751  0.00  0.00    -0.024 A 
ATOM      9  C   UNL     1       4.968  -0.611   2.367  0.00  0.00    +0.015 A 
ATOM     10  C   UNL     1       3.667  -0.491   1.840  0.00  0.00    +0.004 A 
ATOM     11  C   UNL     1       3.162   0.753   1.427  0.00  0.00    +0.059 A 
ATOM     12  C   UNL     1       1.897   0.837   0.921  0.00  0.00    +0.167 A 
ATOM     13  C   UNL     1       1.093  -0.309   0.808  0.00  0.00    +0.168 A 
ATOM     14  C   UNL     1       1.561  -1.530   1.202  0.00  0.00    +0.078 A 
ATOM     15  C   UNL     1       2.858  -1.648   1.728  0.00  0.00    +0.077 A 
ATOM     16  N   UNL     1       3.335  -2.836   2.121  0.00  0.00    -0.232 NA
ATOM     17  O   UNL     1      -0.110   0.058   0.277  0.00  0.00    -0.453 OA
ATOM     18  C   UNL     1      -0.188   1.485   0.450  0.00  0.00    +0.466 C 
ATOM     19  O   UNL     1       1.187   1.909   0.458  0.00  0.00    -0.453 OA
ENDROOT
BRANCH   1  22
ATOM     20  C   UNL     1       6.051  -9.742   5.548  0.00  0.00    +0.003 A 
ATOM     21  C   UNL     1       5.605  -8.494   5.157  0.00  0.00    +0.023 A 
ATOM     22  C   UNL     1       5.240  -8.271   3.835  0.00  0.00    +0.031 A 
ATOM     23  C   UNL     1       5.333  -9.302   2.909  0.00  0.00    +0.043 A 
ATOM     24  C   UNL     1       5.784 -10.547   3.305  0.00  0.00    +0.043 A 
ATOM     25  C   UNL     1       6.143 -10.766   4.624  0.00  0.00    +0.020 A 
ATOM     26 CL   UNL     1       5.901 -11.836   2.149  0.00  0.00    -0.083 Cl
ENDBRANCH   1  22
BRANCH   8  27
ATOM     27  C   UNL     1       6.782  -2.020   3.321  0.00  0.00    -0.043 C 
BRANCH  27  28
ATOM     28  N   UNL     1       7.664  -2.599   2.299  0.00  0.00    +0.382 N 
ATOM     29  H   UNL     1       7.270  -3.577   1.987  0.00  0.00    -0.085 HD
ATOM     30  H   UNL     1       7.707  -1.927   1.429  0.00  0.00    -0.085 HD
BRANCH  28  31
ATOM     31  C   UNL     1       9.025  -2.783   2.820  0.00  0.00    -0.080 C 
BRANCH  31  32
ATOM     32  C   UNL     1       9.911  -3.386   1.729  0.00  0.00    +0.009 C 
BRANCH  32  33
ATOM     33  C   UNL     1      11.329  -3.578   2.272  0.00  0.00    +0.154 C 
BRANCH  33  34
ATOM     34  O   UNL     1      12.157  -4.141   1.253  0.00  0.00    -0.395 OA
ATOM     35  H   UNL     1      13.217  -4.352   1.460  0.00  0.00    +0.209 HD
ENDBRANCH  33  34
ENDBRANCH  32  33
ENDBRANCH  31  32
ENDBRANCH  28  31
ENDBRANCH  27  28
ENDBRANCH   8  27
TORSDOF 7
