REMARK  Name = ZINC22846384
REMARK  5 active torsions:
REMARK  status: ('A' for Active; 'I' for Inactive)
REMARK    1  A    between atoms: C_1  and  C_2
REMARK    2  A    between atoms: C_5  and  N_9
REMARK    3  A    between atoms: C_6  and  C_8
REMARK    4  A    between atoms: C_13  and  C_15
REMARK    5  A    between atoms: C_15  and  N_16
REMARK                            x       y       z     vdW  Elec       q    Type
REMARK                         _______ _______ _______ _____ _____    ______ ____
ROOT
ATOM      1  N   UNL     1       2.071   4.357  -0.465  0.00  0.00    -0.269 N 
ATOM      2  C   UNL     1       0.973   3.622  -0.200  0.00  0.00    +0.310 C 
ATOM      3  O   UNL     1      -0.070   4.171   0.095  0.00  0.00    -0.252 OA
ATOM      4  N   UNL     1       1.032   2.277  -0.264  0.00  0.00    -0.239 N 
ATOM      5  C   UNL     1      -0.066   1.541   0.001  0.00  0.00    +0.238 C 
ATOM      6  O   UNL     1      -1.108   2.089   0.291  0.00  0.00    -0.274 OA
ATOM      7  H   UNL     1       2.994   3.865  -0.806  0.00  0.00    +0.156 HD
ATOM      8  H   UNL     1       1.976   1.779  -0.531  0.00  0.00    +0.159 HD
ENDROOT
BRANCH   1  13
ATOM      9  C   UNL     1       1.933   9.992   0.182  0.00  0.00    +0.044 C 
ATOM     10  C   UNL     1       1.970   8.495   0.010  0.00  0.00    -0.050 A 
ATOM     11  C   UNL     1       0.838   7.821  -0.410  0.00  0.00    +0.005 A 
ATOM     12  C   UNL     1       0.868   6.449  -0.568  0.00  0.00    +0.024 A 
ATOM     13  C   UNL     1       2.037   5.747  -0.306  0.00  0.00    +0.038 A 
ATOM     14  C   UNL     1       3.171   6.426   0.120  0.00  0.00    -0.029 A 
ATOM     15  C   UNL     1       3.136   7.799   0.272  0.00  0.00    +0.008 A 
ATOM     16  C   UNL     1       4.440   5.668   0.412  0.00  0.00    +0.045 C 
ENDBRANCH   1  13
BRANCH   5  17
ATOM     17  C   UNL     1      -0.000   0.037  -0.070  0.00  0.00    +0.201 C 
BRANCH  17  18
ATOM     18  N   UNL     1      -1.357  -0.517   0.023  0.00  0.00    -0.319 N 
ATOM     19  C   UNL     1      -2.260   0.144  -0.922  0.00  0.00    +0.106 C 
ATOM     20  C   UNL     1      -3.650  -0.493  -0.800  0.00  0.00    +0.024 C 
ATOM     21  C   UNL     1      -3.560  -1.926  -1.329  0.00  0.00    +0.038 C 
ATOM     22  C   UNL     1      -2.356  -2.612  -0.734  0.00  0.00    -0.023 A 
ATOM     23  C   UNL     1      -1.341  -1.906  -0.115  0.00  0.00    +0.069 A 
ATOM     24  C   UNL     1      -0.242  -2.597   0.404  0.00  0.00    +0.145 A 
ATOM     25  C   UNL     1      -0.171  -3.971   0.303  0.00  0.00    +0.040 A 
ATOM     26  C   UNL     1      -1.192  -4.672  -0.312  0.00  0.00    +0.003 A 
ATOM     27  C   UNL     1      -2.279  -3.994  -0.828  0.00  0.00    +0.005 A 
ATOM     28  F   UNL     1       0.756  -1.915   1.006  0.00  0.00    -0.204 F 
ENDBRANCH  17  18
ENDBRANCH   5  17
TORSDOF 3
