REMARK  Name = ZINC39686544
REMARK  12 active torsions:
REMARK  status: ('A' for Active; 'I' for Inactive)
REMARK    1  A    between atoms: C_1  and  C_2
REMARK    2  A    between atoms: C_2  and  C_3
REMARK    3  A    between atoms: C_3  and  C_4
REMARK    4  A    between atoms: C_3  and  C_6
REMARK    5  A    between atoms: C_4  and  C_5
REMARK    6  A    between atoms: C_10  and  C_19
REMARK    7  A    between atoms: N_21  and  C_22
REMARK    8  A    between atoms: C_22  and  C_24
REMARK    9  A    between atoms: C_22  and  C_25
REMARK   10  A    between atoms: C_25  and  C_26
REMARK   11  A    between atoms: C_31  and  O_32
REMARK   12  A    between atoms: O_32  and  C_33
REMARK                            x       y       z     vdW  Elec       q    Type
REMARK                         _______ _______ _______ _____ _____    ______ ____
ROOT
ATOM      1  C   UNL     1       2.679  -0.764   2.148  0.00  0.00    +0.219 C 
ATOM      2  O   UNL     1       2.212  -1.200   3.179  0.00  0.00    -0.275 OA
ATOM      3  N   UNL     1       2.925  -1.595   1.115  0.00  0.00    -0.300 N 
ATOM      4  C   UNL     1       3.578  -1.272  -0.175  0.00  0.00    +0.121 C 
ATOM      5  C   UNL     1       4.464  -2.500  -0.482  0.00  0.00    +0.100 C 
ATOM      6  C   UNL     1       3.816  -3.656   0.298  0.00  0.00    -0.004 C 
ATOM      7  C   UNL     1       2.607  -3.040   1.015  0.00  0.00    +0.115 C 
ATOM      8  C   UNL     1       4.798  -4.218   1.322  0.00  0.00    -0.010 C 
ATOM      9  C   UNL     1       4.152  -5.402   2.046  0.00  0.00    -0.082 C 
ATOM     10  N   UNL     1       3.788  -6.436   1.069  0.00  0.00    +0.379 N 
ATOM     11  C   UNL     1       2.774  -5.915   0.144  0.00  0.00    -0.082 C 
ATOM     12  C   UNL     1       3.362  -4.752  -0.660  0.00  0.00    -0.010 C 
ATOM     13  H   UNL     1       4.608  -6.708   0.548  0.00  0.00    -0.086 HD
ATOM     14  H   UNL     1       3.418  -7.240   1.554  0.00  0.00    -0.086 HD
ENDROOT
BRANCH   5  15
ATOM     15  C   UNL     1       4.459  -2.795  -1.960  0.00  0.00    +0.218 C 
ATOM     16  O   UNL     1       3.497  -2.493  -2.635  0.00  0.00    -0.275 OA
ATOM     17  N   UNL     1       5.522  -3.393  -2.532  0.00  0.00    -0.312 N 
ATOM     18  H   UNL     1       6.262  -3.696  -1.982  0.00  0.00    +0.149 HD
BRANCH  17  19
ATOM     19  C   UNL     1       5.562  -3.585  -3.984  0.00  0.00    +0.074 C 
ATOM     20  C   UNL     1       4.934  -4.934  -4.337  0.00  0.00    +0.028 C 
BRANCH  19  21
ATOM     21  C   UNL     1       7.015  -3.558  -4.463  0.00  0.00    +0.060 C 
BRANCH  21  22
ATOM     22  C   UNL     1       7.604  -2.194  -4.205  0.00  0.00    -0.004 A 
ATOM     23  C   UNL     1       7.537  -1.217  -5.179  0.00  0.00    +0.007 A 
ATOM     24  C   UNL     1       8.077   0.034  -4.944  0.00  0.00    +0.000 A 
ATOM     25  C   UNL     1       8.685   0.310  -3.733  0.00  0.00    +0.004 A 
ATOM     26  C   UNL     1       8.753  -0.663  -2.755  0.00  0.00    +0.046 A 
ATOM     27  C   UNL     1       8.207  -1.918  -2.987  0.00  0.00    +0.123 A 
BRANCH  27  28
ATOM     28  O   UNL     1       8.269  -2.875  -2.025  0.00  0.00    -0.495 OA
ATOM     29  C   UNL     1       8.995  -2.555  -0.837  0.00  0.00    +0.277 C 
ENDBRANCH  27  28
ENDBRANCH  21  22
ENDBRANCH  19  21
ENDBRANCH  17  19
ENDBRANCH   5  15
BRANCH   1  30
ATOM     30  C   UNL     1       2.986   0.706   2.022  0.00  0.00    +0.075 C 
BRANCH  30  32
ATOM     31  C   UNL     1       0.531   1.133   1.845  0.00  0.00    +0.004 C 
ATOM     32  C   UNL     1       1.893   1.386   1.195  0.00  0.00    +0.009 C 
ENDBRANCH  30  32
BRANCH  30  33
ATOM     33  C   UNL     1       3.040   1.337   3.414  0.00  0.00    +0.009 C 
ATOM     34  C   UNL     1       3.446   2.807   3.293  0.00  0.00    +0.004 C 
ENDBRANCH  30  33
ENDBRANCH   1  30
TORSDOF 8
