REMARK  Name = ZINC09376067
REMARK  10 active torsions:
REMARK  status: ('A' for Active; 'I' for Inactive)
REMARK    1  A    between atoms: C_1  and  C_2
REMARK    2  A    between atoms: C_11  and  N_21
REMARK    3  A    between atoms: C_13  and  C_15
REMARK    4  A    between atoms: C_15  and  N_59
REMARK    5  A    between atoms: N_21  and  C_22
REMARK    6  A    between atoms: C_22  and  C_24
REMARK    7  A    between atoms: C_22  and  C_25
REMARK    8  A    between atoms: C_25  and  C_26
REMARK    9  A    between atoms: C_26  and  O_28
REMARK   10  A    between atoms: O_28  and  C_29
REMARK                            x       y       z     vdW  Elec       q    Type
REMARK                         _______ _______ _______ _____ _____    ______ ____
ROOT
ATOM      1  C   UNL     1      -6.725  -3.471  -0.658  0.00  0.00    +0.008 C 
ATOM      2  C   UNL     1      -6.129  -2.126  -0.237  0.00  0.00    -0.009 C 
ATOM      3  C   UNL     1      -4.707  -2.337   0.290  0.00  0.00    +0.008 C 
ATOM      4  C   UNL     1      -4.016  -0.986   0.476  0.00  0.00    +0.037 C 
ATOM      5  C   UNL     1      -4.909  -0.090   1.331  0.00  0.00    -0.025 A 
ATOM      6  C   UNL     1      -6.221  -0.365   1.480  0.00  0.00    -0.004 A 
ATOM      7  S   UNL     1      -6.843   0.908   2.546  0.00  0.00    -0.073 S 
ATOM      8  C   UNL     1      -5.339   1.819   2.778  0.00  0.00    +0.114 A 
ATOM      9  C   UNL     1      -4.396   1.094   2.022  0.00  0.00    +0.051 A 
ATOM     10  C   UNL     1      -3.071   1.611   2.039  0.00  0.00    +0.131 A 
ATOM     11  N   UNL     1      -2.819   2.711   2.731  0.00  0.00    -0.219 NA
ATOM     12  C   UNL     1      -3.756   3.344   3.413  0.00  0.00    +0.116 A 
ATOM     13  N   UNL     1      -5.001   2.909   3.440  0.00  0.00    -0.227 NA
ATOM     14  C   UNL     1      -6.982  -1.509   0.881  0.00  0.00    +0.046 C 
ENDROOT
BRANCH  10  15
ATOM     15  N   UNL     1      -2.062   0.977   1.338  0.00  0.00    -0.325 N 
ATOM     16  H   UNL     1      -2.270   0.223   0.764  0.00  0.00    +0.148 HD
BRANCH  15  17
ATOM     17  C   UNL     1      -0.679   1.443   1.462  0.00  0.00    +0.079 C 
ATOM     18  C   UNL     1      -0.031   0.799   2.689  0.00  0.00    +0.028 C 
BRANCH  17  19
ATOM     19  C   UNL     1       0.105   1.053   0.207  0.00  0.00    +0.142 C 
BRANCH  19  20
ATOM     20  C   UNL     1      -0.458   1.784  -0.985  0.00  0.00    +0.309 C 
ATOM     21  O   UNL     1      -1.390   2.540  -0.845  0.00  0.00    -0.251 OA
BRANCH  20  22
ATOM     22  O   UNL     1       0.077   1.596  -2.201  0.00  0.00    -0.468 OA
ATOM     23  C   UNL     1      -0.516   2.333  -3.303  0.00  0.00    +0.280 C 
ENDBRANCH  20  22
ENDBRANCH  19  20
ENDBRANCH  17  19
ENDBRANCH  15  17
ENDBRANCH  10  15
BRANCH  12  24
ATOM     24  C   UNL     1      -3.395   4.592   4.177  0.00  0.00    -0.001 C 
BRANCH  24  30
ATOM     25  C   UNL     1      -2.604   5.750   2.202  0.00  0.00    -0.050 C 
ATOM     26  C   UNL     1      -2.861   6.955   1.293  0.00  0.00    +0.141 C 
ATOM     27  O   UNL     1      -2.779   8.155   2.067  0.00  0.00    -0.383 OA
ATOM     28  C   UNL     1      -3.706   8.204   3.155  0.00  0.00    +0.141 C 
ATOM     29  C   UNL     1      -3.458   7.011   4.082  0.00  0.00    -0.050 C 
ATOM     30  N   UNL     1      -3.595   5.765   3.300  0.00  0.00    +0.387 N 
ATOM     31  H   UNL     1      -4.539   5.725   2.898  0.00  0.00    -0.081 HD
ENDBRANCH  24  30
ENDBRANCH  12  24
TORSDOF 7
