REMARK  Name = ZINC35238027
REMARK  6 active torsions:
REMARK  status: ('A' for Active; 'I' for Inactive)
REMARK    1  A    between atoms: C_1  and  C_2
REMARK    2  A    between atoms: C_5  and  C_8
REMARK    3  A    between atoms: C_8  and  C_10
REMARK    4  A    between atoms: C_8  and  N_20
REMARK    5  A    between atoms: C_16  and  C_18
REMARK    6  A    between atoms: C_24  and  C_27
REMARK                            x       y       z     vdW  Elec       q    Type
REMARK                         _______ _______ _______ _____ _____    ______ ____
ROOT
ATOM      1  C   UNL     1       0.059  -4.275  -0.021  0.00  0.00    +0.006 C 
ENDROOT
BRANCH   1   2
ATOM      2  C   UNL     1      -1.332  -4.797   0.230  0.00  0.00    +0.050 A 
ATOM      3  C   UNL     1      -2.129  -5.503  -0.581  0.00  0.00    +0.282 A 
ATOM      4  N   UNL     1      -3.380  -5.892  -0.167  0.00  0.00    -0.170 N 
ATOM      5  C   UNL     1      -3.763  -5.530   1.088  0.00  0.00    +0.199 A 
ATOM      6  S   UNL     1      -2.347  -4.643   1.692  0.00  0.00    -0.050 S 
ATOM      7  N   UNL     1      -4.967  -5.974   1.324  0.00  0.00    -0.205 NA
ATOM      8  C   UNL     1      -5.412  -6.630   0.254  0.00  0.00    +0.150 A 
ATOM      9  N   UNL     1      -4.494  -6.611  -0.674  0.00  0.00    -0.147 NA
ATOM     10  C   UNL     1      -6.761  -7.291   0.134  0.00  0.00    +0.090 C 
ATOM     11  O   UNL     1      -1.697  -5.837  -1.826  0.00  0.00    -0.265 OA
ENDBRANCH   1   2
BRANCH   1  12
ATOM     12  N   UNL     1       0.962  -4.759   1.032  0.00  0.00    +0.388 N 
ATOM     13  C   UNL     1       2.314  -4.243   0.790  0.00  0.00    -0.077 C 
ATOM     14  C   UNL     1       3.241  -4.677   1.928  0.00  0.00    -0.018 C 
ATOM     15  C   UNL     1       3.280  -6.207   1.992  0.00  0.00    -0.001 C 
ATOM     16  C   UNL     1       1.855  -6.737   2.170  0.00  0.00    -0.031 C 
ATOM     17  C   UNL     1       0.980  -6.227   1.023  0.00  0.00    -0.074 C 
ATOM     18  C   UNL     1       1.874  -8.267   2.157  0.00  0.00    +0.005 C 
ATOM     19  H   UNL     1       0.635  -4.434   1.929  0.00  0.00    -0.080 HD
ENDBRANCH   1  12
BRANCH   1  24
ATOM     20  C   UNL     1      -0.018   1.503   0.010  0.00  0.00    +0.044 C 
ATOM     21  C   UNL     1       0.002  -0.004   0.002  0.00  0.00    -0.050 A 
ATOM     22  C   UNL     1       0.006  -0.689  -1.199  0.00  0.00    +0.003 A 
ATOM     23  C   UNL     1       0.025  -2.071  -1.206  0.00  0.00    +0.002 A 
ATOM     24  C   UNL     1       0.040  -2.768  -0.013  0.00  0.00    -0.056 A 
ATOM     25  C   UNL     1       0.037  -2.084   1.188  0.00  0.00    +0.002 A 
ATOM     26  C   UNL     1       0.023  -0.702   1.195  0.00  0.00    +0.003 A 
ENDBRANCH   1  24
TORSDOF 3
