REMARK  Name = ZINC11278604
REMARK  10 active torsions:
REMARK  status: ('A' for Active; 'I' for Inactive)
REMARK    1  A    between atoms: C_1  and  C_2
REMARK    2  A    between atoms: C_3  and  C_13
REMARK    3  A    between atoms: C_5  and  C_7
REMARK    4  A    between atoms: C_13  and  O_15
REMARK    5  A    between atoms: O_15  and  C_16
REMARK    6  A    between atoms: C_16  and  C_18
REMARK    7  A    between atoms: C_16  and  C_19
REMARK    8  A    between atoms: N_21  and  C_22
REMARK    9  A    between atoms: C_27  and  C_28
REMARK   10  A    between atoms: C_28  and  C_30
REMARK                            x       y       z     vdW  Elec       q    Type
REMARK                         _______ _______ _______ _____ _____    ______ ____
ROOT
ATOM      1  O   UNL     1      -0.726   1.982   1.156  0.00  0.00    -0.448 OA
ENDROOT
BRANCH   1   2
ATOM      2  C   UNL     1      -0.342   3.181   1.642  0.00  0.00    +0.348 C 
ATOM      3  O   UNL     1       0.537   3.810   1.085  0.00  0.00    -0.244 OA
BRANCH   2   6
ATOM      4  C   UNL     1       0.293   5.893   3.024  0.00  0.00    +0.067 C 
ATOM      5  C   UNL     1      -0.752   4.922   3.509  0.00  0.00    +0.060 A 
ATOM      6  C   UNL     1      -0.985   3.724   2.841  0.00  0.00    +0.119 A 
ATOM      7  S   UNL     1      -2.290   3.035   3.849  0.00  0.00    -0.059 S 
ATOM      8  C   UNL     1      -2.390   4.328   5.004  0.00  0.00    +0.127 A 
ATOM      9  N   UNL     1      -1.469   5.176   4.569  0.00  0.00    -0.242 NA
BRANCH   8  10
ATOM     10  C   UNL     1      -3.284   4.455   6.176  0.00  0.00    +0.096 A 
ATOM     11  C   UNL     1      -4.198   3.441   6.462  0.00  0.00    +0.030 A 
ATOM     12  C   UNL     1      -5.025   3.572   7.564  0.00  0.00    +0.004 A 
ATOM     13  C   UNL     1      -4.917   4.718   8.340  0.00  0.00    +0.020 A 
ATOM     14  C   UNL     1      -3.991   5.687   7.996  0.00  0.00    +0.111 A 
ATOM     15  N   UNL     1      -3.213   5.536   6.944  0.00  0.00    -0.253 NA
ENDBRANCH   8  10
ENDBRANCH   2   6
ENDBRANCH   1   2
BRANCH   1  16
ATOM     16  C   UNL     1      -0.046   1.506  -0.035  0.00  0.00    +0.259 C 
ATOM     17  C   UNL     1      -0.795   1.990  -1.278  0.00  0.00    +0.062 C 
BRANCH  16  18
ATOM     18  C   UNL     1      -0.010  -0.000  -0.025  0.00  0.00    +0.258 C 
ATOM     19  O   UNL     1      -0.586  -0.615   0.848  0.00  0.00    -0.271 OA
ATOM     20  N   UNL     1       0.663  -0.665  -0.985  0.00  0.00    -0.282 N 
ATOM     21  H   UNL     1       1.069  -0.178  -1.719  0.00  0.00    +0.155 HD
BRANCH  20  22
ATOM     22  C   UNL     1       0.774  -2.051  -0.925  0.00  0.00    +0.044 A 
ATOM     23  C   UNL     1      -0.275  -2.814  -0.429  0.00  0.00    +0.024 A 
ATOM     24  C   UNL     1      -0.165  -4.189  -0.375  0.00  0.00    +0.002 A 
ATOM     25  C   UNL     1       0.994  -4.819  -0.803  0.00  0.00    +0.001 A 
ATOM     26  C   UNL     1       2.048  -4.080  -1.293  0.00  0.00    +0.013 A 
ATOM     27  C   UNL     1       1.950  -2.685  -1.360  0.00  0.00    +0.038 A 
BRANCH  27  28
ATOM     28  C   UNL     1       3.069  -1.891  -1.880  0.00  0.00    +0.162 C 
ATOM     29  O   UNL     1       3.022  -0.679  -1.843  0.00  0.00    -0.292 OA
ATOM     30  C   UNL     1       4.277  -2.580  -2.461  0.00  0.00    +0.091 C 
ENDBRANCH  27  28
ENDBRANCH  20  22
ENDBRANCH  16  18
ENDBRANCH   1  16
TORSDOF 7
