REMARK  Name = ZINC27744688
REMARK  5 active torsions:
REMARK  status: ('A' for Active; 'I' for Inactive)
REMARK    1  A    between atoms: C_8  and  C_12
REMARK    2  A    between atoms: N_14  and  C_15
REMARK    3  A    between atoms: C_15  and  C_16
REMARK    4  A    between atoms: C_16  and  C_18
REMARK    5  A    between atoms: C_16  and  C_25
REMARK                            x       y       z     vdW  Elec       q    Type
REMARK                         _______ _______ _______ _____ _____    ______ ____
ROOT
ATOM      1  C   UNL     1       2.490   1.047  -0.016  0.00  0.00    +0.068 C 
ENDROOT
BRANCH   1   2
ATOM      2  C   UNL     1       3.287   1.415   1.209  0.00  0.00    -0.013 A 
ATOM      3  C   UNL     1       3.707   2.644   1.549  0.00  0.00    +0.088 A 
ATOM      4  N   UNL     1       4.398   2.592   2.729  0.00  0.00    -0.360 N 
ATOM      5  H   UNL     1       4.811   3.513   3.165  0.00  0.00    +0.165 HD
ATOM      6  C   UNL     1       4.449   1.293   3.184  0.00  0.00    +0.047 A 
ATOM      7  C   UNL     1       3.756   0.499   2.252  0.00  0.00    +0.003 A 
ATOM      8  C   UNL     1       3.644  -0.877   2.456  0.00  0.00    +0.010 A 
ATOM      9  C   UNL     1       4.211  -1.447   3.561  0.00  0.00    +0.001 A 
ATOM     10  C   UNL     1       4.896  -0.668   4.483  0.00  0.00    +0.002 A 
ATOM     11  C   UNL     1       5.018   0.692   4.301  0.00  0.00    +0.026 A 
ENDBRANCH   1   2
BRANCH   1  12
ATOM     12  C   UNL     1       1.175   1.783   0.000  0.00  0.00    -0.038 A 
ATOM     13  C   UNL     1      -0.013   1.076   0.008  0.00  0.00    +0.005 A 
ATOM     14  C   UNL     1      -1.219   1.750   0.017  0.00  0.00    +0.015 A 
ATOM     15  C   UNL     1      -1.238   3.134   0.029  0.00  0.00    +0.018 A 
ATOM     16  C   UNL     1      -0.049   3.841   0.021  0.00  0.00    +0.015 A 
ATOM     17  C   UNL     1       1.157   3.165   0.007  0.00  0.00    +0.005 A 
ATOM     18 BR   UNL     1      -2.888   4.057   0.049  0.00  0.00    -0.050 Br
ENDBRANCH   1  12
BRANCH   1  19
ATOM     19  C   UNL     1       3.276   1.434  -1.270  0.00  0.00    +0.117 C 
BRANCH  19  22
ATOM     20  C   UNL     1       3.064   1.199  -3.686  0.00  0.00    +0.251 C 
ATOM     21  O   UNL     1       4.119   1.792  -3.807  0.00  0.00    -0.270 OA
ATOM     22  N   UNL     1       2.557   0.969  -2.459  0.00  0.00    -0.310 N 
ATOM     23  H   UNL     1       1.603   0.432  -2.350  0.00  0.00    +0.149 HD
BRANCH  20  31
ATOM     24  C   UNL     1      -1.372  -1.479  -6.985  0.00  0.00    +0.001 A 
ATOM     25  C   UNL     1      -0.816  -1.223  -8.231  0.00  0.00    +0.004 A 
ATOM     26  C   UNL     1       0.381  -0.549  -8.341  0.00  0.00    +0.047 A 
ATOM     27  C   UNL     1       1.044  -0.117  -7.197  0.00  0.00    +0.139 A 
ATOM     28  C   UNL     1       0.479  -0.378  -5.936  0.00  0.00    +0.018 A 
ATOM     29  C   UNL     1      -0.741  -1.066  -5.848  0.00  0.00    +0.011 A 
ATOM     30  C   UNL     1       1.143   0.050  -4.758  0.00  0.00    +0.031 A 
ATOM     31  C   UNL     1       2.342   0.731  -4.881  0.00  0.00    +0.122 A 
ATOM     32  C   UNL     1       2.882   0.975  -6.224  0.00  0.00    +0.350 A 
ATOM     33  O   UNL     1       3.937   1.567  -6.355  0.00  0.00    -0.244 OA
ATOM     34  O   UNL     1       2.216   0.544  -7.308  0.00  0.00    -0.422 OA
ENDBRANCH  20  31
ENDBRANCH  19  22
ENDBRANCH   1  19
TORSDOF 5
