REMARK  Name = ZINC00632438
REMARK  10 active torsions:
REMARK  status: ('A' for Active; 'I' for Inactive)
REMARK    1  A    between atoms: C_1  and  C_2
REMARK    2  A    between atoms: C_2  and  C_3
REMARK    3  A    between atoms: C_4  and  C_26
REMARK    4  A    between atoms: C_5  and  N_25
REMARK    5  A    between atoms: C_10  and  O_16
REMARK    6  A    between atoms: C_12  and  S_14
REMARK    7  A    between atoms: S_14  and  C_15
REMARK    8  A    between atoms: O_16  and  C_17
REMARK    9  A    between atoms: C_20  and  C_24
REMARK   10  A    between atoms: C_21  and  C_23
REMARK                            x       y       z     vdW  Elec       q    Type
REMARK                         _______ _______ _______ _____ _____    ______ ____
ROOT
ATOM      1  C   UNL     1       5.643  -1.237  -0.433  0.00  0.00    +0.082 A 
ATOM      2  C   UNL     1       5.013  -2.377   0.118  0.00  0.00    +0.114 A 
ATOM      3  C   UNL     1       3.674  -2.051   0.313  0.00  0.00    +0.139 A 
ATOM      4  N   UNL     1       3.512  -0.770  -0.114  0.00  0.00    -0.199 N 
ATOM      5  N   UNL     1       4.749  -0.297  -0.565  0.00  0.00    -0.167 NA
ATOM      6  C   UNL     1       2.318  -0.050  -0.100  0.00  0.00    +0.164 A 
ATOM      7  C   UNL     1       2.334   1.340  -0.050  0.00  0.00    +0.116 A 
ATOM      8  C   UNL     1       1.120   2.018  -0.038  0.00  0.00    +0.226 A 
ATOM      9  N   UNL     1      -0.011   1.320  -0.073  0.00  0.00    -0.187 NA
ATOM     10  C   UNL     1       0.011  -0.004  -0.119  0.00  0.00    +0.193 A 
ATOM     11  N   UNL     1       1.149  -0.682  -0.133  0.00  0.00    -0.202 NA
ENDROOT
BRANCH   3  12
ATOM     12  N   UNL     1       2.696  -2.872   0.837  0.00  0.00    -0.342 N 
ATOM     13  H   UNL     1       1.787  -2.546   0.929  0.00  0.00    +0.144 HD
ATOM     14  H   UNL     1       2.918  -3.775   1.114  0.00  0.00    +0.144 HD
ENDBRANCH   3  12
BRANCH   1  16
ATOM     15  C   UNL     1       7.895  -0.615   0.397  0.00  0.00    +0.010 C 
ATOM     16  C   UNL     1       7.099  -1.127  -0.805  0.00  0.00    +0.055 C 
ENDBRANCH   1  16
BRANCH  10  17
ATOM     17  S   UNL     1      -1.514  -0.886  -0.164  0.00  0.00    -0.089 S 
ATOM     18  C   UNL     1      -2.679   0.498  -0.126  0.00  0.00    +0.093 C 
ENDBRANCH  10  17
BRANCH   2  19
ATOM     19  C   UNL     1       5.637  -3.630   0.425  0.00  0.00    +0.104 C 
ATOM     20  N   UNL     1       6.132  -4.623   0.668  0.00  0.00    -0.191 NA
ENDBRANCH   2  19
BRANCH   8  21
ATOM     21  O   UNL     1       1.089   3.372   0.009  0.00  0.00    -0.438 OA
BRANCH  21  22
ATOM     22  C   UNL     1      -0.120   3.986  -0.081  0.00  0.00    +0.131 A 
ATOM     23  C   UNL     1      -0.971   4.011   1.015  0.00  0.00    +0.046 A 
ATOM     24  C   UNL     1      -2.196   4.640   0.922  0.00  0.00    +0.007 A 
ATOM     25  C   UNL     1      -2.580   5.237  -0.264  0.00  0.00    -0.047 A 
ATOM     26  C   UNL     1      -1.737   5.210  -1.359  0.00  0.00    -0.044 A 
ATOM     27  C   UNL     1      -0.507   4.585  -1.270  0.00  0.00    +0.050 A 
ATOM     28  C   UNL     1      -2.159   5.861  -2.651  0.00  0.00    +0.044 C 
ATOM     29  C   UNL     1      -3.921   5.919  -0.364  0.00  0.00    +0.044 C 
ENDBRANCH  21  22
ENDBRANCH   8  21
TORSDOF 6
