REMARK  Name = ZINC08683875
REMARK  8 active torsions:
REMARK  status: ('A' for Active; 'I' for Inactive)
REMARK    1  A    between atoms: C_3  and  C_7
REMARK    2  A    between atoms: C_7  and  N_8
REMARK    3  A    between atoms: C_9  and  C_11
REMARK    4  A    between atoms: N_13  and  C_14
REMARK    5  A    between atoms: C_14  and  C_15
REMARK    6  A    between atoms: C_15  and  C_17
REMARK    7  A    between atoms: C_15  and  N_22
REMARK    8  A    between atoms: N_25  and  C_28
REMARK                            x       y       z     vdW  Elec       q    Type
REMARK                         _______ _______ _______ _____ _____    ______ ____
ROOT
ATOM      1  C   UNL     1       8.508   4.713   4.673  0.00  0.00    +0.017 C 
ENDROOT
BRANCH   1   2
ATOM      2  N   UNL     1       9.672   4.206   3.933  0.00  0.00    +0.389 N 
ATOM      3  C   UNL     1      10.130   2.953   4.545  0.00  0.00    -0.059 C 
ATOM      4  C   UNL     1      11.271   2.364   3.708  0.00  0.00    +0.086 C 
ATOM      5  N   UNL     1      12.318   3.387   3.562  0.00  0.00    -0.333 N 
ATOM      6  C   UNL     1      11.919   4.728   3.108  0.00  0.00    +0.086 C 
ATOM      7  C   UNL     1      10.748   5.205   3.974  0.00  0.00    -0.059 C 
ATOM      8  H   UNL     1       9.411   4.034   2.974  0.00  0.00    -0.081 HD
BRANCH   5   9
ATOM      9  C   UNL     1      13.655   3.092   3.847  0.00  0.00    +0.030 A 
ATOM     10  C   UNL     1      14.030   1.792   4.156  0.00  0.00    +0.026 A 
ATOM     11  C   UNL     1      15.351   1.503   4.436  0.00  0.00    +0.040 A 
ATOM     12  C   UNL     1      16.302   2.510   4.408  0.00  0.00    +0.124 A 
ATOM     13  C   UNL     1      15.930   3.807   4.100  0.00  0.00    +0.040 A 
ATOM     14  C   UNL     1      14.611   4.099   3.814  0.00  0.00    +0.026 A 
ATOM     15  F   UNL     1      17.594   2.225   4.683  0.00  0.00    -0.205 F 
ENDBRANCH   5   9
ENDBRANCH   1   2
BRANCH   1  16
ATOM     16  C   UNL     1       8.920   5.064   6.079  0.00  0.00    +0.093 A 
ATOM     17  C   UNL     1       8.646   6.217   6.715  0.00  0.00    +0.043 A 
ATOM     18  C   UNL     1       9.217   6.120   8.004  0.00  0.00    +0.041 A 
ATOM     19  C   UNL     1       9.806   4.913   8.080  0.00  0.00    +0.195 A 
ATOM     20  O   UNL     1       9.618   4.275   6.913  0.00  0.00    -0.469 OA
ENDBRANCH   1  16
BRANCH   1  21
ATOM     21  C   UNL     1       7.421   3.637   4.713  0.00  0.00    +0.097 C 
BRANCH  21  24
ATOM     22  C   UNL     1       6.213   2.227   3.135  0.00  0.00    +0.299 C 
ATOM     23  O   UNL     1       5.726   1.639   4.078  0.00  0.00    -0.265 OA
ATOM     24  N   UNL     1       7.074   3.242   3.345  0.00  0.00    -0.309 N 
ATOM     25  H   UNL     1       7.464   3.712   2.591  0.00  0.00    +0.149 HD
BRANCH  22  27
ATOM     26  N   UNL     1       4.998   0.809   1.530  0.00  0.00    -0.303 N 
ATOM     27  C   UNL     1       5.859   1.824   1.740  0.00  0.00    +0.299 C 
ATOM     28  O   UNL     1       6.347   2.411   0.797  0.00  0.00    -0.265 OA
ATOM     29  H   UNL     1       4.609   0.339   2.284  0.00  0.00    +0.149 HD
BRANCH  26  30
ATOM     30  C   UNL     1       4.651   0.414   0.162  0.00  0.00    +0.141 C 
BRANCH  30  33
ATOM     31  C   UNL     1       1.455  -1.590   0.268  0.00  0.00    +0.020 A 
ATOM     32  C   UNL     1       2.313  -0.500   0.231  0.00  0.00    +0.008 A 
ATOM     33  C   UNL     1       3.679  -0.737   0.203  0.00  0.00    -0.012 A 
ATOM     34  C   UNL     1       4.137  -2.041   0.213  0.00  0.00    +0.115 A 
ATOM     35  N   UNL     1       3.292  -3.052   0.247  0.00  0.00    -0.263 NA
ATOM     36  C   UNL     1       1.987  -2.865   0.275  0.00  0.00    +0.111 A 
ENDBRANCH  30  33
ENDBRANCH  26  30
ENDBRANCH  22  27
ENDBRANCH  21  24
ENDBRANCH   1  21
TORSDOF 8
