REMARK  Name = ZINC64064264
REMARK  9 active torsions:
REMARK  status: ('A' for Active; 'I' for Inactive)
REMARK    1  A    between atoms: C_1  and  C_2
REMARK    2  A    between atoms: N_4  and  C_5
REMARK    3  A    between atoms: C_5  and  C_7
REMARK    4  A    between atoms: C_5  and  C_17
REMARK    5  A    between atoms: C_7  and  C_8
REMARK    6  A    between atoms: N_19  and  C_20
REMARK    7  A    between atoms: C_24  and  O_26
REMARK    8  A    between atoms: O_26  and  C_27
REMARK    9  A    between atoms: C_27  and  C_28
REMARK                            x       y       z     vdW  Elec       q    Type
REMARK                         _______ _______ _______ _____ _____    ______ ____
ROOT
ATOM      1  C   UNL     1      -0.999  -2.203   0.081  0.00  0.00    +0.163 C 
ENDROOT
BRANCH   1   5
ATOM      2  C   UNL     1       0.566   1.279   0.363  0.00  0.00    +0.109 C 
ATOM      3  C   UNL     1       0.398  -0.215   0.263  0.00  0.00    +0.211 C 
ATOM      4  O   UNL     1       1.373  -0.936   0.260  0.00  0.00    -0.276 OA
ATOM      5  N   UNL     1      -0.836  -0.750   0.178  0.00  0.00    -0.304 N 
ATOM      6  H   UNL     1      -1.616  -0.174   0.180  0.00  0.00    +0.149 HD
ENDBRANCH   1   5
BRANCH   1   7
ATOM      7  C   UNL     1      -0.297  -2.706  -1.154  0.00  0.00    +0.238 C 
ATOM      8  O   UNL     1       0.565  -2.034  -1.678  0.00  0.00    -0.273 OA
ATOM      9  N   UNL     1      -0.628  -3.904  -1.677  0.00  0.00    -0.284 N 
ATOM     10  H   UNL     1      -1.263  -4.475  -1.216  0.00  0.00    +0.155 HD
BRANCH   9  11
ATOM     11  C   UNL     1      -0.057  -4.322  -2.883  0.00  0.00    +0.037 A 
ATOM     12  C   UNL     1       0.195  -5.671  -3.102  0.00  0.00    +0.023 A 
ATOM     13  C   UNL     1       0.759  -6.084  -4.294  0.00  0.00    +0.005 A 
ATOM     14  C   UNL     1       1.074  -5.158  -5.270  0.00  0.00    +0.046 A 
ATOM     15  C   UNL     1       0.824  -3.810  -5.057  0.00  0.00    +0.122 A 
ATOM     16  C   UNL     1       0.252  -3.392  -3.865  0.00  0.00    +0.069 A 
BRANCH  15  17
ATOM     17  O   UNL     1       1.134  -2.901  -6.018  0.00  0.00    -0.489 OA
BRANCH  17  18
ATOM     18  C   UNL     1       1.715  -3.403  -7.223  0.00  0.00    +0.260 C 
BRANCH  18  19
ATOM     19  C   UNL     1       1.993  -2.240  -8.178  0.00  0.00    +0.156 C 
ATOM     20  C   UNL     1       2.706  -2.752  -9.455  0.00  0.00    +0.037 C 
ATOM     21  C   UNL     1       2.310  -1.651 -10.476  0.00  0.00    +0.031 C 
ATOM     22  C   UNL     1       0.888  -1.269 -10.011  0.00  0.00    +0.160 C 
ATOM     23  O   UNL     1       0.758  -1.668  -8.639  0.00  0.00    -0.373 OA
ENDBRANCH  18  19
ENDBRANCH  17  18
ENDBRANCH  15  17
ENDBRANCH   9  11
ENDBRANCH   1   7
BRANCH   1  24
ATOM     24  C   UNL     1      -0.393  -2.868   1.319  0.00  0.00    +0.065 C 
BRANCH  24  25
ATOM     25  C   UNL     1      -1.174  -2.460   2.541  0.00  0.00    -0.039 C 
ATOM     26  C   UNL     1      -2.187  -3.140   3.123  0.00  0.00    -0.001 A 
ATOM     27  C   UNL     1      -2.842  -4.414   2.804  0.00  0.00    +0.010 A 
ATOM     28  C   UNL     1      -3.854  -4.846   3.590  0.00  0.00    +0.001 A 
ATOM     29  C   UNL     1      -4.293  -4.109   4.699  0.00  0.00    +0.002 A 
ATOM     30  C   UNL     1      -3.741  -2.930   5.055  0.00  0.00    +0.026 A 
ATOM     31  C   UNL     1      -2.669  -2.381   4.300  0.00  0.00    +0.043 A 
ATOM     32  N   UNL     1      -1.980  -1.274   4.439  0.00  0.00    -0.380 N 
ATOM     33  C   UNL     1      -0.978  -1.209   3.369  0.00  0.00    +0.144 C 
ATOM     34  H   UNL     1      -2.108  -0.612   5.136  0.00  0.00    +0.160 HD
ENDBRANCH  24  25
ENDBRANCH   1  24
TORSDOF 8
