REMARK  Name = ZINC39947326
REMARK  9 active torsions:
REMARK  status: ('A' for Active; 'I' for Inactive)
REMARK    1  A    between atoms: C_1  and  C_2
REMARK    2  A    between atoms: C_2  and  N_3
REMARK    3  A    between atoms: C_4  and  C_24
REMARK    4  A    between atoms: C_8  and  S_9
REMARK    5  A    between atoms: S_9  and  C_10
REMARK    6  A    between atoms: C_10  and  C_11
REMARK    7  A    between atoms: C_11  and  C_13
REMARK    8  A    between atoms: C_21  and  C_23
REMARK    9  A    between atoms: C_24  and  N_25
REMARK                            x       y       z     vdW  Elec       q    Type
REMARK                         _______ _______ _______ _____ _____    ______ ____
ROOT
ATOM      1  N   UNL     1      -1.689  -0.482  -0.001  0.00  0.00    -0.288 N 
ATOM      2  C   UNL     1      -2.354  -0.676   1.299  0.00  0.00    +0.194 C 
ATOM      3  N   UNL     1      -3.749  -0.987   0.940  0.00  0.00    -0.245 N 
ATOM      4  N   UNL     1      -3.807  -0.957  -0.459  0.00  0.00    -0.163 NA
ATOM      5  C   UNL     1      -2.660  -0.670  -0.974  0.00  0.00    +0.175 C 
ATOM      6  H   UNL     1      -4.479  -1.174   1.550  0.00  0.00    +0.170 HD
ENDROOT
BRANCH   1   8
ATOM      7  C   UNL     1      -0.133   1.363  -0.390  0.00  0.00    +0.024 C 
ATOM      8  C   UNL     1      -0.280  -0.150  -0.223  0.00  0.00    +0.105 C 
ENDBRANCH   1   8
BRANCH   5   9
ATOM      9  S   UNL     1      -2.361  -0.537  -2.705  0.00  0.00    -0.081 S 
BRANCH   9  10
ATOM     10  C   UNL     1      -3.975  -0.880  -3.457  0.00  0.00    +0.156 C 
BRANCH  10  11
ATOM     11  C   UNL     1      -3.859  -0.798  -4.957  0.00  0.00    +0.172 C 
ATOM     12  O   UNL     1      -2.790  -0.533  -5.470  0.00  0.00    -0.291 OA
BRANCH  11  13
ATOM     13  C   UNL     1      -4.991  -1.029  -5.767  0.00  0.00    +0.027 C 
ATOM     14  C   UNL     1      -6.273  -1.333  -5.345  0.00  0.00    +0.006 A 
ATOM     15  C   UNL     1      -6.849  -1.506  -4.065  0.00  0.00    +0.010 A 
ATOM     16  C   UNL     1      -8.161  -1.808  -3.943  0.00  0.00    +0.001 A 
ATOM     17  C   UNL     1      -9.005  -1.963  -5.054  0.00  0.00    +0.002 A 
ATOM     18  C   UNL     1      -8.555  -1.820  -6.319  0.00  0.00    +0.026 A 
ATOM     19  C   UNL     1      -7.137  -1.490  -6.541  0.00  0.00    +0.043 A 
ATOM     20  N   UNL     1      -6.449  -1.298  -7.630  0.00  0.00    -0.377 N 
ATOM     21  C   UNL     1      -5.059  -0.988  -7.278  0.00  0.00    +0.111 C 
ATOM     22  C   UNL     1      -4.121  -2.038  -7.876  0.00  0.00    +0.035 C 
ATOM     23  H   UNL     1      -6.801  -1.348  -8.532  0.00  0.00    +0.160 HD
ENDBRANCH  11  13
ENDBRANCH  10  11
ENDBRANCH   9  10
ENDBRANCH   5   9
BRANCH   2  24
ATOM     24  C   UNL     1      -2.284   0.604   2.134  0.00  0.00    +0.151 C 
BRANCH  24  25
ATOM     25  N   UNL     1      -2.811   0.341   3.475  0.00  0.00    -0.298 N 
ATOM     26  C   UNL     1      -4.261   0.412   3.718  0.00  0.00    +0.108 C 
ATOM     27  C   UNL     1      -4.794  -1.007   3.921  0.00  0.00    +0.019 C 
ATOM     28  C   UNL     1      -4.663  -1.431   5.373  0.00  0.00    +0.002 C 
ATOM     29  C   UNL     1      -3.227  -1.592   5.838  0.00  0.00    +0.009 C 
ATOM     30  C   UNL     1      -2.509  -0.241   5.857  0.00  0.00    +0.096 C 
ATOM     31  C   UNL     1      -1.974   0.034   4.468  0.00  0.00    +0.216 C 
ATOM     32  O   UNL     1      -0.781  -0.022   4.257  0.00  0.00    -0.276 OA
ENDBRANCH  24  25
ENDBRANCH   2  24
TORSDOF 7
