REMARK  Name = ZINC15376003
REMARK  4 active torsions:
REMARK  status: ('A' for Active; 'I' for Inactive)
REMARK    1  A    between atoms: C_1  and  C_2
REMARK    2  A    between atoms: C_2  and  C_4
REMARK    3  A    between atoms: C_2  and  N_21
REMARK    4  A    between atoms: C_15  and  C_17
REMARK                            x       y       z     vdW  Elec       q    Type
REMARK                         _______ _______ _______ _____ _____    ______ ____
ROOT
ATOM      1  C   UNL     1      -1.451  -0.383  -0.121  0.00  0.00    +0.206 C 
ATOM      2  O   UNL     1      -1.856  -0.912  -1.135  0.00  0.00    -0.277 OA
ATOM      3  N   UNL     1      -2.301  -0.134   0.895  0.00  0.00    -0.262 N 
ATOM      4  C   UNL     1      -1.837   0.512   2.131  0.00  0.00    +0.209 C 
ATOM      5  C   UNL     1      -2.468  -0.177   3.313  0.00  0.00    +0.235 C 
ATOM      6  O   UNL     1      -1.884  -0.201   4.376  0.00  0.00    -0.274 OA
ATOM      7  N   UNL     1      -3.674  -0.767   3.204  0.00  0.00    -0.283 N 
ATOM      8  C   UNL     1      -4.347  -0.797   1.979  0.00  0.00    +0.056 A 
ATOM      9  C   UNL     1      -3.659  -0.477   0.804  0.00  0.00    +0.058 A 
ATOM     10  C   UNL     1      -4.309  -0.503  -0.416  0.00  0.00    +0.026 A 
ATOM     11  C   UNL     1      -5.650  -0.842  -0.473  0.00  0.00    +0.014 A 
ATOM     12  C   UNL     1      -6.338  -1.153   0.686  0.00  0.00    +0.057 A 
ATOM     13  C   UNL     1      -5.689  -1.137   1.915  0.00  0.00    +0.037 A 
ATOM     14  H   UNL     1      -4.080  -1.176   3.985  0.00  0.00    +0.155 HD
ENDROOT
BRANCH  12  15
ATOM     15  C   UNL     1      -7.798  -1.517   0.615  0.00  0.00    +0.417 C 
ATOM     16  F   UNL     1      -8.226  -1.472  -0.716  0.00  0.00    -0.166 F 
ATOM     17  F   UNL     1      -7.981  -2.809   1.120  0.00  0.00    -0.166 F 
ATOM     18  F   UNL     1      -8.543  -0.610   1.376  0.00  0.00    -0.166 F 
ENDBRANCH  12  15
BRANCH   1  20
ATOM     19  C   UNL     1       0.184   1.459  -0.407  0.00  0.00    -0.004 C 
ATOM     20  C   UNL     1       0.002  -0.004   0.002  0.00  0.00    +0.017 C 
BRANCH  20  21
ATOM     21  N   UNL     1       0.808  -0.862  -0.877  0.00  0.00    +0.387 N 
ATOM     22  C   UNL     1       0.662  -2.262  -0.460  0.00  0.00    -0.078 C 
ATOM     23  C   UNL     1       1.435  -3.167  -1.421  0.00  0.00    -0.019 C 
ATOM     24  C   UNL     1       2.916  -2.779  -1.401  0.00  0.00    -0.004 C 
ATOM     25  C   UNL     1       3.050  -1.297  -1.766  0.00  0.00    -0.019 C 
ATOM     26  C   UNL     1       2.217  -0.461  -0.792  0.00  0.00    -0.078 C 
ATOM     27  H   UNL     1       0.488  -0.762  -1.829  0.00  0.00    -0.081 HD
ENDBRANCH  20  21
ENDBRANCH   1  20
TORSDOF 3
