REMARK  Name = ZINC08635335
REMARK  11 active torsions:
REMARK  status: ('A' for Active; 'I' for Inactive)
REMARK    1  A    between atoms: C_1  and  N_2
REMARK    2  A    between atoms: C_3  and  C_13
REMARK    3  A    between atoms: C_5  and  C_7
REMARK    4  A    between atoms: C_21  and  C_23
REMARK    5  A    between atoms: C_23  and  N_24
REMARK    6  A    between atoms: N_24  and  C_25
REMARK    7  A    between atoms: C_25  and  N_27
REMARK    8  A    between atoms: N_27  and  C_28
REMARK    9  A    between atoms: C_32  and  C_34
REMARK   10  A    between atoms: C_34  and  O_36
REMARK   11  A    between atoms: O_36  and  C_37
REMARK                            x       y       z     vdW  Elec       q    Type
REMARK                         _______ _______ _______ _____ _____    ______ ____
ROOT
ATOM      1  C   UNL     1       5.353   7.262  -1.464  0.00  0.00    +0.024 C 
ATOM      2  C   UNL     1       4.725   7.677  -2.797  0.00  0.00    -0.068 C 
ATOM      3  C   UNL     1       4.132   9.850  -1.902  0.00  0.00    -0.078 C 
ATOM      4  C   UNL     1       4.747   9.496  -0.545  0.00  0.00    -0.015 C 
ATOM      5  C   UNL     1       4.623   7.984  -0.324  0.00  0.00    -0.007 C 
ATOM      6  C   UNL     1       3.139   7.601  -0.374  0.00  0.00    -0.010 C 
ATOM      7  C   UNL     1       2.569   8.008  -1.736  0.00  0.00    -0.051 C 
ATOM      8  N   UNL     1       3.619   8.634  -2.569  0.00  0.00    +0.383 N 
ATOM      9  H   UNL     1       3.213   8.897  -3.474  0.00  0.00    -0.081 HD
ENDROOT
BRANCH   1  12
ATOM     10  C   UNL     1       5.910   5.089  -3.598  0.00  0.00    +0.172 C 
ATOM     11  N   UNL     1       5.466   4.834  -2.225  0.00  0.00    -0.271 N 
ATOM     12  C   UNL     1       5.220   5.771  -1.285  0.00  0.00    +0.041 A 
ATOM     13  C   UNL     1       4.828   5.139  -0.157  0.00  0.00    +0.053 A 
ATOM     14  C   UNL     1       4.842   3.754  -0.413  0.00  0.00    +0.093 A 
ATOM     15  N   UNL     1       5.224   3.575  -1.660  0.00  0.00    -0.171 NA
BRANCH  14  16
ATOM     16  C   UNL     1       4.484   2.684   0.552  0.00  0.00    +0.002 A 
ATOM     17  C   UNL     1       4.536   1.347   0.165  0.00  0.00    +0.010 A 
ATOM     18  C   UNL     1       4.202   0.356   1.066  0.00  0.00    +0.001 A 
ATOM     19  C   UNL     1       3.811   0.690   2.350  0.00  0.00    +0.000 A 
ATOM     20  C   UNL     1       3.763   2.015   2.742  0.00  0.00    +0.001 A 
ATOM     21  C   UNL     1       4.095   3.014   1.849  0.00  0.00    +0.010 A 
ENDBRANCH  14  16
ENDBRANCH   1  12
BRANCH   7  22
ATOM     22  C   UNL     1       2.037   6.768  -2.458  0.00  0.00    +0.088 C 
BRANCH  22  23
ATOM     23  N   UNL     1       1.604   7.137  -3.808  0.00  0.00    -0.328 N 
ATOM     24  H   UNL     1       1.683   8.056  -4.109  0.00  0.00    +0.148 HD
BRANCH  23  25
ATOM     25  C   UNL     1       1.096   6.199  -4.633  0.00  0.00    +0.134 C 
ATOM     26  S   UNL     1       0.957   4.578  -4.102  0.00  0.00    -0.019 S 
BRANCH  25  27
ATOM     27  N   UNL     1       0.698   6.539  -5.875  0.00  0.00    -0.297 N 
ATOM     28  H   UNL     1       0.789   7.455  -6.180  0.00  0.00    +0.154 HD
BRANCH  27  29
ATOM     29  C   UNL     1       0.155   5.569  -6.725  0.00  0.00    +0.033 A 
ATOM     30  C   UNL     1       0.754   4.319  -6.826  0.00  0.00    +0.023 A 
ATOM     31  C   UNL     1       0.219   3.356  -7.660  0.00  0.00    +0.003 A 
ATOM     32  C   UNL     1      -0.908   3.632  -8.407  0.00  0.00    +0.015 A 
ATOM     33  C   UNL     1      -1.515   4.887  -8.317  0.00  0.00    +0.061 A 
ATOM     34  C   UNL     1      -0.977   5.857  -7.470  0.00  0.00    +0.038 A 
BRANCH  33  35
ATOM     35  C   UNL     1      -2.721   5.186  -9.115  0.00  0.00    +0.339 C 
ATOM     36  O   UNL     1      -3.247   6.278  -9.036  0.00  0.00    -0.245 OA
BRANCH  35  37
ATOM     37  O   UNL     1      -3.239   4.247  -9.932  0.00  0.00    -0.464 OA
ATOM     38  C   UNL     1      -4.425   4.611 -10.686  0.00  0.00    +0.280 C 
ENDBRANCH  35  37
ENDBRANCH  33  35
ENDBRANCH  27  29
ENDBRANCH  25  27
ENDBRANCH  23  25
ENDBRANCH  22  23
ENDBRANCH   7  22
TORSDOF 9
