REMARK  Name = ZINC16608091
REMARK  9 active torsions:
REMARK  status: ('A' for Active; 'I' for Inactive)
REMARK    1  A    between atoms: C_1  and  C_2
REMARK    2  A    between atoms: C_2  and  C_3
REMARK    3  A    between atoms: C_3  and  C_5
REMARK    4  A    between atoms: C_3  and  C_6
REMARK    5  A    between atoms: C_6  and  C_8
REMARK    6  A    between atoms: C_6  and  N_25
REMARK    7  A    between atoms: C_14  and  C_16
REMARK    8  A    between atoms: C_26  and  C_28
REMARK    9  A    between atoms: C_32  and  C_34
REMARK                            x       y       z     vdW  Elec       q    Type
REMARK                         _______ _______ _______ _____ _____    ______ ____
ROOT
ATOM      1  C   UNL     1       0.820   7.681  -0.153  0.00  0.00    +0.162 C 
ENDROOT
BRANCH   1   2
ATOM      2  C   UNL     1       2.128   8.241   0.344  0.00  0.00    +0.239 C 
ATOM      3  O   UNL     1       2.989   7.494   0.759  0.00  0.00    -0.273 OA
ATOM      4  N   UNL     1       2.342   9.571   0.327  0.00  0.00    -0.262 N 
ATOM      5  C   UNL     1       3.584  10.080   0.687  0.00  0.00    +0.188 A 
ATOM      6  N   UNL     1       4.685   9.448   1.074  0.00  0.00    -0.125 NA
ATOM      7  N   UNL     1       5.742  10.070   1.368  0.00  0.00    -0.140 NA
ATOM      8  C   UNL     1       5.817  11.394   1.308  0.00  0.00    +0.134 A 
ATOM      9  S   UNL     1       4.158  11.775   0.753  0.00  0.00    -0.030 S 
ATOM     10  H   UNL     1       1.629  10.174   0.064  0.00  0.00    +0.157 HD
BRANCH   8  11
ATOM     11  C   UNL     1       6.949  12.296   1.608  0.00  0.00    +0.013 A 
ATOM     12  C   UNL     1       6.798  13.677   1.473  0.00  0.00    +0.014 A 
ATOM     13  C   UNL     1       7.856  14.517   1.752  0.00  0.00    +0.050 A 
ATOM     14  C   UNL     1       9.071  13.994   2.169  0.00  0.00    +0.166 A 
ATOM     15  C   UNL     1       9.228  12.615   2.306  0.00  0.00    +0.167 A 
ATOM     16  C   UNL     1       8.170  11.769   2.032  0.00  0.00    +0.060 A 
ATOM     17  O   UNL     1      10.503  12.361   2.724  0.00  0.00    -0.453 OA
ATOM     18  C   UNL     1      10.997  13.614   3.234  0.00  0.00    +0.466 C 
ATOM     19  O   UNL     1      10.248  14.601   2.501  0.00  0.00    -0.453 OA
ENDBRANCH   8  11
ENDBRANCH   1   2
BRANCH   1  20
ATOM     20  N   UNL     1       0.838   6.221  -0.035  0.00  0.00    -0.300 N 
ATOM     21  C   UNL     1      -0.306   5.551   0.209  0.00  0.00    +0.245 C 
ATOM     22  O   UNL     1      -1.334   6.163   0.428  0.00  0.00    -0.270 OA
ATOM     23  H   UNL     1       1.672   5.737  -0.132  0.00  0.00    +0.150 HD
BRANCH  21  24
ATOM     24  C   UNL     1      -0.311   4.073   0.209  0.00  0.00    +0.037 A 
ATOM     25  C   UNL     1       0.867   3.368  -0.042  0.00  0.00    +0.013 A 
ATOM     26  C   UNL     1       0.855   1.988  -0.041  0.00  0.00    +0.001 A 
ATOM     27  C   UNL     1      -0.321   1.304   0.209  0.00  0.00    +0.012 A 
ATOM     28  C   UNL     1      -1.493   1.996   0.454  0.00  0.00    +0.056 A 
ATOM     29  C   UNL     1      -1.494   3.376   0.461  0.00  0.00    +0.025 A 
BRANCH  28  30
ATOM     30  C   UNL     1      -2.771   1.242   0.719  0.00  0.00    +0.417 C 
ATOM     31  F   UNL     1      -2.520  -0.133   0.665  0.00  0.00    -0.166 F 
ATOM     32  F   UNL     1      -3.256   1.579   1.987  0.00  0.00    -0.166 F 
ATOM     33  F   UNL     1      -3.722   1.581  -0.250  0.00  0.00    -0.166 F 
ENDBRANCH  28  30
ENDBRANCH  21  24
ENDBRANCH   1  20
BRANCH   1  34
ATOM     34  C   UNL     1       0.622   8.073  -1.618  0.00  0.00    +0.015 C 
ATOM     35  C   UNL     1      -0.776   7.650  -2.074  0.00  0.00    +0.010 C 
BRANCH  34  37
ATOM     36  C   UNL     1       3.059   7.932  -2.153  0.00  0.00    +0.004 C 
ATOM     37  C   UNL     1       1.673   7.371  -2.480  0.00  0.00    +0.002 C 
ENDBRANCH  34  37
ENDBRANCH   1  34
TORSDOF 7
