REMARK  Name = ZINC22851453
REMARK  8 active torsions:
REMARK  status: ('A' for Active; 'I' for Inactive)
REMARK    1  A    between atoms: C_6  and  N_7
REMARK    2  A    between atoms: N_10  and  C_13
REMARK    3  A    between atoms: C_13  and  C_15
REMARK    4  A    between atoms: C_13  and  C_29
REMARK    5  A    between atoms: C_15  and  N_16
REMARK    6  A    between atoms: C_17  and  C_19
REMARK    7  A    between atoms: N_21  and  C_22
REMARK    8  A    between atoms: C_22  and  C_23
REMARK                            x       y       z     vdW  Elec       q    Type
REMARK                         _______ _______ _______ _____ _____    ______ ____
ROOT
ATOM      1  C   UNL     1      -2.591   0.994  -0.012  0.00  0.00    +0.104 C 
ENDROOT
BRANCH   1   2
ATOM      2  C   UNL     1      -1.230   1.642  -0.041  0.00  0.00    -0.025 A 
ATOM      3  C   UNL     1      -1.122   3.013  -0.186  0.00  0.00    +0.009 A 
ATOM      4  C   UNL     1       0.124   3.611  -0.220  0.00  0.00    +0.050 A 
ATOM      5  C   UNL     1       1.268   2.838  -0.100  0.00  0.00    +0.166 A 
ATOM      6  C   UNL     1       1.158   1.458   0.055  0.00  0.00    +0.167 A 
ATOM      7  C   UNL     1      -0.094   0.866   0.087  0.00  0.00    +0.054 A 
ATOM      8  O   UNL     1       2.413   0.929   0.151  0.00  0.00    -0.453 OA
ATOM      9  C   UNL     1       3.298   1.945  -0.355  0.00  0.00    +0.466 C 
ATOM     10  O   UNL     1       2.591   3.173  -0.101  0.00  0.00    -0.453 OA
ENDBRANCH   1   2
BRANCH   1  14
ATOM     11  N   UNL     1      -6.016   2.759   1.719  0.00  0.00    -0.327 N 
ATOM     12  C   UNL     1      -5.088   3.631   0.986  0.00  0.00    +0.120 C 
ATOM     13  C   UNL     1      -4.224   2.781   0.051  0.00  0.00    +0.104 C 
ATOM     14  N   UNL     1      -3.490   1.782   0.841  0.00  0.00    -0.291 NA
ATOM     15  C   UNL     1      -4.418   0.910   1.575  0.00  0.00    +0.104 C 
ATOM     16  C   UNL     1      -5.282   1.760   2.509  0.00  0.00    +0.120 C 
BRANCH  11  22
ATOM     17  C   UNL     1      -6.764   4.893   2.565  0.00  0.00    +0.026 A 
ATOM     18  C   UNL     1      -7.615   5.632   3.364  0.00  0.00    +0.040 A 
ATOM     19  C   UNL     1      -8.567   4.993   4.139  0.00  0.00    +0.124 A 
ATOM     20  C   UNL     1      -8.674   3.613   4.112  0.00  0.00    +0.040 A 
ATOM     21  C   UNL     1      -7.829   2.870   3.310  0.00  0.00    +0.026 A 
ATOM     22  C   UNL     1      -6.873   3.509   2.531  0.00  0.00    +0.030 A 
ATOM     23  F   UNL     1      -9.395   5.718   4.924  0.00  0.00    -0.205 F 
ENDBRANCH  11  22
ENDBRANCH   1  14
BRANCH   1  24
ATOM     24  C   UNL     1      -3.157   0.935  -1.432  0.00  0.00    +0.128 C 
BRANCH  24  25
ATOM     25  N   UNL     1      -4.454   0.254  -1.413  0.00  0.00    -0.306 N 
ATOM     26  C   UNL     1      -5.204   0.202  -2.531  0.00  0.00    +0.299 C 
ATOM     27  O   UNL     1      -4.805   0.718  -3.554  0.00  0.00    -0.265 OA
ATOM     28  H   UNL     1      -4.816  -0.214  -0.485  0.00  0.00    +0.149 HD
BRANCH  26  29
ATOM     29  C   UNL     1      -6.528  -0.492  -2.511  0.00  0.00    +0.299 C 
ATOM     30  O   UNL     1      -6.927  -1.009  -1.488  0.00  0.00    -0.265 OA
ATOM     31  N   UNL     1      -7.278  -0.545  -3.630  0.00  0.00    -0.305 N 
ATOM     32  H   UNL     1      -6.916  -0.077  -4.557  0.00  0.00    +0.149 HD
BRANCH  31  33
ATOM     33  C   UNL     1      -8.575  -1.226  -3.610  0.00  0.00    +0.136 C 
BRANCH  33  34
ATOM     34  C   UNL     1      -9.217  -1.141  -4.996  0.00  0.00    +0.135 C 
ATOM     35  C   UNL     1     -10.639  -1.742  -4.968  0.00  0.00    +0.035 C 
ATOM     36  C   UNL     1     -10.771  -2.458  -6.331  0.00  0.00    +0.031 C 
ATOM     37  C   UNL     1      -9.412  -2.206  -7.021  0.00  0.00    +0.160 C 
ATOM     38  O   UNL     1      -8.489  -1.959  -5.938  0.00  0.00    -0.375 OA
ENDBRANCH  33  34
ENDBRANCH  31  33
ENDBRANCH  26  29
ENDBRANCH  24  25
ENDBRANCH   1  24
TORSDOF 8
