REMARK  Name = ZINC03364966
REMARK  7 active torsions:
REMARK  status: ('A' for Active; 'I' for Inactive)
REMARK    1  A    between atoms: C_11  and  C_14
REMARK    2  A    between atoms: C_14  and  C_15
REMARK    3  A    between atoms: N_17  and  N_18
REMARK    4  A    between atoms: C_19  and  C_21
REMARK    5  A    between atoms: C_24  and  C_27
REMARK    6  A    between atoms: C_27  and  S_28
REMARK    7  A    between atoms: S_28  and  C_29
REMARK                            x       y       z     vdW  Elec       q    Type
REMARK                         _______ _______ _______ _____ _____    ______ ____
ROOT
ATOM      1  N   UNL     1      11.540   5.784   1.094  0.00  0.00    -0.230 N 
ATOM      2  C   UNL     1      10.870   5.649  -0.068  0.00  0.00    +0.260 C 
ATOM      3  O   UNL     1      11.455   5.782  -1.126  0.00  0.00    -0.269 OA
ATOM      4  H   UNL     1      11.073   5.678   1.937  0.00  0.00    +0.173 HD
ENDROOT
BRANCH   2   5
ATOM      5  C   UNL     1       9.424   5.341  -0.057  0.00  0.00    +0.038 A 
ATOM      6  C   UNL     1       8.728   5.201  -1.258  0.00  0.00    +0.013 A 
ATOM      7  C   UNL     1       7.378   4.913  -1.240  0.00  0.00    +0.005 A 
ATOM      8  C   UNL     1       6.716   4.763  -0.035  0.00  0.00    -0.037 A 
ATOM      9  C   UNL     1       7.399   4.906   1.160  0.00  0.00    +0.005 A 
ATOM     10  C   UNL     1       8.750   5.188   1.156  0.00  0.00    +0.013 A 
BRANCH   8  11
ATOM     11  C   UNL     1       5.242   4.449  -0.023  0.00  0.00    +0.112 C 
BRANCH  11  12
ATOM     12  S   UNL     1       5.008   2.654  -0.030  0.00  0.00    -0.083 S 
BRANCH  12  13
ATOM     13  C   UNL     1       3.248   2.575  -0.015  0.00  0.00    +0.168 A 
ATOM     14  N   UNL     1       2.514   1.422  -0.014  0.00  0.00    -0.333 N 
ATOM     15  H   UNL     1       2.874   0.489  -0.022  0.00  0.00    +0.168 HD
ATOM     16  C   UNL     1       1.178   1.787   0.000  0.00  0.00    +0.067 A 
ATOM     17  C   UNL     1      -0.013   1.076   0.008  0.00  0.00    +0.028 A 
ATOM     18  C   UNL     1      -1.216   1.751   0.017  0.00  0.00    +0.002 A 
ATOM     19  C   UNL     1      -1.243   3.138   0.030  0.00  0.00    +0.002 A 
ATOM     20  C   UNL     1      -0.071   3.860   0.023  0.00  0.00    +0.030 A 
ATOM     21  C   UNL     1       1.156   3.191   0.008  0.00  0.00    +0.090 A 
ATOM     22  N   UNL     1       2.448   3.612  -0.001  0.00  0.00    -0.222 NA
ENDBRANCH  12  13
ENDBRANCH  11  12
ENDBRANCH   8  11
ENDBRANCH   2   5
BRANCH   1  25
ATOM     23  C   UNL     1      13.580   6.210   2.244  0.00  0.00    +0.234 C 
ATOM     24  O   UNL     1      12.996   6.078   3.299  0.00  0.00    -0.274 OA
ATOM     25  N   UNL     1      12.910   6.076   1.083  0.00  0.00    -0.234 N 
ATOM     26  H   UNL     1      13.377   6.181   0.239  0.00  0.00    +0.173 HD
BRANCH  23  27
ATOM     27  C   UNL     1      15.054   6.524   2.232  0.00  0.00    +0.136 C 
BRANCH  27  38
ATOM     28  C   UNL     1      16.334   1.323   4.113  0.00  0.00    +0.001 A 
ATOM     29  C   UNL     1      15.858   2.082   3.047  0.00  0.00    +0.001 A 
ATOM     30  C   UNL     1      15.741   3.437   3.150  0.00  0.00    +0.009 A 
ATOM     31  C   UNL     1      16.102   4.075   4.341  0.00  0.00    -0.007 A 
ATOM     32  C   UNL     1      16.586   3.306   5.428  0.00  0.00    -0.017 A 
ATOM     33  C   UNL     1      16.694   1.913   5.287  0.00  0.00    +0.008 A 
ATOM     34  C   UNL     1      16.948   3.950   6.626  0.00  0.00    +0.012 A 
ATOM     35  C   UNL     1      16.850   5.297   6.756  0.00  0.00    +0.047 A 
ATOM     36  C   UNL     1      16.374   6.103   5.716  0.00  0.00    +0.136 A 
ATOM     37  C   UNL     1      15.995   5.519   4.503  0.00  0.00    +0.031 A 
ATOM     38  C   UNL     1      15.558   6.622   3.649  0.00  0.00    +0.007 A 
ATOM     39  C   UNL     1      15.691   7.738   4.384  0.00  0.00    +0.200 A 
ATOM     40  O   UNL     1      16.171   7.431   5.600  0.00  0.00    -0.463 OA
ENDBRANCH  27  38
ENDBRANCH  23  27
ENDBRANCH   1  25
TORSDOF 7
