REMARK  Name = ZINC02780231
REMARK  8 active torsions:
REMARK  status: ('A' for Active; 'I' for Inactive)
REMARK    1  A    between atoms: C_1  and  C_2
REMARK    2  A    between atoms: C_2  and  C_23
REMARK    3  A    between atoms: C_4  and  N_9
REMARK    4  A    between atoms: C_6  and  C_7
REMARK    5  A    between atoms: C_6  and  C_8
REMARK    6  A    between atoms: C_10  and  C_12
REMARK    7  A    between atoms: C_14  and  C_18
REMARK    8  A    between atoms: N_16  and  C_17
REMARK                            x       y       z     vdW  Elec       q    Type
REMARK                         _______ _______ _______ _____ _____    ______ ____
ROOT
ATOM      1  N   UNL     1      -0.012   0.956  -0.007  0.00  0.00    -0.307 N 
ATOM      2  C   UNL     1       1.144   1.650  -0.001  0.00  0.00    +0.263 C 
ATOM      3  O   UNL     1       1.125   2.864  -0.074  0.00  0.00    -0.268 OA
ATOM      4  H   UNL     1       0.004  -0.013  -0.024  0.00  0.00    +0.149 HD
ENDROOT
BRANCH   1   8
ATOM      5  C   UNL     1      -3.749   2.574  -1.681  0.00  0.00    -0.010 C 
ATOM      6  C   UNL     1      -3.723   1.489  -0.598  0.00  0.00    -0.072 C 
ATOM      7  C   UNL     1      -2.371   0.780  -0.618  0.00  0.00    +0.009 C 
ATOM      8  C   UNL     1      -1.296   1.669   0.007  0.00  0.00    +0.071 C 
ATOM      9  C   UNL     1      -1.691   1.966   1.453  0.00  0.00    +0.009 C 
ATOM     10  C   UNL     1      -3.036   2.687   1.500  0.00  0.00    -0.072 C 
ATOM     11  C   UNL     1      -2.848   4.149   1.076  0.00  0.00    -0.010 C 
ATOM     12  C   UNL     1      -3.509   2.695   2.970  0.00  0.00    -0.010 C 
ATOM     13  C   UNL     1      -4.801   0.446  -0.970  0.00  0.00    -0.010 C 
ATOM     14  N   UNL     1      -4.126   2.032   0.727  0.00  0.00    +0.386 N 
ATOM     15  H   UNL     1      -4.493   1.256   1.291  0.00  0.00    -0.084 HD
ATOM     16  H   UNL     1      -4.868   2.725   0.575  0.00  0.00    -0.084 HD
ENDBRANCH   1   8
BRANCH   2  17
ATOM     17  C   UNL     1       2.427   0.939   0.095  0.00  0.00    +0.137 A 
ATOM     18  C   UNL     1       3.285   0.627  -0.948  0.00  0.00    +0.080 A 
ATOM     19  C   UNL     1       4.359  -0.043  -0.355  0.00  0.00    +0.180 A 
ATOM     20  N   UNL     1       4.130  -0.110   0.932  0.00  0.00    -0.166 NA
ATOM     21  N   UNL     1       3.017   0.457   1.230  0.00  0.00    -0.261 N 
ATOM     22  C   UNL     1       2.461   0.567   2.581  0.00  0.00    +0.173 C 
ATOM     23 BR   UNL     1       3.053   1.025  -2.782  0.00  0.00    -0.046 Br
BRANCH  19  24
ATOM     24  C   UNL     1       5.566  -0.593  -1.071  0.00  0.00    +0.437 C 
ATOM     25  F   UNL     1       6.563   0.387  -1.122  0.00  0.00    -0.164 F 
ATOM     26  F   UNL     1       6.046  -1.712  -0.383  0.00  0.00    -0.164 F 
ATOM     27  F   UNL     1       5.208  -0.962  -2.372  0.00  0.00    -0.164 F 
ENDBRANCH  19  24
ENDBRANCH   2  17
TORSDOF 3
