REMARK  Name = ZINC05714882
REMARK  5 active torsions:
REMARK  status: ('A' for Active; 'I' for Inactive)
REMARK    1  A    between atoms: C_3  and  O_25
REMARK    2  A    between atoms: C_6  and  C_7
REMARK    3  A    between atoms: C_10  and  C_20
REMARK    4  A    between atoms: C_10  and  O_24
REMARK    5  A    between atoms: C_12  and  C_14
REMARK                            x       y       z     vdW  Elec       q    Type
REMARK                         _______ _______ _______ _____ _____    ______ ____
ROOT
ATOM      1  C   UNL     1      -0.353   6.614  -0.107  0.00  0.00    +0.269 C 
ATOM      2  O   UNL     1      -0.040   7.781   0.025  0.00  0.00    -0.268 OA
ATOM      3  N   UNL     1       0.590   5.652  -0.050  0.00  0.00    -0.148 N 
ATOM      4  C   UNL     1       2.041   5.879   0.051  0.00  0.00    +0.257 C 
ATOM      5  C   UNL     1       2.620   4.450   0.086  0.00  0.00    +0.119 C 
ATOM      6  C   UNL     1       1.400   3.563  -0.010  0.00  0.00    +0.045 C 
ATOM      7  N   UNL     1       0.353   4.279  -0.076  0.00  0.00    -0.183 NA
ENDROOT
BRANCH   1  13
ATOM      8  C   UNL     1      -2.143   4.904  -0.376  0.00  0.00    +0.016 A 
ATOM      9  C   UNL     1      -3.463   4.568  -0.580  0.00  0.00    +0.046 A 
ATOM     10  C   UNL     1      -4.417   5.565  -0.752  0.00  0.00    +0.117 A 
ATOM     11  C   UNL     1      -4.045   6.903  -0.714  0.00  0.00    +0.046 A 
ATOM     12  C   UNL     1      -2.728   7.247  -0.505  0.00  0.00    +0.016 A 
ATOM     13  C   UNL     1      -1.765   6.249  -0.331  0.00  0.00    +0.039 A 
BRANCH  10  14
ATOM     14  O   UNL     1      -5.716   5.229  -0.958  0.00  0.00    -0.507 OA
ATOM     15  H   UNL     1      -5.950   5.117  -1.890  0.00  0.00    +0.292 HD
ENDBRANCH  10  14
ENDBRANCH   1  13
BRANCH   6  16
ATOM     16  C   UNL     1       1.421   2.057  -0.020  0.00  0.00    +0.035 C 
ATOM     17  C   UNL     1      -0.014   1.526   0.004  0.00  0.00    +0.009 C 
ATOM     18  C   UNL     1       0.008  -0.004  -0.005  0.00  0.00    +0.001 C 
ATOM     19  C   UNL     1       0.713  -0.496  -1.271  0.00  0.00    +0.000 C 
ATOM     20  C   UNL     1       2.147   0.035  -1.295  0.00  0.00    +0.001 C 
ATOM     21  C   UNL     1       2.126   1.564  -1.285  0.00  0.00    +0.009 C 
ENDBRANCH   6  16
BRANCH   4  22
ATOM     22  C   UNL     1       2.554   6.645  -1.170  0.00  0.00    +0.438 C 
ATOM     23  F   UNL     1       1.931   7.896  -1.231  0.00  0.00    -0.166 F 
ATOM     24  F   UNL     1       3.938   6.818  -1.065  0.00  0.00    -0.166 F 
ATOM     25  F   UNL     1       2.261   5.922  -2.331  0.00  0.00    -0.166 F 
ENDBRANCH   4  22
BRANCH   4  26
ATOM     26  O   UNL     1       2.360   6.577   1.256  0.00  0.00    -0.363 OA
ATOM     27  H   UNL     1       1.959   7.455   1.321  0.00  0.00    +0.212 HD
ENDBRANCH   4  26
TORSDOF 5
