REMARK  Name = ZINC63330587
REMARK  6 active torsions:
REMARK  status: ('A' for Active; 'I' for Inactive)
REMARK    1  A    between atoms: C_1  and  C_2
REMARK    2  A    between atoms: C_2  and  C_3
REMARK    3  A    between atoms: C_3  and  C_4
REMARK    4  A    between atoms: C_3  and  C_6
REMARK    5  A    between atoms: C_4  and  C_5
REMARK    6  A    between atoms: C_14  and  C_31
REMARK                            x       y       z     vdW  Elec       q    Type
REMARK                         _______ _______ _______ _____ _____    ______ ____
ROOT
ATOM      1  C   UNL     1       0.526  -1.870  -1.153  0.00  0.00    +0.220 C 
ATOM      2  O   UNL     1      -0.139  -2.316  -0.242  0.00  0.00    -0.275 OA
ATOM      3  N   UNL     1       1.098  -2.706  -2.042  0.00  0.00    -0.281 N 
ATOM      4  C   UNL     1       1.848  -2.156  -3.178  0.00  0.00    +0.113 C 
ATOM      5  C   UNL     1       1.254  -2.693  -4.493  0.00  0.00    +0.052 C 
ATOM      6  C   UNL     1       1.053  -4.177  -4.308  0.00  0.00    -0.034 C 
ATOM      7  C   UNL     1       1.438  -5.215  -5.039  0.00  0.00    -0.000 A 
ATOM      8  C   UNL     1       2.098  -5.298  -6.352  0.00  0.00    +0.013 A 
ATOM      9  C   UNL     1       2.370  -6.550  -6.808  0.00  0.00    -0.050 A 
ATOM     10  C   UNL     1       2.056  -7.713  -6.098  0.00  0.00    +0.005 A 
ATOM     11  C   UNL     1       1.441  -7.730  -4.888  0.00  0.00    +0.026 A 
ATOM     12  C   UNL     1       1.096  -6.474  -4.309  0.00  0.00    +0.043 A 
ATOM     13  N   UNL     1       0.488  -6.202  -3.192  0.00  0.00    -0.375 N 
ATOM     14  C   UNL     1       0.311  -4.753  -3.106  0.00  0.00    +0.143 C 
ATOM     15  C   UNL     1       0.971  -4.155  -1.860  0.00  0.00    +0.165 C 
ATOM     16  C   UNL     1       0.197  -4.478  -0.623  0.00  0.00    +0.008 A 
ATOM     17  C   UNL     1      -1.097  -4.186  -0.249  0.00  0.00    +0.008 A 
ATOM     18  C   UNL     1      -1.513  -4.645   0.996  0.00  0.00    +0.000 A 
ATOM     19  C   UNL     1      -0.666  -5.361   1.818  0.00  0.00    +0.002 A 
ATOM     20  C   UNL     1       0.636  -5.659   1.449  0.00  0.00    +0.023 A 
ATOM     21  C   UNL     1       1.066  -5.205   0.202  0.00  0.00    +0.039 A 
ATOM     22  N   UNL     1       2.297  -5.358  -0.413  0.00  0.00    -0.283 N 
ATOM     23  C   UNL     1       2.331  -4.774  -1.629  0.00  0.00    +0.248 C 
ATOM     24  O   UNL     1       3.274  -4.750  -2.393  0.00  0.00    -0.273 OA
ATOM     25  C   UNL     1       3.046  -6.691  -8.148  0.00  0.00    +0.044 C 
ATOM     26  H   UNL     1       3.046  -5.829  -0.016  0.00  0.00    +0.155 HD
ATOM     27  H   UNL     1       0.201  -6.849  -2.530  0.00  0.00    +0.160 HD
ENDROOT
BRANCH   1  28
ATOM     28  C   UNL     1       0.713  -0.381  -1.291  0.00  0.00    +0.075 C 
BRANCH  28  30
ATOM     29  C   UNL     1      -0.186   1.692  -2.357  0.00  0.00    +0.004 C 
ATOM     30  C   UNL     1      -0.439   0.204  -2.111  0.00  0.00    +0.009 C 
ENDBRANCH  28  30
BRANCH  28  31
ATOM     31  C   UNL     1       0.729   0.262   0.097  0.00  0.00    +0.009 C 
ATOM     32  C   UNL     1       1.962  -0.216   0.866  0.00  0.00    +0.004 C 
ENDBRANCH  28  31
ENDBRANCH   1  28
TORSDOF 3
