REMARK  Name = ZINC29787690
REMARK  11 active torsions:
REMARK  status: ('A' for Active; 'I' for Inactive)
REMARK    1  A    between atoms: C_1  and  C_2
REMARK    2  A    between atoms: C_2  and  C_26
REMARK    3  A    between atoms: C_4  and  N_10
REMARK    4  A    between atoms: C_6  and  C_8
REMARK    5  A    between atoms: C_6  and  C_9
REMARK    6  A    between atoms: C_11  and  C_13
REMARK    7  A    between atoms: C_13  and  C_14
REMARK    8  A    between atoms: C_14  and  C_15
REMARK    9  A    between atoms: C_18  and  S_21
REMARK   10  A    between atoms: S_21  and  N_24
REMARK   11  A    between atoms: N_24  and  C_25
REMARK                            x       y       z     vdW  Elec       q    Type
REMARK                         _______ _______ _______ _____ _____    ______ ____
ROOT
ATOM      1  N   UNL     1      -2.652   2.814   8.614  0.00  0.00    -0.313 N 
ATOM      2  C   UNL     1      -3.140   3.075   7.385  0.00  0.00    +0.214 C 
ATOM      3  O   UNL     1      -4.205   3.642   7.263  0.00  0.00    -0.276 OA
ATOM      4  H   UNL     1      -1.686   2.299   8.725  0.00  0.00    +0.149 HD
ENDROOT
BRANCH   1   8
ATOM      5  C   UNL     1      -5.232   2.252  12.142  0.00  0.00    -0.010 C 
ATOM      6  C   UNL     1      -3.777   2.728  12.239  0.00  0.00    -0.072 C 
ATOM      7  C   UNL     1      -3.021   2.317  10.978  0.00  0.00    +0.009 C 
ATOM      8  C   UNL     1      -3.410   3.217   9.806  0.00  0.00    +0.070 C 
ATOM      9  C   UNL     1      -3.057   4.660  10.163  0.00  0.00    +0.009 C 
ATOM     10  C   UNL     1      -3.816   5.099  11.412  0.00  0.00    -0.072 C 
ATOM     11  N   UNL     1      -3.709   4.151  12.501  0.00  0.00    +0.386 N 
ATOM     12  C   UNL     1      -5.283   5.367  11.053  0.00  0.00    -0.010 C 
ATOM     13  C   UNL     1      -3.208   6.441  11.879  0.00  0.00    -0.010 C 
ATOM     14  C   UNL     1      -3.133   1.987  13.431  0.00  0.00    -0.010 C 
ATOM     15  H   UNL     1      -4.525   4.438  13.181  0.00  0.00    -0.084 HD
ATOM     16  H   UNL     1      -2.742   4.392  12.966  0.00  0.00    -0.084 HD
ENDBRANCH   1   8
BRANCH   2  17
ATOM     17  C   UNL     1      -2.362   2.661   6.163  0.00  0.00    +0.100 C 
BRANCH  17  18
ATOM     18  C   UNL     1      -3.131   3.072   4.906  0.00  0.00    +0.044 C 
BRANCH  18  19
ATOM     19  C   UNL     1      -2.353   2.659   3.683  0.00  0.00    -0.047 A 
ATOM     20  C   UNL     1      -2.559   1.412   3.121  0.00  0.00    +0.005 A 
ATOM     21  C   UNL     1      -1.846   1.033   2.000  0.00  0.00    +0.029 A 
ATOM     22  C   UNL     1      -0.927   1.900   1.439  0.00  0.00    +0.105 A 
ATOM     23  C   UNL     1      -0.717   3.145   2.004  0.00  0.00    +0.029 A 
ATOM     24  C   UNL     1      -1.434   3.526   3.123  0.00  0.00    +0.005 A 
BRANCH  22  25
ATOM     25  S   UNL     1      -0.017   1.417   0.010  0.00  0.00    +0.058 S 
ATOM     26  O   UNL     1       0.002  -0.004   0.002  0.00  0.00    -0.153 OA
ATOM     27  O   UNL     1       1.172   2.195   0.003  0.00  0.00    -0.153 OA
BRANCH  25  28
ATOM     28  N   UNL     1      -0.897   1.885  -1.312  0.00  0.00    -0.193 NA
ATOM     29  C   UNL     1      -1.125   3.309  -1.574  0.00  0.00    +0.127 C 
ATOM     30  H   UNL     1      -1.442   1.126  -1.892  0.00  0.00    +0.148 HD
ENDBRANCH  25  28
ENDBRANCH  22  25
ENDBRANCH  18  19
ENDBRANCH  17  18
ENDBRANCH   2  17
TORSDOF 6
