REMARK  Name = ZINC08884406
REMARK  13 active torsions:
REMARK  status: ('A' for Active; 'I' for Inactive)
REMARK    1  A    between atoms: C_1  and  C_2
REMARK    2  A    between atoms: C_2  and  C_3
REMARK    3  A    between atoms: C_2  and  C_4
REMARK    4  A    between atoms: C_2  and  C_5
REMARK    5  A    between atoms: C_8  and  C_11
REMARK    6  A    between atoms: C_14  and  S_17
REMARK    7  A    between atoms: N_15  and  C_16
REMARK    8  A    between atoms: S_17  and  C_18
REMARK    9  A    between atoms: C_18  and  C_19
REMARK   10  A    between atoms: C_19  and  C_21
REMARK   11  A    between atoms: C_21  and  C_31
REMARK   12  A    between atoms: C_31  and  O_33
REMARK   13  A    between atoms: O_33  and  C_34
REMARK                            x       y       z     vdW  Elec       q    Type
REMARK                         _______ _______ _______ _____ _____    ______ ____
ROOT
ATOM      1  C   UNL     1      -2.543   0.954   0.704  0.00  0.00    +0.157 C 
ENDROOT
BRANCH   1   2
ATOM      2  C   UNL     1      -1.199   1.570   0.995  0.00  0.00    +0.183 C 
ATOM      3  O   UNL     1      -1.095   2.775   1.112  0.00  0.00    -0.291 OA
BRANCH   2   4
ATOM      4  C   UNL     1      -0.064   0.749   1.131  0.00  0.00    +0.138 C 
ATOM      5  C   UNL     1       1.193   1.325   1.398  0.00  0.00    +0.110 C 
ATOM      6  N   UNL     1       1.434   2.652   1.543  0.00  0.00    -0.301 N 
ATOM      7  C   UNL     1       2.790   2.824   1.798  0.00  0.00    +0.054 A 
ATOM      8  C   UNL     1       3.578   3.944   2.026  0.00  0.00    +0.025 A 
ATOM      9  C   UNL     1       4.932   3.798   2.249  0.00  0.00    +0.002 A 
ATOM     10  C   UNL     1       5.509   2.539   2.247  0.00  0.00    +0.002 A 
ATOM     11  C   UNL     1       4.735   1.419   2.021  0.00  0.00    +0.025 A 
ATOM     12  C   UNL     1       3.372   1.554   1.796  0.00  0.00    +0.054 A 
ATOM     13  N   UNL     1       2.355   0.640   1.544  0.00  0.00    -0.301 N 
ATOM     14  H   UNL     1       0.774   3.360   1.480  0.00  0.00    +0.153 HD
ATOM     15  H   UNL     1       2.459  -0.323   1.483  0.00  0.00    +0.153 HD
BRANCH   4  16
ATOM     16  C   UNL     1      -0.189  -0.700   0.991  0.00  0.00    +0.345 C 
ATOM     17  O   UNL     1       0.793  -1.409   1.104  0.00  0.00    -0.245 OA
BRANCH  16  18
ATOM     18  O   UNL     1      -1.394  -1.252   0.736  0.00  0.00    -0.464 OA
ATOM     19  C   UNL     1      -1.442  -2.674   0.610  0.00  0.00    +0.280 C 
ENDBRANCH  16  18
ENDBRANCH   4  16
ENDBRANCH   2   4
ENDBRANCH   1   2
BRANCH   1  20
ATOM     20  S   UNL     1      -3.792   2.260   0.587  0.00  0.00    -0.078 S 
BRANCH  20  24
ATOM     21  C   UNL     1      -7.264   0.636  -0.169  0.00  0.00    +0.165 A 
ATOM     22  N   UNL     1      -6.466  -0.405  -0.111  0.00  0.00    -0.128 NA
ATOM     23  N   UNL     1      -5.263  -0.022   0.131  0.00  0.00    -0.122 NA
ATOM     24  C   UNL     1      -5.221   1.286   0.251  0.00  0.00    +0.192 A 
ATOM     25  N   UNL     1      -6.491   1.751   0.061  0.00  0.00    -0.305 N 
ATOM     26  C   UNL     1      -6.938   3.145   0.096  0.00  0.00    +0.153 C 
BRANCH  21  30
ATOM     27  C   UNL     1     -11.443   0.573  -0.925  0.00  0.00    -0.042 A 
ATOM     28  C   UNL     1     -10.724   1.737  -1.127  0.00  0.00    +0.005 A 
ATOM     29  C   UNL     1      -9.367   1.765  -0.883  0.00  0.00    +0.012 A 
ATOM     30  C   UNL     1      -8.719   0.614  -0.432  0.00  0.00    +0.019 A 
ATOM     31  C   UNL     1      -9.449  -0.559  -0.235  0.00  0.00    +0.012 A 
ATOM     32  C   UNL     1     -10.807  -0.572  -0.477  0.00  0.00    +0.005 A 
BRANCH  27  34
ATOM     33  C   UNL     1     -13.184   0.896  -2.661  0.00  0.00    +0.015 C 
ATOM     34  C   UNL     1     -12.926   0.550  -1.193  0.00  0.00    -0.013 C 
ATOM     35  C   UNL     1     -13.478  -0.845  -0.893  0.00  0.00    +0.015 C 
ATOM     36  C   UNL     1     -13.622   1.577  -0.297  0.00  0.00    +0.015 C 
ENDBRANCH  27  34
ENDBRANCH  21  30
ENDBRANCH  20  24
ENDBRANCH   1  20
TORSDOF 8
