REMARK  Name = ZINC12590346
REMARK  6 active torsions:
REMARK  status: ('A' for Active; 'I' for Inactive)
REMARK    1  A    between atoms: C_1  and  C_2
REMARK    2  A    between atoms: C_3  and  C_30
REMARK    3  A    between atoms: C_9  and  C_12
REMARK    4  A    between atoms: C_12  and  O_14
REMARK    5  A    between atoms: O_14  and  C_15
REMARK    6  A    between atoms: C_15  and  C_16
REMARK                            x       y       z     vdW  Elec       q    Type
REMARK                         _______ _______ _______ _____ _____    ______ ____
ROOT
ATOM      1  C   UNL     1       2.250  -4.540  -2.995  0.00  0.00    +0.340 C 
ATOM      2  O   UNL     1       1.236  -5.207  -2.939  0.00  0.00    -0.245 OA
ENDROOT
BRANCH   1  11
ATOM      3  C   UNL     1       4.437  -9.819  -3.468  0.00  0.00    +0.046 C 
ATOM      4  C   UNL     1       5.317  -8.595  -3.482  0.00  0.00    -0.022 A 
ATOM      5  C   UNL     1       6.653  -8.573  -3.600  0.00  0.00    +0.017 A 
ATOM      6  N   UNL     1       7.104  -7.281  -3.572  0.00  0.00    -0.358 N 
ATOM      7  H   UNL     1       8.034  -7.014  -3.641  0.00  0.00    +0.166 HD
ATOM      8  C   UNL     1       6.044  -6.417  -3.432  0.00  0.00    +0.047 A 
ATOM      9  C   UNL     1       4.875  -7.202  -3.369  0.00  0.00    +0.004 A 
ATOM     10  C   UNL     1       3.634  -6.591  -3.221  0.00  0.00    +0.025 A 
ATOM     11  C   UNL     1       3.560  -5.202  -3.147  0.00  0.00    +0.060 A 
ATOM     12  C   UNL     1       4.730  -4.433  -3.211  0.00  0.00    +0.017 A 
ATOM     13  C   UNL     1       5.948  -5.030  -3.351  0.00  0.00    +0.027 A 
ATOM     14  C   UNL     1       7.529  -9.791  -3.742  0.00  0.00    +0.063 C 
ENDBRANCH   1  11
BRANCH   1  15
ATOM     15  O   UNL     1       2.179  -3.197  -2.918  0.00  0.00    -0.452 OA
BRANCH  15  16
ATOM     16  C   UNL     1       0.857  -2.615  -2.769  0.00  0.00    +0.328 C 
BRANCH  16  17
ATOM     17  C   UNL     1       0.975  -1.114  -2.700  0.00  0.00    +0.253 C 
ATOM     18  O   UNL     1       2.065  -0.587  -2.770  0.00  0.00    -0.272 OA
ATOM     19  N   UNL     1      -0.132  -0.357  -2.561  0.00  0.00    -0.298 N 
ATOM     20  C   UNL     1      -1.460  -0.980  -2.475  0.00  0.00    +0.108 C 
ATOM     21  C   UNL     1      -2.159  -0.474  -1.210  0.00  0.00    +0.023 C 
ATOM     22  C   UNL     1      -2.187   1.056  -1.222  0.00  0.00    -0.005 C 
ATOM     23  C   UNL     1      -2.904   1.558   0.034  0.00  0.00    +0.004 C 
ATOM     24  C   UNL     1      -2.166   1.053   1.276  0.00  0.00    +0.000 C 
ATOM     25  C   UNL     1      -0.730   1.580   1.267  0.00  0.00    +0.000 C 
ATOM     26  C   UNL     1      -0.013   1.086   0.008  0.00  0.00    +0.005 C 
ATOM     27  C   UNL     1      -0.753   1.593  -1.231  0.00  0.00    +0.010 C 
ATOM     28  C   UNL     1      -0.034   1.107  -2.492  0.00  0.00    +0.111 C 
ENDBRANCH  16  17
ENDBRANCH  15  16
ENDBRANCH   1  15
TORSDOF 4
