REMARK  Name = ZINC63075112
REMARK  8 active torsions:
REMARK  status: ('A' for Active; 'I' for Inactive)
REMARK    1  A    between atoms: C_1  and  C_2
REMARK    2  A    between atoms: C_2  and  O_3
REMARK    3  A    between atoms: O_3  and  C_4
REMARK    4  A    between atoms: C_11  and  N_14
REMARK    5  A    between atoms: C_15  and  C_17
REMARK    6  A    between atoms: C_17  and  S_18
REMARK    7  A    between atoms: S_18  and  C_19
REMARK    8  A    between atoms: C_25  and  N_29
REMARK                            x       y       z     vdW  Elec       q    Type
REMARK                         _______ _______ _______ _____ _____    ______ ____
ROOT
ATOM      1  N   UNL     1      -3.806  -7.213  -1.216  0.00  0.00    -0.288 N 
ATOM      2  C   UNL     1      -4.998  -7.834  -1.323  0.00  0.00    +0.225 C 
ATOM      3  O   UNL     1      -5.801  -7.763  -0.417  0.00  0.00    -0.275 OA
ATOM      4  H   UNL     1      -3.163  -7.270  -1.940  0.00  0.00    +0.151 HD
ENDROOT
BRANCH   1  12
ATOM      5  C   UNL     1      -1.498  -1.849   0.006  0.00  0.00    +0.122 A 
ATOM      6  C   UNL     1      -0.395  -2.690  -0.003  0.00  0.00    +0.047 A 
ATOM      7  C   UNL     1      -0.546  -4.057  -0.009  0.00  0.00    +0.027 A 
ATOM      8  C   UNL     1      -1.821  -4.651  -0.006  0.00  0.00    +0.043 A 
ATOM      9  C   UNL     1      -2.913  -3.779   0.004  0.00  0.00    +0.035 A 
ATOM     10  C   UNL     1      -2.769  -2.410   0.016  0.00  0.00    +0.062 A 
ATOM     11  S   UNL     1      -4.348  -4.831   0.005  0.00  0.00    -0.082 S 
ATOM     12  C   UNL     1      -3.482  -6.452  -0.007  0.00  0.00    +0.224 C 
ATOM     13  N   UNL     1      -2.077  -6.024  -0.011  0.00  0.00    -0.316 N 
ATOM     14  H   UNL     1      -1.354  -6.671  -0.018  0.00  0.00    +0.149 HD
BRANCH   5  15
ATOM     15  O   UNL     1      -1.339  -0.499   0.012  0.00  0.00    -0.492 OA
BRANCH  15  17
ATOM     16  C   UNL     1      -0.019   1.526   0.010  0.00  0.00    +0.048 C 
ATOM     17  C   UNL     1       0.002  -0.004   0.002  0.00  0.00    +0.225 C 
ENDBRANCH  15  17
ENDBRANCH   5  15
ENDBRANCH   1  12
BRANCH   2  18
ATOM     18  C   UNL     1      -5.331  -8.617  -2.567  0.00  0.00    +0.168 C 
BRANCH  18  19
ATOM     19  S   UNL     1      -6.992  -9.328  -2.406  0.00  0.00    -0.106 S 
BRANCH  19  20
ATOM     20  C   UNL     1      -7.237 -10.226  -3.963  0.00  0.00    +0.236 C 
ATOM     21  N   UNL     1      -7.094  -9.309  -5.102  0.00  0.00    -0.355 N 
ATOM     22  C   UNL     1      -6.104  -9.741  -5.828  0.00  0.00    +0.061 A 
ATOM     23  C   UNL     1      -5.491  -9.255  -7.072  0.00  0.00    +0.029 A 
ATOM     24  C   UNL     1      -4.451  -9.924  -7.607  0.00  0.00    +0.035 A 
ATOM     25  C   UNL     1      -3.915 -11.085  -7.022  0.00  0.00    +0.128 A 
ATOM     26  C   UNL     1      -4.402 -11.616  -5.883  0.00  0.00    +0.060 A 
ATOM     27  C   UNL     1      -5.536 -10.970  -5.209  0.00  0.00    +0.063 A 
ATOM     28  N   UNL     1      -6.198 -11.251  -4.123  0.00  0.00    -0.355 N 
ATOM     29  H   UNL     1      -6.035 -12.000  -3.528  0.00  0.00    +0.162 HD
ATOM     30  H   UNL     1      -7.637  -8.526  -5.280  0.00  0.00    +0.162 HD
BRANCH  25  31
ATOM     31  N   UNL     1      -2.771 -11.752  -7.684  0.00  0.00    +0.056 N 
ATOM     32  O   UNL     1      -2.316 -11.296  -8.708  0.00  0.00    -0.126 OA
ATOM     33  O   UNL     1      -2.292 -12.751  -7.202  0.00  0.00    -0.126 OA
ENDBRANCH  25  31
ENDBRANCH  19  20
ENDBRANCH  18  19
ENDBRANCH   2  18
TORSDOF 7
