REMARK  Name = ZINC36795558
REMARK  8 active torsions:
REMARK  status: ('A' for Active; 'I' for Inactive)
REMARK    1  A    between atoms: C_3  and  C_6
REMARK    2  A    between atoms: C_6  and  N_7
REMARK    3  A    between atoms: C_11  and  C_13
REMARK    4  A    between atoms: C_13  and  S_14
REMARK    5  A    between atoms: S_14  and  C_15
REMARK    6  A    between atoms: N_20  and  C_21
REMARK    7  A    between atoms: C_24  and  S_27
REMARK    8  A    between atoms: S_27  and  C_28
REMARK                            x       y       z     vdW  Elec       q    Type
REMARK                         _______ _______ _______ _____ _____    ______ ____
ROOT
ATOM      1  C   UNL     1       9.977  -0.144   6.228  0.00  0.00    +0.160 A 
ATOM      2  N   UNL     1       9.204   0.065   7.276  0.00  0.00    -0.133 NA
ATOM      3  N   UNL     1       9.769   0.254   8.516  0.00  0.00    -0.125 NA
ATOM      4  C   UNL     1      11.080   0.225   8.651  0.00  0.00    +0.187 A 
ATOM      5  S   UNL     1      11.600  -0.089   6.971  0.00  0.00    -0.024 S 
ATOM      6  N   UNL     1      11.852   0.391   9.796  0.00  0.00    -0.292 N 
ATOM      7  H   UNL     1      12.819   0.430   9.727  0.00  0.00    +0.154 HD
ENDROOT
BRANCH   6   8
ATOM      8  C   UNL     1      11.234   0.499  11.047  0.00  0.00    +0.033 A 
ATOM      9  C   UNL     1      11.866   1.184  12.077  0.00  0.00    +0.024 A 
ATOM     10  C   UNL     1      11.257   1.292  13.311  0.00  0.00    +0.017 A 
ATOM     11  C   UNL     1      10.011   0.715  13.523  0.00  0.00    +0.013 A 
ATOM     12  C   UNL     1       9.378   0.031  12.492  0.00  0.00    +0.017 A 
ATOM     13  C   UNL     1       9.985  -0.072  11.257  0.00  0.00    +0.024 A 
BRANCH  11  14
ATOM     14  S   UNL     1       9.233   0.852  15.098  0.00  0.00    -0.056 S 
BRANCH  14  15
ATOM     15  C   UNL     1       7.665  -0.036  14.891  0.00  0.00    +0.404 C 
ATOM     16  F   UNL     1       6.915   0.572  13.879  0.00  0.00    -0.197 F 
ATOM     17  F   UNL     1       7.924  -1.366  14.545  0.00  0.00    -0.197 F 
ENDBRANCH  14  15
ENDBRANCH  11  14
ENDBRANCH   6   8
BRANCH   1  18
ATOM     18  S   UNL     1       9.528  -0.412   4.545  0.00  0.00    -0.088 S 
BRANCH  18  19
ATOM     19  C   UNL     1       7.716  -0.330   4.556  0.00  0.00    +0.172 C 
BRANCH  19  24
ATOM     20  N   UNL     1       4.074  -0.702   1.439  0.00  0.00    -0.292 N 
ATOM     21  C   UNL     1       5.402  -0.721   1.674  0.00  0.00    +0.306 C 
ATOM     22  O   UNL     1       6.178  -0.912   0.759  0.00  0.00    -0.252 OA
ATOM     23  N   UNL     1       5.867  -0.527   2.924  0.00  0.00    -0.239 N 
ATOM     24  C   UNL     1       7.194  -0.546   3.159  0.00  0.00    +0.231 C 
ATOM     25  O   UNL     1       7.969  -0.738   2.246  0.00  0.00    -0.274 OA
ATOM     26  H   UNL     1       3.455  -0.548   2.170  0.00  0.00    +0.151 HD
ATOM     27  H   UNL     1       5.248  -0.374   3.654  0.00  0.00    +0.159 HD
BRANCH  20  28
ATOM     28  C   UNL     1       3.568  -0.912   0.081  0.00  0.00    +0.180 C 
BRANCH  28  31
ATOM     29  C   UNL     1      -0.031  -0.124  -0.005  0.00  0.00    +0.041 A 
ATOM     30  C   UNL     1       1.325   0.267  -0.090  0.00  0.00    +0.046 A 
ATOM     31  C   UNL     1       2.062  -0.843   0.090  0.00  0.00    +0.122 A 
ATOM     32  O   UNL     1       1.230  -1.880   0.278  0.00  0.00    -0.466 OA
ATOM     33  C   UNL     1      -0.041  -1.450   0.222  0.00  0.00    +0.195 A 
ENDBRANCH  28  31
ENDBRANCH  20  28
ENDBRANCH  19  24
ENDBRANCH  18  19
ENDBRANCH   1  18
TORSDOF 8
