REMARK  Name = ZINC02926940
REMARK  8 active torsions:
REMARK  status: ('A' for Active; 'I' for Inactive)
REMARK    1  A    between atoms: C_1  and  C_2
REMARK    2  A    between atoms: C_7  and  N_8
REMARK    3  A    between atoms: C_12  and  C_31
REMARK    4  A    between atoms: C_18  and  S_19
REMARK    5  A    between atoms: S_19  and  C_20
REMARK    6  A    between atoms: C_20  and  C_21
REMARK    7  A    between atoms: N_23  and  C_24
REMARK    8  A    between atoms: C_24  and  C_25
REMARK                            x       y       z     vdW  Elec       q    Type
REMARK                         _______ _______ _______ _____ _____    ______ ____
ROOT
ATOM      1  N   UNL     1      -0.033   0.013  -2.414  0.00  0.00    -0.274 N 
ATOM      2  C   UNL     1       1.152   0.385  -3.030  0.00  0.00    +0.124 A 
ATOM      3  N   UNL     1       2.316   0.091  -2.504  0.00  0.00    -0.384 N 
ATOM      4  C   UNL     1       1.050   1.118  -4.299  0.00  0.00    +0.082 A 
ATOM      5  C   UNL     1       1.985   1.651  -5.203  0.00  0.00    +0.072 A 
ATOM      6  N   UNL     1       1.333   2.218  -6.182  0.00  0.00    -0.177 NA
ATOM      7  N   UNL     1      -0.044   2.084  -5.965  0.00  0.00    -0.260 N 
ATOM      8  H   UNL     1      -0.758   2.502  -6.689  0.00  0.00    +0.191 HD
ATOM      9  C   UNL     1      -0.227   1.403  -4.801  0.00  0.00    +0.162 A 
ATOM     10  N   UNL     1      -1.312   1.001  -4.122  0.00  0.00    -0.204 NA
ATOM     11  C   UNL     1      -1.228   0.343  -2.991  0.00  0.00    +0.177 A 
ATOM     12  C   UNL     1       3.484   1.579  -5.067  0.00  0.00    +0.068 C 
ATOM     13  H   UNL     1       3.242   0.397  -3.012  0.00  0.00    +0.157 HD
ATOM     14  H   UNL     1       2.366  -0.463  -1.555  0.00  0.00    +0.157 HD
ENDROOT
BRANCH   1  21
ATOM     15  C   UNL     1      -0.018   1.503   0.010  0.00  0.00    +0.046 C 
ATOM     16  C   UNL     1       0.002  -0.004   0.002  0.00  0.00    -0.026 A 
ATOM     17  C   UNL     1       0.023  -0.702   1.194  0.00  0.00    +0.007 A 
ATOM     18  C   UNL     1       0.042  -2.084   1.188  0.00  0.00    +0.020 A 
ATOM     19  C   UNL     1       0.039  -2.773  -0.012  0.00  0.00    +0.043 A 
ATOM     20  C   UNL     1       0.019  -2.081  -1.208  0.00  0.00    +0.046 A 
ATOM     21  C   UNL     1      -0.006  -0.692  -1.204  0.00  0.00    +0.055 A 
ATOM     22 CL   UNL     1       0.062  -4.509  -0.015  0.00  0.00    -0.083 Cl
ENDBRANCH   1  21
BRANCH  11  23
ATOM     23  S   UNL     1      -2.718  -0.138  -2.182  0.00  0.00    -0.078 S 
BRANCH  23  24
ATOM     24  C   UNL     1      -3.936   0.531  -3.342  0.00  0.00    +0.173 C 
BRANCH  24  25
ATOM     25  C   UNL     1      -5.325   0.231  -2.841  0.00  0.00    +0.223 C 
ATOM     26  O   UNL     1      -5.477  -0.376  -1.802  0.00  0.00    -0.275 OA
ATOM     27  N   UNL     1      -6.399   0.637  -3.547  0.00  0.00    -0.312 N 
ATOM     28  H   UNL     1      -6.261   1.188  -4.489  0.00  0.00    +0.149 HD
BRANCH  27  29
ATOM     29  C   UNL     1      -7.749   0.345  -3.060  0.00  0.00    +0.135 C 
BRANCH  29  30
ATOM     30  C   UNL     1      -8.778   0.911  -4.040  0.00  0.00    +0.135 C 
ATOM     31  C   UNL     1     -10.203   0.608  -3.536  0.00  0.00    +0.035 C 
ATOM     32  C   UNL     1     -10.859   2.003  -3.393  0.00  0.00    +0.031 C 
ATOM     33  C   UNL     1      -9.972   2.876  -4.318  0.00  0.00    +0.160 C 
ATOM     34  O   UNL     1      -8.646   2.340  -4.116  0.00  0.00    -0.375 OA
ENDBRANCH  29  30
ENDBRANCH  27  29
ENDBRANCH  24  25
ENDBRANCH  23  24
ENDBRANCH  11  23
TORSDOF 6
