REMARK  Name = ZINC22920250
REMARK  8 active torsions:
REMARK  status: ('A' for Active; 'I' for Inactive)
REMARK    1  A    between atoms: C_6  and  C_7
REMARK    2  A    between atoms: C_7  and  C_8
REMARK    3  A    between atoms: C_7  and  N_15
REMARK    4  A    between atoms: N_18  and  C_21
REMARK    5  A    between atoms: C_21  and  C_22
REMARK    6  A    between atoms: N_24  and  C_25
REMARK    7  A    between atoms: C_25  and  C_26
REMARK    8  A    between atoms: C_26  and  N_32
REMARK                            x       y       z     vdW  Elec       q    Type
REMARK                         _______ _______ _______ _____ _____    ______ ____
ROOT
ATOM      1  N   UNL     1       1.385   1.369  -0.584  0.00  0.00    -0.295 NA
ATOM      2  C   UNL     1       1.240   2.819  -0.393  0.00  0.00    +0.067 C 
ATOM      3  C   UNL     1       0.469   3.413  -1.574  0.00  0.00    -0.063 C 
ATOM      4  N   UNL     1      -0.846   2.764  -1.672  0.00  0.00    +0.387 N 
ATOM      5  C   UNL     1      -0.702   1.314  -1.863  0.00  0.00    -0.063 C 
ATOM      6  C   UNL     1       0.070   0.720  -0.682  0.00  0.00    +0.067 C 
ATOM      7  H   UNL     1      -1.379   2.930  -0.724  0.00  0.00    -0.081 HD
ENDROOT
BRANCH   1   8
ATOM      8  C   UNL     1       2.186   0.774   0.494  0.00  0.00    +0.117 C 
BRANCH   8  14
ATOM      9  C   UNL     1       2.320  -1.282  -0.927  0.00  0.00    +0.008 A 
ATOM     10  C   UNL     1       2.347  -2.656  -1.075  0.00  0.00    +0.038 A 
ATOM     11  C   UNL     1       2.253  -3.474   0.038  0.00  0.00    +0.123 A 
ATOM     12  C   UNL     1       2.138  -2.914   1.299  0.00  0.00    +0.038 A 
ATOM     13  C   UNL     1       2.116  -1.540   1.445  0.00  0.00    +0.008 A 
ATOM     14  C   UNL     1       2.210  -0.724   0.333  0.00  0.00    -0.026 A 
ATOM     15  F   UNL     1       2.274  -4.817  -0.106  0.00  0.00    -0.205 F 
ENDBRANCH   8  14
BRANCH   8  16
ATOM     16  C   UNL     1       3.594   1.309   0.427  0.00  0.00    -0.026 A 
ATOM     17  C   UNL     1       4.210   1.479  -0.798  0.00  0.00    +0.008 A 
ATOM     18  C   UNL     1       5.499   1.974  -0.861  0.00  0.00    +0.038 A 
ATOM     19  C   UNL     1       6.177   2.289   0.304  0.00  0.00    +0.123 A 
ATOM     20  C   UNL     1       5.560   2.113   1.532  0.00  0.00    +0.038 A 
ATOM     21  C   UNL     1       4.269   1.623   1.591  0.00  0.00    +0.008 A 
ATOM     22  F   UNL     1       7.438   2.769   0.245  0.00  0.00    -0.205 F 
ENDBRANCH   8  16
ENDBRANCH   1   8
BRANCH   4  23
ATOM     23  C   UNL     1      -1.648   3.359  -2.749  0.00  0.00    +0.019 C 
BRANCH  23  24
ATOM     24  C   UNL     1      -1.981   4.787  -2.397  0.00  0.00    +0.197 C 
ATOM     25  O   UNL     1      -1.684   5.227  -1.307  0.00  0.00    -0.278 OA
ATOM     26  N   UNL     1      -2.607   5.573  -3.295  0.00  0.00    -0.315 N 
ATOM     27  H   UNL     1      -2.876   5.174  -4.284  0.00  0.00    +0.149 HD
BRANCH  26  28
ATOM     28  C   UNL     1      -2.931   6.961  -2.952  0.00  0.00    +0.126 C 
BRANCH  28  29
ATOM     29  C   UNL     1      -3.746   7.588  -4.085  0.00  0.00    +0.038 C 
ATOM     30  C   UNL     1      -3.979   9.070  -3.784  0.00  0.00    +0.024 C 
ATOM     31  C   UNL     1      -4.746   9.208  -2.467  0.00  0.00    +0.002 C 
ATOM     32  C   UNL     1      -6.093   8.493  -2.583  0.00  0.00    +0.000 C 
ATOM     33  C   UNL     1      -5.859   7.011  -2.884  0.00  0.00    +0.002 C 
ATOM     34  C   UNL     1      -5.093   6.873  -4.201  0.00  0.00    +0.024 C 
BRANCH  29  35
ATOM     35  N   UNL     1      -3.010   7.456  -5.349  0.00  0.00    -0.291 NA
ATOM     36  C   UNL     1      -1.686   8.089  -5.258  0.00  0.00    +0.113 C 
ATOM     37  C   UNL     1      -0.932   7.876  -6.573  0.00  0.00    +0.175 C 
ATOM     38  O   UNL     1      -1.710   8.400  -7.653  0.00  0.00    -0.377 OA
ATOM     39  C   UNL     1      -3.005   7.805  -7.772  0.00  0.00    +0.175 C 
ATOM     40  C   UNL     1      -3.780   8.018  -6.468  0.00  0.00    +0.113 C 
ENDBRANCH  29  35
ENDBRANCH  28  29
ENDBRANCH  26  28
ENDBRANCH  23  24
ENDBRANCH   4  23
TORSDOF 8
