REMARK  Name = ZINC06381984
REMARK  6 active torsions:
REMARK  status: ('A' for Active; 'I' for Inactive)
REMARK    1  A    between atoms: C_1  and  C_2
REMARK    2  A    between atoms: C_10  and  C_22
REMARK    3  A    between atoms: C_12  and  C_18
REMARK    4  A    between atoms: C_12  and  C_20
REMARK    5  A    between atoms: C_13  and  N_17
REMARK    6  A    between atoms: C_14  and  C_15
REMARK                            x       y       z     vdW  Elec       q    Type
REMARK                         _______ _______ _______ _____ _____    ______ ____
ROOT
ATOM      1  C   UNL     1       1.937   1.051   0.186  0.00  0.00    +0.008 C 
ATOM      2  C   UNL     1       1.386  -0.376   0.145  0.00  0.00    -0.010 C 
ATOM      3  C   UNL     1       2.099  -1.174  -0.956  0.00  0.00    +0.030 C 
ATOM      4  C   UNL     1       1.497  -2.556  -0.982  0.00  0.00    -0.022 C 
ATOM      5  C   UNL     1       1.060  -3.124   0.124  0.00  0.00    -0.029 C 
ATOM      6  C   UNL     1       1.163  -2.497   1.483  0.00  0.00    +0.027 C 
ATOM      7  C   UNL     1       1.644  -1.066   1.483  0.00  0.00    +0.012 C 
ATOM      8  C   UNL     1      -0.186  -2.652   2.187  0.00  0.00    +0.043 C 
ATOM      9  C   UNL     1      -0.472  -4.141   2.384  0.00  0.00    +0.185 C 
ATOM     10  C   UNL     1      -0.300  -4.913   1.111  0.00  0.00    +0.054 C 
ATOM     11  C   UNL     1       0.419  -4.464   0.052  0.00  0.00    +0.074 C 
ENDROOT
BRANCH   8  12
ATOM     12  C   UNL     1      -0.138  -1.952   3.547  0.00  0.00    +0.018 C 
ATOM     13  C   UNL     1       1.224  -2.202   4.197  0.00  0.00    +0.008 C 
ATOM     14  C   UNL     1       1.162  -1.720   5.653  0.00  0.00    +0.005 C 
ATOM     15  C   UNL     1       0.205  -2.633   6.423  0.00  0.00    +0.027 C 
ATOM     16  C   UNL     1      -1.086  -2.780   5.673  0.00  0.00    -0.031 C 
ATOM     17  C   UNL     1      -1.232  -2.490   4.422  0.00  0.00    -0.027 C 
ENDBRANCH   8  12
BRANCH  10  18
ATOM     18  N   UNL     1      -0.899  -6.137   1.012  0.00  0.00    -0.358 N 
ATOM     19  H   UNL     1      -1.419  -6.484   1.754  0.00  0.00    +0.142 HD
ATOM     20  H   UNL     1      -0.804  -6.660   0.200  0.00  0.00    +0.142 HD
ENDBRANCH  10  18
BRANCH  11  21
ATOM     21  C   UNL     1       0.559  -5.271  -1.123  0.00  0.00    +0.101 C 
ATOM     22  N   UNL     1       0.670  -5.911  -2.055  0.00  0.00    -0.191 NA
ENDBRANCH  11  21
BRANCH   9  23
ATOM     23  C   UNL     1       0.449  -4.677   3.399  0.00  0.00    +0.091 C 
ATOM     24  N   UNL     1       1.161  -5.091   4.183  0.00  0.00    -0.195 NA
ENDBRANCH   9  23
BRANCH   9  25
ATOM     25  C   UNL     1      -1.856  -4.305   2.861  0.00  0.00    +0.091 C 
ATOM     26  N   UNL     1      -2.923  -4.431   3.228  0.00  0.00    -0.195 NA
ENDBRANCH   9  25
TORSDOF 5
