REMARK  Name = ZINC59349900
REMARK  6 active torsions:
REMARK  status: ('A' for Active; 'I' for Inactive)
REMARK    1  A    between atoms: C_8  and  C_10
REMARK    2  A    between atoms: C_10  and  N_11
REMARK    3  A    between atoms: C_12  and  C_14
REMARK    4  A    between atoms: C_21  and  C_23
REMARK    5  A    between atoms: C_23  and  N_24
REMARK    6  A    between atoms: C_25  and  C_27
REMARK                            x       y       z     vdW  Elec       q    Type
REMARK                         _______ _______ _______ _____ _____    ______ ____
ROOT
ATOM      1  C   UNL     1      -0.016   1.360   0.009  0.00  0.00    +0.046 A 
ATOM      2  C   UNL     1       1.191   2.092   0.002  0.00  0.00    +0.080 A 
ATOM      3  C   UNL     1       2.384   1.326  -0.013  0.00  0.00    +0.041 A 
ATOM      4  C   UNL     1       2.402  -0.038  -0.021  0.00  0.00    +0.046 A 
ATOM      5  C   UNL     1       1.195  -0.771  -0.013  0.00  0.00    +0.080 A 
ATOM      6  C   UNL     1       0.002  -0.004   0.002  0.00  0.00    +0.041 A 
ATOM      7  S   UNL     1      -1.249  -1.269   0.007  0.00  0.00    -0.070 S 
ATOM      8  C   UNL     1      -0.147  -2.675  -0.011  0.00  0.00    +0.097 A 
ATOM      9  N   UNL     1       1.030  -2.110  -0.018  0.00  0.00    -0.242 NA
ATOM     10  S   UNL     1       3.635   2.591  -0.019  0.00  0.00    -0.070 S 
ATOM     11  C   UNL     1       2.533   3.997  -0.002  0.00  0.00    +0.097 A 
ATOM     12  N   UNL     1       1.356   3.432   0.007  0.00  0.00    -0.242 NA
ENDROOT
BRANCH   8  13
ATOM     13  C   UNL     1      -0.489  -4.143  -0.015  0.00  0.00    +0.167 C 
BRANCH  13  14
ATOM     14  N   UNL     1      -0.587  -4.626   1.365  0.00  0.00    -0.309 N 
ATOM     15  C   UNL     1      -0.886  -5.917   1.607  0.00  0.00    +0.216 C 
ATOM     16  O   UNL     1      -1.074  -6.680   0.683  0.00  0.00    -0.276 OA
ATOM     17  H   UNL     1      -0.436  -4.016   2.104  0.00  0.00    +0.149 HD
BRANCH  15  18
ATOM     18  C   UNL     1      -0.986  -6.414   3.026  0.00  0.00    +0.075 C 
ATOM     19  C   UNL     1      -2.079  -5.637   3.763  0.00  0.00    +0.013 C 
ATOM     20  C   UNL     1      -2.181  -6.141   5.204  0.00  0.00    +0.001 C 
ATOM     21  C   UNL     1      -2.529  -7.631   5.199  0.00  0.00    +0.000 C 
ATOM     22  C   UNL     1      -1.435  -8.408   4.463  0.00  0.00    +0.001 C 
ATOM     23  C   UNL     1      -1.334  -7.904   3.022  0.00  0.00    +0.013 C 
ENDBRANCH  15  18
ENDBRANCH  13  14
ENDBRANCH   8  13
BRANCH  11  24
ATOM     24  C   UNL     1       2.875   5.465   0.003  0.00  0.00    +0.167 C 
BRANCH  24  25
ATOM     25  N   UNL     1       2.999   5.933   1.385  0.00  0.00    -0.309 N 
ATOM     26  C   UNL     1       3.303   7.223   1.635  0.00  0.00    +0.216 C 
ATOM     27  O   UNL     1       3.473   7.995   0.715  0.00  0.00    -0.276 OA
ATOM     28  H   UNL     1       2.863   5.316   2.120  0.00  0.00    +0.149 HD
BRANCH  26  29
ATOM     29  C   UNL     1       3.431   7.705   3.057  0.00  0.00    +0.075 C 
ATOM     30  C   UNL     1       2.106   7.488   3.790  0.00  0.00    +0.013 C 
ATOM     31  C   UNL     1       2.235   7.978   5.234  0.00  0.00    +0.001 C 
ATOM     32  C   UNL     1       2.583   9.467   5.238  0.00  0.00    +0.000 C 
ATOM     33  C   UNL     1       3.909   9.684   4.505  0.00  0.00    +0.001 C 
ATOM     34  C   UNL     1       3.779   9.194   3.061  0.00  0.00    +0.013 C 
ENDBRANCH  26  29
ENDBRANCH  24  25
ENDBRANCH  11  24
TORSDOF 6
