REMARK  Name = ZINC06077590
REMARK  9 active torsions:
REMARK  status: ('A' for Active; 'I' for Inactive)
REMARK    1  A    between atoms: C_1  and  C_2
REMARK    2  A    between atoms: C_2  and  C_3
REMARK    3  A    between atoms: C_3  and  C_4
REMARK    4  A    between atoms: C_3  and  C_5
REMARK    5  A    between atoms: C_3  and  N_6
REMARK    6  A    between atoms: C_7  and  C_11
REMARK    7  A    between atoms: C_11  and  C_13
REMARK    8  A    between atoms: C_11  and  N_68
REMARK    9  A    between atoms: N_30  and  C_33
REMARK                            x       y       z     vdW  Elec       q    Type
REMARK                         _______ _______ _______ _____ _____    ______ ____
ROOT
ATOM      1  C   UNL     1       0.189   0.917  -0.107  0.00  0.00    +0.039 C 
ENDROOT
BRANCH   1   2
ATOM      2  C   UNL     1       1.528   1.531  -0.424  0.00  0.00    +0.011 A 
ATOM      3  C   UNL     1       2.601   0.732  -0.651  0.00  0.00    +0.017 A 
ATOM      4  C   UNL     1       3.887   1.357  -0.957  0.00  0.00    +0.002 A 
ATOM      5  C   UNL     1       5.028   0.582  -1.201  0.00  0.00    +0.059 A 
ATOM      6  C   UNL     1       6.225   1.200  -1.487  0.00  0.00    +0.167 A 
ATOM      7  C   UNL     1       6.304   2.598  -1.535  0.00  0.00    +0.168 A 
ATOM      8  C   UNL     1       5.183   3.371  -1.295  0.00  0.00    +0.075 A 
ATOM      9  C   UNL     1       3.968   2.763  -1.005  0.00  0.00    +0.053 A 
ATOM     10  N   UNL     1       2.838   3.518  -0.765  0.00  0.00    -0.322 N 
ATOM     11  H   UNL     1       2.898   4.516  -0.795  0.00  0.00    +0.169 HD
ATOM     12  C   UNL     1       1.660   2.933  -0.491  0.00  0.00    +0.251 A 
ATOM     13  O   UNL     1       0.681   3.632  -0.289  0.00  0.00    -0.268 OA
ATOM     14  O   UNL     1       7.588   2.948  -1.836  0.00  0.00    -0.453 OA
ATOM     15  C   UNL     1       8.196   1.760  -2.376  0.00  0.00    +0.466 C 
ATOM     16  O   UNL     1       7.461   0.686  -1.760  0.00  0.00    -0.453 OA
ENDBRANCH   1   2
BRANCH   1  22
ATOM     17  C   UNL     1       0.608   1.182   2.264  0.00  0.00    -0.058 C 
ATOM     18  C   UNL     1       0.088   1.840   3.544  0.00  0.00    +0.086 C 
ATOM     19  N   UNL     1      -1.259   1.332   3.840  0.00  0.00    -0.333 N 
ATOM     20  C   UNL     1      -2.183   1.620   2.734  0.00  0.00    +0.086 C 
ATOM     21  C   UNL     1      -1.662   0.961   1.454  0.00  0.00    -0.058 C 
ATOM     22  N   UNL     1      -0.318   1.497   1.155  0.00  0.00    +0.391 N 
ATOM     23  H   UNL     1      -0.380   2.517   1.052  0.00  0.00    -0.080 HD
BRANCH  19  24
ATOM     24  C   UNL     1      -1.739   1.858   5.044  0.00  0.00    +0.030 A 
ATOM     25  C   UNL     1      -2.942   2.550   5.069  0.00  0.00    +0.026 A 
ATOM     26  C   UNL     1      -3.417   3.064   6.260  0.00  0.00    +0.040 A 
ATOM     27  C   UNL     1      -2.688   2.899   7.426  0.00  0.00    +0.124 A 
ATOM     28  C   UNL     1      -1.485   2.214   7.402  0.00  0.00    +0.040 A 
ATOM     29  C   UNL     1      -1.010   1.694   6.214  0.00  0.00    +0.026 A 
ATOM     30  F   UNL     1      -3.152   3.407   8.589  0.00  0.00    -0.205 F 
ENDBRANCH  19  24
ENDBRANCH   1  22
BRANCH   1  32
ATOM     31  N   UNL     1      -1.301   0.359  -2.100  0.00  0.00    -0.225 N 
ATOM     32  C   UNL     1      -0.783   1.231  -1.215  0.00  0.00    +0.143 A 
ATOM     33  N   UNL     1      -1.292   2.404  -1.501  0.00  0.00    -0.115 NA
ATOM     34  N   UNL     1      -2.076   2.262  -2.514  0.00  0.00    -0.023 NA
ATOM     35  N   UNL     1      -2.086   1.027  -2.876  0.00  0.00    -0.043 NA
BRANCH  31  36
ATOM     36  C   UNL     1      -1.026  -1.078  -2.169  0.00  0.00    +0.061 C 
ATOM     37  C   UNL     1       0.479  -1.301  -2.336  0.00  0.00    +0.036 C 
ATOM     38  C   UNL     1      -1.502  -1.751  -0.880  0.00  0.00    +0.036 C 
BRANCH  36  40
ATOM     39  C   UNL     1      -1.479  -3.183  -3.436  0.00  0.00    +0.006 C 
ATOM     40  C   UNL     1      -1.766  -1.682  -3.364  0.00  0.00    +0.026 C 
ENDBRANCH  36  40
ENDBRANCH  31  36
ENDBRANCH   1  32
TORSDOF 6
