REMARK  Name = ZINC19984742
REMARK  7 active torsions:
REMARK  status: ('A' for Active; 'I' for Inactive)
REMARK    1  A    between atoms: C_1  and  C_2
REMARK    2  A    between atoms: N_8  and  C_13
REMARK    3  A    between atoms: C_13  and  C_15
REMARK    4  A    between atoms: C_13  and  C_16
REMARK    5  A    between atoms: N_18  and  C_19
REMARK    6  A    between atoms: C_23  and  C_26
REMARK    7  A    between atoms: C_24  and  C_25
REMARK                            x       y       z     vdW  Elec       q    Type
REMARK                         _______ _______ _______ _____ _____    ______ ____
ROOT
ATOM      1  C   UNL     1       2.425   1.191  -0.044  0.00  0.00    +0.164 C 
ATOM      2  C   UNL     1       2.554   0.266   1.168  0.00  0.00    +0.038 C 
ENDROOT
BRANCH   1  10
ATOM      3  C   UNL     1       3.351   6.256  -0.531  0.00  0.00    +0.044 C 
ATOM      4  C   UNL     1       2.139   5.429  -0.189  0.00  0.00    -0.048 A 
ATOM      5  C   UNL     1       0.962   6.052   0.183  0.00  0.00    +0.007 A 
ATOM      6  C   UNL     1      -0.156   5.300   0.497  0.00  0.00    +0.048 A 
ATOM      7  C   UNL     1      -0.096   3.918   0.438  0.00  0.00    +0.143 A 
ATOM      8  C   UNL     1       1.091   3.290   0.064  0.00  0.00    +0.079 A 
ATOM      9  C   UNL     1       2.207   4.049  -0.248  0.00  0.00    +0.030 A 
ATOM     10  N   UNL     1       1.138   1.890   0.010  0.00  0.00    -0.254 N 
ATOM     11  C   UNL     1      -0.020   1.196   0.008  0.00  0.00    +0.258 C 
ATOM     12  O   UNL     1      -0.003  -0.017  -0.007  0.00  0.00    -0.271 OA
ATOM     13  C   UNL     1      -1.335   1.934   0.020  0.00  0.00    +0.325 C 
ATOM     14  O   UNL     1      -1.185   3.163   0.741  0.00  0.00    -0.481 OA
ENDBRANCH   1  10
BRANCH   1  15
ATOM     15  C   UNL     1       2.499   0.374  -1.309  0.00  0.00    +0.238 C 
ATOM     16  O   UNL     1       1.570   0.377  -2.088  0.00  0.00    -0.273 OA
ATOM     17  N   UNL     1       3.599  -0.358  -1.574  0.00  0.00    -0.284 N 
ATOM     18  H   UNL     1       4.478  -0.289  -0.915  0.00  0.00    +0.155 HD
BRANCH  17  19
ATOM     19  C   UNL     1       3.624  -1.205  -2.688  0.00  0.00    +0.037 A 
ATOM     20  C   UNL     1       2.437  -1.700  -3.212  0.00  0.00    +0.023 A 
ATOM     21  C   UNL     1       2.465  -2.536  -4.311  0.00  0.00    +0.002 A 
ATOM     22  C   UNL     1       3.673  -2.880  -4.889  0.00  0.00    +0.004 A 
ATOM     23  C   UNL     1       4.857  -2.389  -4.370  0.00  0.00    -0.046 A 
ATOM     24  C   UNL     1       4.835  -1.548  -3.274  0.00  0.00    -0.026 A 
ATOM     25  C   UNL     1       6.125  -1.008  -2.712  0.00  0.00    +0.046 C 
ATOM     26  C   UNL     1       6.171  -2.767  -5.003  0.00  0.00    +0.044 C 
ENDBRANCH  17  19
ENDBRANCH   1  15
TORSDOF 3
