REMARK  Name = ZINC49073067
REMARK  9 active torsions:
REMARK  status: ('A' for Active; 'I' for Inactive)
REMARK    1  A    between atoms: C_1  and  C_2
REMARK    2  A    between atoms: C_2  and  C_4
REMARK    3  A    between atoms: C_2  and  N_38
REMARK    4  A    between atoms: N_6  and  C_7
REMARK    5  A    between atoms: C_7  and  C_9
REMARK    6  A    between atoms: C_7  and  C_15
REMARK    7  A    between atoms: C_21  and  C_23
REMARK    8  A    between atoms: C_26  and  C_32
REMARK    9  A    between atoms: N_38  and  C_39
REMARK                            x       y       z     vdW  Elec       q    Type
REMARK                         _______ _______ _______ _____ _____    ______ ____
ROOT
ATOM      1  C   UNL     1       3.854   0.297   2.946  0.00  0.00    +0.237 C 
ATOM      2  O   UNL     1       4.047   1.278   2.259  0.00  0.00    -0.274 OA
ATOM      3  N   UNL     1       4.648   0.050   4.006  0.00  0.00    -0.291 N 
ATOM      4  C   UNL     1       4.532  -1.103   4.917  0.00  0.00    +0.108 C 
ATOM      5  C   UNL     1       5.191  -0.633   6.238  0.00  0.00    +0.021 C 
ATOM      6  C   UNL     1       6.369   0.228   5.709  0.00  0.00    +0.031 C 
ATOM      7  C   UNL     1       5.779   0.883   4.443  0.00  0.00    +0.132 C 
ENDROOT
BRANCH   7   8
ATOM      8  C   UNL     1       6.823   0.939   3.357  0.00  0.00    +0.101 A 
ATOM      9  N   UNL     1       7.481   1.973   2.907  0.00  0.00    -0.240 NA
ATOM     10  C   UNL     1       8.397   1.881   1.924  0.00  0.00    +0.105 A 
ATOM     11  C   UNL     1       9.181   2.918   1.341  0.00  0.00    +0.012 A 
ATOM     12  C   UNL     1      10.073   2.595   0.328  0.00  0.00    +0.030 A 
ATOM     13  C   UNL     1      10.195   1.287  -0.106  0.00  0.00    +0.113 A 
ATOM     14  N   UNL     1       9.464   0.332   0.440  0.00  0.00    -0.246 NA
ATOM     15  C   UNL     1       8.609   0.585   1.398  0.00  0.00    +0.129 A 
ATOM     16  S   UNL     1       7.481  -0.393   2.365  0.00  0.00    -0.051 S 
BRANCH  11  17
ATOM     17  C   UNL     1       9.047   4.318   1.809  0.00  0.00    -0.016 A 
ATOM     18  C   UNL     1       7.785   4.901   1.919  0.00  0.00    +0.008 A 
ATOM     19  C   UNL     1       7.667   6.205   2.355  0.00  0.00    +0.001 A 
ATOM     20  C   UNL     1       8.796   6.934   2.682  0.00  0.00    +0.000 A 
ATOM     21  C   UNL     1      10.051   6.361   2.575  0.00  0.00    +0.001 A 
ATOM     22  C   UNL     1      10.181   5.055   2.146  0.00  0.00    +0.008 A 
ENDBRANCH  11  17
ENDBRANCH   7   8
BRANCH   1  23
ATOM     23  C   UNL     1       2.727  -0.647   2.613  0.00  0.00    +0.162 C 
BRANCH  23  24
ATOM     24  C   UNL     1       3.294  -2.040   2.334  0.00  0.00    +0.018 C 
ATOM     25  C   UNL     1       4.265  -1.969   1.154  0.00  0.00    +0.006 C 
ATOM     26  C   UNL     1       4.832  -3.362   0.875  0.00  0.00    +0.000 C 
ATOM     27  C   UNL     1       3.688  -4.320   0.537  0.00  0.00    +0.000 C 
ATOM     28  C   UNL     1       2.717  -4.391   1.717  0.00  0.00    +0.000 C 
ATOM     29  C   UNL     1       2.150  -2.998   1.996  0.00  0.00    +0.006 C 
ENDBRANCH  23  24
BRANCH  23  32
ATOM     30  C   UNL     1       0.731  -0.503   1.223  0.00  0.00    +0.199 C 
ATOM     31  O   UNL     1       0.159  -1.213   2.023  0.00  0.00    -0.278 OA
ATOM     32  N   UNL     1       2.019  -0.161   1.426  0.00  0.00    -0.305 N 
ATOM     33  H   UNL     1       2.476   0.406   0.786  0.00  0.00    +0.149 HD
BRANCH  30  35
ATOM     34  C   UNL     1      -0.019   1.526   0.010  0.00  0.00    -0.004 C 
ATOM     35  C   UNL     1       0.002  -0.004   0.002  0.00  0.00    +0.012 C 
BRANCH  35  36
ATOM     36  N   UNL     1      -1.376  -0.512   0.012  0.00  0.00    +0.385 N 
ATOM     37  C   UNL     1      -2.050  -0.126  -1.234  0.00  0.00    -0.099 C 
ATOM     38  H   UNL     1      -1.363  -1.518   0.090  0.00  0.00    -0.085 HD
ATOM     39  H   UNL     1      -1.873  -0.121   0.799  0.00  0.00    -0.085 HD
ENDBRANCH  35  36
ENDBRANCH  30  35
ENDBRANCH  23  32
ENDBRANCH   1  23
TORSDOF 7
