REMARK  Name = ZINC08770898
REMARK  10 active torsions:
REMARK  status: ('A' for Active; 'I' for Inactive)
REMARK    1  A    between atoms: C_1  and  C_2
REMARK    2  A    between atoms: C_2  and  C_3
REMARK    3  A    between atoms: C_3  and  C_4
REMARK    4  A    between atoms: C_7  and  C_10
REMARK    5  A    between atoms: C_10  and  C_12
REMARK    6  A    between atoms: C_14  and  C_36
REMARK    7  A    between atoms: C_36  and  C_38
REMARK    8  A    between atoms: C_38  and  C_39
REMARK    9  A    between atoms: C_38  and  C_40
REMARK   10  A    between atoms: C_38  and  C_41
REMARK                            x       y       z     vdW  Elec       q    Type
REMARK                         _______ _______ _______ _____ _____    ______ ____
ROOT
ATOM      1  C   UNL     1       4.755   0.667   0.350  0.00  0.00    +0.108 C 
ATOM      2  C   UNL     1       3.615   1.529   0.956  0.00  0.00    +0.136 C 
ATOM      3  C   UNL     1       1.185   1.844   0.194  0.00  0.00    +0.054 C 
ATOM      4  C   UNL     1       0.096   1.050   0.125  0.00  0.00    +0.022 C 
ATOM      5  C   UNL     1       0.271  -0.415   0.072  0.00  0.00    -0.019 A 
ATOM      6  C   UNL     1      -0.797  -1.262   0.372  0.00  0.00    +0.008 A 
ATOM      7  C   UNL     1      -0.626  -2.630   0.316  0.00  0.00    +0.001 A 
ATOM      8  C   UNL     1       0.600  -3.166  -0.038  0.00  0.00    +0.000 A 
ATOM      9  C   UNL     1       1.666  -2.334  -0.336  0.00  0.00    +0.006 A 
ATOM     10  C   UNL     1       1.508  -0.969  -0.281  0.00  0.00    -0.020 A 
ATOM     11  C   UNL     1       2.651  -0.038  -0.590  0.00  0.00    +0.107 C 
ATOM     12  C   UNL     1       3.988  -0.592  -0.106  0.00  0.00    +0.107 C 
ATOM     13  C   UNL     1       4.723  -1.346  -1.157  0.00  0.00    -0.008 A 
ATOM     14  C   UNL     1       5.162  -0.990  -2.414  0.00  0.00    +0.006 A 
ATOM     15  C   UNL     1       5.831  -1.962  -3.150  0.00  0.00    +0.000 A 
ATOM     16  C   UNL     1       6.046  -3.228  -2.642  0.00  0.00    +0.002 A 
ATOM     17  C   UNL     1       5.609  -3.594  -1.379  0.00  0.00    +0.023 A 
ATOM     18  C   UNL     1       4.936  -2.628  -0.630  0.00  0.00    +0.038 A 
ATOM     19  N   UNL     1       4.398  -2.721   0.643  0.00  0.00    -0.284 N 
ATOM     20  C   UNL     1       3.818  -1.563   1.032  0.00  0.00    +0.231 C 
ATOM     21  O   UNL     1       3.268  -1.349   2.092  0.00  0.00    -0.274 OA
ATOM     22  H   UNL     1       4.434  -3.521   1.190  0.00  0.00    +0.155 HD
ATOM     23  N   UNL     1       2.582   1.318  -0.101  0.00  0.00    -0.384 NA
ATOM     24  H   UNL     1       2.897   1.893  -0.892  0.00  0.00    +0.127 HD
ENDROOT
BRANCH   1  25
ATOM     25  C   UNL     1       5.394   1.364  -0.823  0.00  0.00    +0.170 C 
ATOM     26  O   UNL     1       4.747   2.141  -1.493  0.00  0.00    -0.292 OA
BRANCH  25  30
ATOM     27  C   UNL     1       9.456   0.609  -1.782  0.00  0.00    -0.047 A 
ATOM     28  C   UNL     1       8.741   1.547  -2.506  0.00  0.00    +0.004 A 
ATOM     29  C   UNL     1       7.420   1.798  -2.200  0.00  0.00    +0.011 A 
ATOM     30  C   UNL     1       6.803   1.102  -1.156  0.00  0.00    +0.018 A 
ATOM     31  C   UNL     1       7.534   0.159  -0.426  0.00  0.00    +0.011 A 
ATOM     32  C   UNL     1       8.853  -0.084  -0.748  0.00  0.00    +0.004 A 
BRANCH  27  33
ATOM     33  C   UNL     1      10.899   0.341  -2.123  0.00  0.00    +0.035 C 
BRANCH  33  35
ATOM     34  C   UNL     1      13.263   1.004  -1.659  0.00  0.00    +0.004 C 
ATOM     35  C   UNL     1      11.797   1.277  -1.313  0.00  0.00    +0.001 C 
ENDBRANCH  33  35
ENDBRANCH  27  33
ENDBRANCH  25  30
ENDBRANCH   1  25
BRANCH   2  36
ATOM     36  C   UNL     1       3.417   1.181   2.409  0.00  0.00    +0.158 C 
ATOM     37  O   UNL     1       2.455   0.535   2.749  0.00  0.00    -0.295 OA
BRANCH  36  38
ATOM     38  C   UNL     1       4.419   1.641   3.437  0.00  0.00    +0.022 C 
ATOM     39  C   UNL     1       3.928   1.257   4.834  0.00  0.00    +0.018 C 
ATOM     40  C   UNL     1       5.768   0.971   3.168  0.00  0.00    +0.018 C 
ATOM     41  C   UNL     1       4.578   3.160   3.351  0.00  0.00    +0.018 C 
ENDBRANCH  36  38
ENDBRANCH   2  36
TORSDOF 6
