REMARK  Name = ZINC04563750
REMARK  2 active torsions:
REMARK  status: ('A' for Active; 'I' for Inactive)
REMARK    1  A    between atoms: C_9  and  N_12
REMARK    2  A    between atoms: C_13  and  C_15
REMARK                            x       y       z     vdW  Elec       q    Type
REMARK                         _______ _______ _______ _____ _____    ______ ____
ROOT
ATOM      1  N   UNL     1       4.857   3.900  -0.218  0.00  0.00    -0.308 N 
ATOM      2  C   UNL     1       5.299   4.755  -1.162  0.00  0.00    +0.251 C 
ATOM      3  O   UNL     1       4.670   4.900  -2.194  0.00  0.00    -0.270 OA
ATOM      4  H   UNL     1       5.358   3.784   0.604  0.00  0.00    +0.149 HD
ENDROOT
BRANCH   2   5
ATOM      5  C   UNL     1       6.539   5.509  -0.946  0.00  0.00    +0.075 A 
ATOM      6  C   UNL     1       7.146   6.407  -1.776  0.00  0.00    +0.036 A 
ATOM      7  C   UNL     1       8.335   7.012  -1.354  0.00  0.00    +0.075 A 
ATOM      8  C   UNL     1       8.799   6.615  -0.086  0.00  0.00    +0.038 A 
ATOM      9  S   UNL     1       7.632   5.475   0.463  0.00  0.00    -0.083 S 
ATOM     10  C   UNL     1      10.030   7.172   0.461  0.00  0.00    +0.032 A 
ATOM     11  C   UNL     1      10.508   6.789   1.717  0.00  0.00    +0.013 A 
ATOM     12  C   UNL     1      11.675   7.334   2.203  0.00  0.00    +0.001 A 
ATOM     13  C   UNL     1      12.379   8.262   1.450  0.00  0.00    +0.004 A 
ATOM     14  C   UNL     1      11.921   8.650   0.209  0.00  0.00    +0.047 A 
ATOM     15  C   UNL     1      10.746   8.113  -0.300  0.00  0.00    +0.140 A 
ATOM     16  O   UNL     1      10.292   8.488  -1.515  0.00  0.00    -0.422 OA
ATOM     17  C   UNL     1       9.170   8.009  -2.062  0.00  0.00    +0.346 A 
ATOM     18  O   UNL     1       8.830   8.399  -3.163  0.00  0.00    -0.244 OA
ENDBRANCH   2   5
BRANCH   1  27
ATOM     19  C   UNL     1      -1.220   1.743   0.017  0.00  0.00    +0.000 A 
ATOM     20  C   UNL     1      -1.239   3.126   0.027  0.00  0.00    +0.000 A 
ATOM     21  C   UNL     1      -0.052   3.828   0.020  0.00  0.00    +0.004 A 
ATOM     22  C   UNL     1       1.165   3.157   0.009  0.00  0.00    -0.042 A 
ATOM     23  C   UNL     1       1.184   1.781   0.000  0.00  0.00    -0.044 A 
ATOM     24  C   UNL     1      -0.013   1.076   0.008  0.00  0.00    +0.004 A 
ATOM     25  C   UNL     1       2.465   0.989  -0.022  0.00  0.00    +0.037 C 
ATOM     26  C   UNL     1       3.644   1.862   0.401  0.00  0.00    +0.027 C 
ATOM     27  C   UNL     1       3.619   3.147  -0.434  0.00  0.00    +0.078 C 
ATOM     28  C   UNL     1       2.422   3.986   0.010  0.00  0.00    +0.057 C 
ENDBRANCH   1  27
TORSDOF 2
