REMARK  Name = ZINC20530528
REMARK  10 active torsions:
REMARK  status: ('A' for Active; 'I' for Inactive)
REMARK    1  A    between atoms: C_1  and  C_2
REMARK    2  A    between atoms: C_2  and  C_3
REMARK    3  A    between atoms: N_9  and  C_10
REMARK    4  A    between atoms: C_10  and  C_11
REMARK    5  A    between atoms: C_14  and  C_16
REMARK    6  A    between atoms: C_16  and  N_17
REMARK    7  A    between atoms: C_18  and  C_20
REMARK    8  A    between atoms: C_20  and  C_21
REMARK    9  A    between atoms: C_21  and  C_22
REMARK   10  A    between atoms: N_34  and  C_37
REMARK                            x       y       z     vdW  Elec       q    Type
REMARK                         _______ _______ _______ _____ _____    ______ ____
ROOT
ATOM      1  N   UNL     1       7.180   1.812   3.397  0.00  0.00    -0.308 N 
ATOM      2  C   UNL     1       8.496   1.619   3.615  0.00  0.00    +0.214 C 
ATOM      3  O   UNL     1       9.296   1.843   2.732  0.00  0.00    -0.276 OA
ATOM      4  H   UNL     1       6.455   1.609   4.199  0.00  0.00    +0.149 HD
ENDROOT
BRANCH   1   5
ATOM      5  C   UNL     1       6.716   2.292   2.093  0.00  0.00    +0.178 C 
BRANCH   5   9
ATOM      6  C   UNL     1       3.088   1.929   1.909  0.00  0.00    +0.089 A 
ATOM      7  C   UNL     1       3.154   3.203   2.335  0.00  0.00    +0.043 A 
ATOM      8  C   UNL     1       4.525   3.521   2.466  0.00  0.00    +0.046 A 
ATOM      9  C   UNL     1       5.215   2.422   2.111  0.00  0.00    +0.122 A 
ATOM     10  O   UNL     1       4.339   1.459   1.780  0.00  0.00    -0.465 OA
BRANCH   6  11
ATOM     11  C   UNL     1       1.823   1.158   1.629  0.00  0.00    -0.003 C 
BRANCH  11  17
ATOM     12  C   UNL     1       0.139   0.716  -0.053  0.00  0.00    -0.068 C 
ATOM     13  C   UNL     1      -0.300   1.055  -1.479  0.00  0.00    -0.015 C 
ATOM     14  C   UNL     1       0.755   0.549  -2.467  0.00  0.00    -0.003 C 
ATOM     15  C   UNL     1       2.107   1.183  -2.126  0.00  0.00    -0.019 C 
ATOM     16  C   UNL     1       2.476   0.841  -0.681  0.00  0.00    -0.078 C 
ATOM     17  N   UNL     1       1.436   1.346   0.224  0.00  0.00    +0.386 N 
ATOM     18  H   UNL     1       1.330   2.426   0.043  0.00  0.00    -0.081 HD
BRANCH  12  20
ATOM     19  C   UNL     1      -2.238   0.532   0.693  0.00  0.00    +0.002 C 
ATOM     20  C   UNL     1      -0.903   1.238   0.938  0.00  0.00    -0.019 C 
ENDBRANCH  12  20
ENDBRANCH  11  17
ENDBRANCH   6  11
ENDBRANCH   5   9
ENDBRANCH   1   5
BRANCH   2  21
ATOM     21  C   UNL     1       8.974   1.126   4.957  0.00  0.00    +0.103 C 
BRANCH  21  22
ATOM     22  C   UNL     1      10.498   0.994   4.939  0.00  0.00    +0.087 C 
BRANCH  22  23
ATOM     23  C   UNL     1      10.975   0.501   6.280  0.00  0.00    +0.156 A 
ATOM     24  N   UNL     1      11.316   1.247   7.302  0.00  0.00    -0.132 NA
ATOM     25  N   UNL     1      11.672   0.507   8.293  0.00  0.00    -0.128 NA
ATOM     26  C   UNL     1      11.582  -0.766   7.942  0.00  0.00    +0.178 A 
ATOM     27  N   UNL     1      11.134  -0.789   6.644  0.00  0.00    -0.195 N 
ATOM     28  N   UNL     1      10.938  -2.010   5.994  0.00  0.00    -0.148 NA
ATOM     29  C   UNL     1      11.182  -3.141   6.612  0.00  0.00    +0.142 A 
ATOM     30  C   UNL     1      11.643  -3.151   7.944  0.00  0.00    +0.049 A 
ATOM     31  C   UNL     1      11.843  -1.980   8.605  0.00  0.00    +0.053 A 
ATOM     32  N   UNL     1      10.982  -4.345   5.946  0.00  0.00    -0.317 N 
ATOM     33  C   UNL     1      12.208  -5.155   5.942  0.00  0.00    +0.088 C 
ATOM     34  C   UNL     1      11.925  -6.501   5.271  0.00  0.00    -0.060 C 
ATOM     35  N   UNL     1      11.445  -6.272   3.901  0.00  0.00    +0.380 N 
ATOM     36  C   UNL     1      10.219  -5.462   3.905  0.00  0.00    -0.060 C 
ATOM     37  C   UNL     1      10.502  -4.115   4.576  0.00  0.00    +0.088 C 
ATOM     38  C   UNL     1      11.234  -7.543   3.197  0.00  0.00    -0.096 C 
ATOM     39  H   UNL     1      12.221  -5.711   3.359  0.00  0.00    -0.082 HD
ENDBRANCH  22  23
ENDBRANCH  21  22
ENDBRANCH   2  21
TORSDOF 8
