REMARK  Name = ZINC30881621
REMARK  11 active torsions:
REMARK  status: ('A' for Active; 'I' for Inactive)
REMARK    1  A    between atoms: C_1  and  C_2
REMARK    2  A    between atoms: C_4  and  C_29
REMARK    3  A    between atoms: C_6  and  C_26
REMARK    4  A    between atoms: C_9  and  C_11
REMARK    5  A    between atoms: C_11  and  C_12
REMARK    6  A    between atoms: C_26  and  C_27
REMARK    7  A    between atoms: C_26  and  C_28
REMARK    8  A    between atoms: C_29  and  N_30
REMARK    9  A    between atoms: N_30  and  S_31
REMARK   10  A    between atoms: S_31  and  C_34
REMARK   11  A    between atoms: C_34  and  C_35
REMARK                            x       y       z     vdW  Elec       q    Type
REMARK                         _______ _______ _______ _____ _____    ______ ____
ROOT
ATOM      1  C   UNL     1      -1.660  -0.331  -7.413  0.00  0.00    +0.039 C 
ATOM      2  C   UNL     1      -0.734  -0.928  -6.384  0.00  0.00    -0.073 C 
ATOM      3  C   UNL     1      -0.529  -0.261  -5.294  0.00  0.00    -0.023 C 
ATOM      4  C   UNL     1       0.372  -0.720  -4.185  0.00  0.00    +0.030 C 
ATOM      5  C   UNL     1       0.654  -2.218  -4.324  0.00  0.00    +0.000 C 
ATOM      6  C   UNL     1       1.091  -2.498  -5.767  0.00  0.00    +0.012 C 
ATOM      7  C   UNL     1      -0.108  -2.257  -6.687  0.00  0.00    +0.023 C 
ENDROOT
BRANCH   5   8
ATOM      8  C   UNL     1       1.774  -2.622  -3.363  0.00  0.00    -0.013 C 
ATOM      9  C   UNL     1       1.941  -4.142  -3.385  0.00  0.00    +0.007 C 
ATOM     10  C   UNL     1       3.082  -1.958  -3.797  0.00  0.00    +0.007 C 
ENDBRANCH   5   8
BRANCH   7  11
ATOM     11  C   UNL     1      -1.142  -3.365  -6.473  0.00  0.00    +0.103 C 
BRANCH  11  12
ATOM     12  C   UNL     1      -0.570  -4.681  -6.933  0.00  0.00    +0.216 C 
ATOM     13  O   UNL     1       0.556  -4.730  -7.382  0.00  0.00    -0.276 OA
ATOM     14  N   UNL     1      -1.309  -5.805  -6.846  0.00  0.00    -0.298 N 
ATOM     15  C   UNL     1      -2.674  -5.770  -6.299  0.00  0.00    +0.126 C 
ATOM     16  C   UNL     1      -3.611  -6.468  -7.297  0.00  0.00    +0.125 C 
ATOM     17  N   UNL     1      -3.094  -7.812  -7.589  0.00  0.00    -0.314 N 
ATOM     18  C   UNL     1      -1.780  -7.747  -8.242  0.00  0.00    +0.125 C 
ATOM     19  C   UNL     1      -0.770  -7.100  -7.289  0.00  0.00    +0.126 C 
ATOM     20  C   UNL     1      -3.997  -8.537  -8.357  0.00  0.00    +0.099 A 
ATOM     21  C   UNL     1      -5.301  -8.713  -7.905  0.00  0.00    +0.042 A 
ATOM     22  C   UNL     1      -6.189  -9.437  -8.679  0.00  0.00    +0.005 A 
ATOM     23  C   UNL     1      -5.742  -9.964  -9.883  0.00  0.00    +0.018 A 
ATOM     24  C   UNL     1      -4.434  -9.751 -10.270  0.00  0.00    +0.084 A 
ATOM     25  N   UNL     1      -3.610  -9.051  -9.514  0.00  0.00    -0.350 N 
ATOM     26  H   UNL     1      -2.579  -8.899  -9.866  0.00  0.00    +0.166 HD
ENDBRANCH  11  12
ENDBRANCH   7  11
BRANCH   4  27
ATOM     27  C   UNL     1      -0.305  -0.454  -2.839  0.00  0.00    +0.113 C 
BRANCH  27  28
ATOM     28  N   UNL     1      -0.470   0.989  -2.651  0.00  0.00    -0.194 NA
ATOM     29  H   UNL     1       0.200   1.691  -3.170  0.00  0.00    +0.148 HD
BRANCH  28  30
ATOM     30  S   UNL     1      -1.491   1.561  -1.479  0.00  0.00    +0.033 S 
ATOM     31  O   UNL     1      -2.715   0.874  -1.699  0.00  0.00    -0.158 OA
ATOM     32  O   UNL     1      -1.422   2.975  -1.597  0.00  0.00    -0.158 OA
BRANCH  30  33
ATOM     33  C   UNL     1      -0.747   1.028   0.087  0.00  0.00    +0.220 C 
BRANCH  33  34
ATOM     34  C   UNL     1      -1.603   1.499   1.235  0.00  0.00    -0.025 A 
ATOM     35  C   UNL     1      -1.364   2.731   1.814  0.00  0.00    +0.005 A 
ATOM     36  C   UNL     1      -2.151   3.165   2.865  0.00  0.00    +0.000 A 
ATOM     37  C   UNL     1      -3.171   2.362   3.341  0.00  0.00    +0.000 A 
ATOM     38  C   UNL     1      -3.406   1.128   2.765  0.00  0.00    +0.000 A 
ATOM     39  C   UNL     1      -2.622   0.696   1.712  0.00  0.00    +0.005 A 
ENDBRANCH  33  34
ENDBRANCH  30  33
ENDBRANCH  28  30
ENDBRANCH  27  28
ENDBRANCH   4  27
TORSDOF 8
