REMARK  Name = ZINC13163687
REMARK  7 active torsions:
REMARK  status: ('A' for Active; 'I' for Inactive)
REMARK    1  A    between atoms: C_1  and  C_2
REMARK    2  A    between atoms: C_2  and  C_4
REMARK    3  A    between atoms: C_2  and  N_13
REMARK    4  A    between atoms: C_14  and  C_16
REMARK    5  A    between atoms: C_16  and  N_17
REMARK    6  A    between atoms: C_20  and  C_24
REMARK    7  A    between atoms: C_20  and  C_25
REMARK                            x       y       z     vdW  Elec       q    Type
REMARK                         _______ _______ _______ _____ _____    ______ ____
ROOT
ATOM      1  N   UNL     1      -1.280   8.851   2.896  0.00  0.00    -0.215 N 
ATOM      2  C   UNL     1      -2.011   8.739   4.022  0.00  0.00    +0.251 C 
ATOM      3  O   UNL     1      -2.029   7.803   4.793  0.00  0.00    -0.272 OA
ATOM      4  C   UNL     1      -2.806  10.025   4.126  0.00  0.00    +0.135 C 
ATOM      5  N   UNL     1      -2.391  10.785   2.933  0.00  0.00    -0.281 N 
ATOM      6  C   UNL     1      -1.496  10.020   2.282  0.00  0.00    +0.310 C 
ATOM      7  O   UNL     1      -0.948  10.353   1.250  0.00  0.00    -0.252 OA
ATOM      8  C   UNL     1      -4.307   9.735   4.084  0.00  0.00    +0.047 C 
ATOM      9  H   UNL     1      -2.701  11.666   2.671  0.00  0.00    +0.152 HD
ENDROOT
BRANCH   4  10
ATOM     10  C   UNL     1      -2.446  10.771   5.385  0.00  0.00    -0.015 A 
ATOM     11  C   UNL     1      -2.038  10.059   6.511  0.00  0.00    +0.007 A 
ATOM     12  C   UNL     1      -1.706  10.702   7.664  0.00  0.00    +0.009 A 
ATOM     13  C   UNL     1      -1.775  12.104   7.723  0.00  0.00    -0.018 A 
ATOM     14  C   UNL     1      -1.439  12.803   8.895  0.00  0.00    +0.008 A 
ATOM     15  C   UNL     1      -1.518  14.162   8.915  0.00  0.00    +0.001 A 
ATOM     16  C   UNL     1      -1.927  14.873   7.789  0.00  0.00    +0.001 A 
ATOM     17  C   UNL     1      -2.259  14.230   6.636  0.00  0.00    +0.008 A 
ATOM     18  C   UNL     1      -2.191  12.828   6.578  0.00  0.00    -0.018 A 
ATOM     19  C   UNL     1      -2.520  12.130   5.403  0.00  0.00    +0.014 A 
ENDBRANCH   4  10
BRANCH   1  20
ATOM     20  C   UNL     1      -0.357   7.823   2.407  0.00  0.00    +0.213 C 
BRANCH  20  22
ATOM     21  N   UNL     1      -0.445   5.845   0.925  0.00  0.00    -0.304 N 
ATOM     22  C   UNL     1      -1.096   6.878   1.496  0.00  0.00    +0.232 C 
ATOM     23  O   UNL     1      -2.277   7.046   1.276  0.00  0.00    -0.274 OA
ATOM     24  H   UNL     1       0.500   5.711   1.101  0.00  0.00    +0.149 HD
BRANCH  21  26
ATOM     25  C   UNL     1      -1.191   5.502  -1.379  0.00  0.00    +0.036 C 
ATOM     26  C   UNL     1      -1.163   4.926   0.038  0.00  0.00    +0.136 C 
BRANCH  26  27
ATOM     27  C   UNL     1      -0.463   3.591   0.025  0.00  0.00    +0.126 A 
ATOM     28  C   UNL     1      -1.080   2.402   0.019  0.00  0.00    +0.055 A 
ATOM     29  C   UNL     1      -0.017   1.390   0.010  0.00  0.00    +0.020 A 
ATOM     30  C   UNL     1       0.002  -0.004   0.002  0.00  0.00    +0.011 A 
ATOM     31  C   UNL     1       1.199  -0.666  -0.013  0.00  0.00    +0.001 A 
ATOM     32  C   UNL     1       2.392   0.042  -0.021  0.00  0.00    +0.004 A 
ATOM     33  C   UNL     1       2.393   1.420  -0.014  0.00  0.00    +0.047 A 
ATOM     34  C   UNL     1       1.188   2.112   0.002  0.00  0.00    +0.135 A 
ATOM     35  O   UNL     1       0.871   3.422   0.012  0.00  0.00    -0.458 OA
ENDBRANCH  26  27
ENDBRANCH  21  26
ENDBRANCH  20  22
ENDBRANCH   1  20
TORSDOF 5
