REMARK  Name = ZINC45639741
REMARK  7 active torsions:
REMARK  status: ('A' for Active; 'I' for Inactive)
REMARK    1  A    between atoms: C_1  and  C_2
REMARK    2  A    between atoms: C_6  and  C_28
REMARK    3  A    between atoms: C_8  and  N_11
REMARK    4  A    between atoms: N_14  and  N_15
REMARK    5  A    between atoms: C_16  and  C_18
REMARK    6  A    between atoms: C_28  and  C_29
REMARK    7  A    between atoms: C_28  and  C_30
REMARK                            x       y       z     vdW  Elec       q    Type
REMARK                         _______ _______ _______ _____ _____    ______ ____
ROOT
ATOM      1  N   UNL     1       0.224   1.450   2.497  0.00  0.00    -0.295 N 
ATOM      2  C   UNL     1       1.345   2.138   2.792  0.00  0.00    +0.316 C 
ATOM      3  O   UNL     1       2.373   1.542   3.051  0.00  0.00    -0.251 OA
ATOM      4  N   UNL     1       1.326   3.486   2.799  0.00  0.00    -0.218 N 
ATOM      5  H   UNL     1      -0.596   1.925   2.290  0.00  0.00    +0.151 HD
ATOM      6  H   UNL     1       2.133   3.980   3.012  0.00  0.00    +0.174 HD
ENDROOT
BRANCH   1  12
ATOM      7  C   UNL     1       0.243   1.529  -0.001  0.00  0.00    +0.007 C 
ATOM      8  C   UNL     1       0.264  -0.001  -0.010  0.00  0.00    -0.012 C 
ATOM      9  C   UNL     1      -1.172  -0.530  -0.024  0.00  0.00    +0.004 C 
ATOM     10  C   UNL     1      -1.910  -0.037   1.222  0.00  0.00    +0.006 C 
ATOM     11  C   UNL     1      -1.192  -0.544   2.474  0.00  0.00    +0.012 C 
ATOM     12  C   UNL     1       0.244  -0.015   2.489  0.00  0.00    +0.078 C 
ATOM     13  C   UNL     1       0.982  -0.508   1.243  0.00  0.00    +0.026 C 
BRANCH  11  14
ATOM     14  C   UNL     1      -1.930  -0.051   3.721  0.00  0.00    -0.012 C 
ATOM     15  C   UNL     1      -3.365  -0.580   3.706  0.00  0.00    +0.007 C 
ATOM     16  C   UNL     1      -1.212  -0.558   4.973  0.00  0.00    +0.007 C 
ENDBRANCH  11  14
ENDBRANCH   1  12
BRANCH   4  17
ATOM     17  N   UNL     1       0.142   4.172   2.500  0.00  0.00    -0.228 N 
ATOM     18  C   UNL     1       0.124   5.519   2.508  0.00  0.00    +0.279 C 
ATOM     19  O   UNL     1       1.135   6.139   2.774  0.00  0.00    -0.267 OA
ATOM     20  H   UNL     1      -0.665   3.677   2.288  0.00  0.00    +0.173 HD
BRANCH  18  21
ATOM     21  C   UNL     1      -1.129   6.245   2.191  0.00  0.00    +0.127 A 
ATOM     22  C   UNL     1      -1.129   7.648   2.198  0.00  0.00    +0.034 A 
ATOM     23  C   UNL     1      -2.276   8.329   1.908  0.00  0.00    +0.012 A 
ATOM     24  C   UNL     1      -3.434   7.586   1.609  0.00  0.00    +0.000 A 
ATOM     25  C   UNL     1      -4.648   8.220   1.302  0.00  0.00    +0.010 A 
ATOM     26  C   UNL     1      -5.747   7.470   1.017  0.00  0.00    +0.001 A 
ATOM     27  C   UNL     1      -5.685   6.077   1.026  0.00  0.00    +0.002 A 
ATOM     28  C   UNL     1      -4.527   5.427   1.320  0.00  0.00    +0.028 A 
ATOM     29  C   UNL     1      -3.368   6.168   1.619  0.00  0.00    +0.072 A 
ATOM     30  N   UNL     1      -2.218   5.558   1.905  0.00  0.00    -0.242 NA
ENDBRANCH  18  21
ENDBRANCH   4  17
TORSDOF 4
