REMARK  Name = ZINC36628032
REMARK  13 active torsions:
REMARK  status: ('A' for Active; 'I' for Inactive)
REMARK    1  A    between atoms: C_1  and  C_2
REMARK    2  A    between atoms: C_2  and  N_3
REMARK    3  A    between atoms: N_3  and  C_4
REMARK    4  A    between atoms: N_3  and  C_6
REMARK    5  A    between atoms: C_4  and  C_5
REMARK    6  A    between atoms: C_6  and  C_7
REMARK    7  A    between atoms: C_7  and  C_8
REMARK    8  A    between atoms: C_8  and  N_9
REMARK    9  A    between atoms: N_9  and  C_10
REMARK   10  A    between atoms: C_11  and  C_34
REMARK   11  A    between atoms: C_13  and  C_15
REMARK   12  A    between atoms: C_18  and  S_21
REMARK   13  A    between atoms: S_21  and  N_24
REMARK                            x       y       z     vdW  Elec       q    Type
REMARK                         _______ _______ _______ _____ _____    ______ ____
ROOT
ATOM      1  C   UNL     1       1.358  -9.329  -3.735  0.00  0.00    +0.037 A 
ATOM      2  C   UNL     1       0.505  -9.460  -2.638  0.00  0.00    +0.015 A 
ATOM      3  C   UNL     1       0.050 -10.708  -2.267  0.00  0.00    +0.029 A 
ATOM      4  C   UNL     1       0.437 -11.829  -2.979  0.00  0.00    +0.106 A 
ATOM      5  C   UNL     1       1.282 -11.706  -4.068  0.00  0.00    +0.029 A 
ATOM      6  C   UNL     1       1.739 -10.463  -4.454  0.00  0.00    +0.015 A 
ENDROOT
BRANCH   1  10
ATOM      7  C   UNL     1       2.174  -5.838  -4.170  0.00  0.00    +0.225 A 
ATOM      8  C   UNL     1       2.878  -6.420  -5.213  0.00  0.00    +0.201 A 
ATOM      9  N   UNL     1       2.643  -7.758  -5.150  0.00  0.00    -0.196 NA
ATOM     10  C   UNL     1       1.849  -7.995  -4.139  0.00  0.00    +0.231 A 
ATOM     11  O   UNL     1       1.551  -6.837  -3.518  0.00  0.00    -0.421 OA
BRANCH   7  12
ATOM     12  N   UNL     1       2.127  -4.497  -3.857  0.00  0.00    -0.313 N 
ATOM     13  H   UNL     1       2.616  -3.856  -4.395  0.00  0.00    +0.149 HD
BRANCH  12  14
ATOM     14  C   UNL     1       1.336  -4.039  -2.711  0.00  0.00    +0.102 C 
BRANCH  14  15
ATOM     15  C   UNL     1       1.453  -2.519  -2.586  0.00  0.00    +0.000 C 
BRANCH  15  16
ATOM     16  C   UNL     1       0.628  -2.041  -1.389  0.00  0.00    -0.077 C 
BRANCH  16  17
ATOM     17  N   UNL     1       0.826  -0.598  -1.203  0.00  0.00    +0.379 N 
ATOM     18  H   UNL     1       1.813  -0.402  -1.119  0.00  0.00    -0.082 HD
BRANCH  17  20
ATOM     19  C   UNL     1       0.597   1.616  -2.224  0.00  0.00    -0.017 C 
ATOM     20  C   UNL     1       0.280   0.126  -2.359  0.00  0.00    -0.082 C 
ENDBRANCH  17  20
BRANCH  17  21
ATOM     21  C   UNL     1       0.136  -0.162   0.018  0.00  0.00    -0.082 C 
ATOM     22  C   UNL     1       0.810  -0.793   1.238  0.00  0.00    -0.017 C 
ENDBRANCH  17  21
ENDBRANCH  16  17
ENDBRANCH  15  16
ENDBRANCH  14  15
ENDBRANCH  12  14
ENDBRANCH   7  12
BRANCH   8  23
ATOM     23  C   UNL     1       3.696  -5.742  -6.173  0.00  0.00    +0.124 C 
ATOM     24  N   UNL     1       4.344  -5.204  -6.936  0.00  0.00    -0.189 NA
ENDBRANCH   8  23
ENDBRANCH   1  10
BRANCH   4  25
ATOM     25  S   UNL     1      -0.149 -13.419  -2.499  0.00  0.00    +0.061 S 
ATOM     26  O   UNL     1       0.791 -14.364  -2.991  0.00  0.00    -0.153 OA
ATOM     27  O   UNL     1      -0.487 -13.328  -1.121  0.00  0.00    -0.153 OA
BRANCH  25  28
ATOM     28  N   UNL     1      -1.563 -13.688  -3.317  0.00  0.00    -0.172 NA
ATOM     29  C   UNL     1      -2.862 -13.284  -2.753  0.00  0.00    +0.114 C 
ATOM     30  C   UNL     1      -3.456 -12.212  -3.665  0.00  0.00    +0.052 C 
ATOM     31  C   UNL     1      -3.375 -12.631  -5.109  0.00  0.00    -0.042 A 
ATOM     32  C   UNL     1      -4.225 -12.003  -6.012  0.00  0.00    +0.004 A 
ATOM     33  C   UNL     1      -4.195 -12.334  -7.351  0.00  0.00    +0.000 A 
ATOM     34  C   UNL     1      -3.311 -13.296  -7.802  0.00  0.00    +0.000 A 
ATOM     35  C   UNL     1      -2.468 -13.924  -6.907  0.00  0.00    +0.005 A 
ATOM     36  C   UNL     1      -2.502 -13.596  -5.559  0.00  0.00    -0.028 A 
ATOM     37  C   UNL     1      -1.572 -14.333  -4.634  0.00  0.00    +0.144 C 
ENDBRANCH  25  28
ENDBRANCH   4  25
TORSDOF 11
