REMARK  Name = ZINC12184130
REMARK  8 active torsions:
REMARK  status: ('A' for Active; 'I' for Inactive)
REMARK    1  A    between atoms: C_4  and  C_7
REMARK    2  A    between atoms: C_8  and  C_12
REMARK    3  A    between atoms: C_12  and  N_68
REMARK    4  A    between atoms: C_13  and  N_68
REMARK    5  A    between atoms: N_16  and  C_19
REMARK    6  A    between atoms: C_22  and  C_25
REMARK    7  A    between atoms: C_31  and  C_34
REMARK    8  A    between atoms: C_34  and  O_35
REMARK                            x       y       z     vdW  Elec       q    Type
REMARK                         _______ _______ _______ _____ _____    ______ ____
ROOT
ATOM      1  C   UNL     1      -0.742  -7.394   0.071  0.00  0.00    -0.068 C 
ATOM      2  C   UNL     1       0.579  -6.619   0.035  0.00  0.00    +0.003 C 
ATOM      3  C   UNL     1       0.289  -5.120   0.141  0.00  0.00    +0.103 C 
ATOM      4  N   UNL     1      -0.426  -4.847   1.395  0.00  0.00    -0.330 N 
ATOM      5  C   UNL     1      -1.719  -5.542   1.431  0.00  0.00    +0.103 C 
ATOM      6  C   UNL     1      -1.488  -7.053   1.364  0.00  0.00    +0.003 C 
ENDROOT
BRANCH   4   7
ATOM      7  C   UNL     1      -0.590  -3.479   1.586  0.00  0.00    +0.030 A 
ATOM      8  C   UNL     1      -1.246  -3.011   2.721  0.00  0.00    +0.024 A 
ATOM      9  C   UNL     1      -1.410  -1.658   2.914  0.00  0.00    +0.015 A 
ATOM     10  C   UNL     1      -0.917  -0.754   1.968  0.00  0.00    +0.037 A 
ATOM     11  C   UNL     1      -0.264  -1.228   0.826  0.00  0.00    +0.015 A 
ATOM     12  C   UNL     1      -0.098  -2.582   0.643  0.00  0.00    +0.024 A 
BRANCH  10  13
ATOM     13  C   UNL     1      -1.091   0.697   2.171  0.00  0.00    +0.247 C 
ATOM     14  O   UNL     1      -2.099   1.119   2.704  0.00  0.00    -0.270 OA
ATOM     15  N   UNL     1      -0.133   1.554   1.766  0.00  0.00    -0.297 N 
ATOM     16  C   UNL     1      -0.342   3.005   1.851  0.00  0.00    +0.108 C 
ATOM     17  C   UNL     1       0.824   3.631   2.623  0.00  0.00    +0.019 C 
ATOM     18  C   UNL     1       2.144   3.224   1.965  0.00  0.00    +0.009 C 
ATOM     19  C   UNL     1       2.292   1.701   2.014  0.00  0.00    +0.032 C 
ATOM     20  C   UNL     1       1.143   1.054   1.235  0.00  0.00    +0.113 C 
BRANCH  19  21
ATOM     21  C   UNL     1       3.628   1.298   1.385  0.00  0.00    +0.160 C 
BRANCH  21  22
ATOM     22  O   UNL     1       3.819  -0.110   1.536  0.00  0.00    -0.395 OA
ATOM     23  H   UNL     1       4.647  -0.437   1.159  0.00  0.00    +0.209 HD
ENDBRANCH  21  22
ENDBRANCH  19  21
ENDBRANCH  10  13
ENDBRANCH   4   7
BRANCH   1  24
ATOM     24  N   UNL     1      -0.457  -8.840   0.031  0.00  0.00    +0.384 N 
ATOM     25  H   UNL     1       0.366  -9.008  -0.559  0.00  0.00    -0.085 HD
ATOM     26  H   UNL     1      -0.269  -9.175   0.984  0.00  0.00    -0.085 HD
BRANCH  24  27
ATOM     27  C   UNL     1      -1.611  -9.574  -0.523  0.00  0.00    -0.037 C 
BRANCH  27  29
ATOM     28  C   UNL     1      -1.506 -12.006   0.402  0.00  0.00    +0.079 A 
ATOM     29  C   UNL     1      -1.292 -11.047  -0.551  0.00  0.00    +0.000 A 
ATOM     30  S   UNL     1      -0.538 -12.027  -1.841  0.00  0.00    -0.082 S 
ATOM     31  C   UNL     1      -0.570 -13.554  -1.016  0.00  0.00    +0.156 A 
ATOM     32  N   UNL     1      -1.130 -13.246   0.128  0.00  0.00    -0.247 NA
BRANCH  28  36
ATOM     33  C   UNL     1      -3.320 -11.036   4.123  0.00  0.00    +0.000 A 
ATOM     34  C   UNL     1      -3.573 -12.261   3.532  0.00  0.00    +0.001 A 
ATOM     35  C   UNL     1      -2.987 -12.581   2.324  0.00  0.00    +0.010 A 
ATOM     36  C   UNL     1      -2.139 -11.668   1.700  0.00  0.00    +0.001 A 
ATOM     37  C   UNL     1      -1.884 -10.437   2.303  0.00  0.00    +0.010 A 
ATOM     38  C   UNL     1      -2.479 -10.126   3.508  0.00  0.00    +0.001 A 
ENDBRANCH  28  36
ENDBRANCH  27  29
ENDBRANCH  24  27
ENDBRANCH   1  24
TORSDOF 8
