REMARK  Name = ZINC21364784
REMARK  13 active torsions:
REMARK  status: ('A' for Active; 'I' for Inactive)
REMARK    1  A    between atoms: C_1  and  C_2
REMARK    2  A    between atoms: C_2  and  C_3
REMARK    3  A    between atoms: C_3  and  C_4
REMARK    4  A    between atoms: C_4  and  N_5
REMARK    5  A    between atoms: N_5  and  C_6
REMARK    6  A    between atoms: N_5  and  C_8
REMARK    7  A    between atoms: C_6  and  C_7
REMARK    8  A    between atoms: C_8  and  C_9
REMARK    9  A    between atoms: C_9  and  N_10
REMARK   10  A    between atoms: C_16  and  C_29
REMARK   11  A    between atoms: C_19  and  C_20
REMARK   12  A    between atoms: C_19  and  C_21
REMARK   13  A    between atoms: N_23  and  C_24
REMARK                            x       y       z     vdW  Elec       q    Type
REMARK                         _______ _______ _______ _____ _____    ______ ____
ROOT
ATOM      1  N   UNL     1      -2.174   2.046   4.580  0.00  0.00    -0.282 N 
ATOM      2  C   UNL     1      -1.837   3.356   4.515  0.00  0.00    +0.264 C 
ATOM      3  O   UNL     1      -0.822   3.783   5.032  0.00  0.00    -0.268 OA
ATOM      4  C   UNL     1      -2.762   4.232   3.789  0.00  0.00    +0.105 A 
ATOM      5  C   UNL     1      -2.634   5.536   3.395  0.00  0.00    +0.033 A 
ATOM      6  C   UNL     1      -3.805   5.883   2.721  0.00  0.00    +0.032 A 
ATOM      7  C   UNL     1      -4.637   4.774   2.718  0.00  0.00    +0.085 A 
ATOM      8  N   UNL     1      -4.008   3.771   3.377  0.00  0.00    -0.331 N 
ATOM      9  C   UNL     1      -4.460   2.412   3.678  0.00  0.00    +0.157 C 
ATOM     10  C   UNL     1      -3.248   1.485   3.768  0.00  0.00    +0.128 C 
ATOM     11  C   UNL     1      -3.687   0.154   4.381  0.00  0.00    +0.043 C 
ENDROOT
BRANCH   7  12
ATOM     12  C   UNL     1      -5.971   4.699   2.106  0.00  0.00    +0.151 A 
ATOM     13  C   UNL     1      -6.567   5.675   1.362  0.00  0.00    +0.051 A 
ATOM     14  C   UNL     1      -7.828   5.180   0.981  0.00  0.00    +0.042 A 
ATOM     15  C   UNL     1      -7.942   3.942   1.504  0.00  0.00    +0.196 A 
ATOM     16  O   UNL     1      -6.818   3.653   2.178  0.00  0.00    -0.461 OA
ENDBRANCH   7  12
BRANCH  10  17
ATOM     17  C   UNL     1      -2.725   1.231   2.377  0.00  0.00    +0.238 C 
ATOM     18  O   UNL     1      -3.099   0.258   1.757  0.00  0.00    -0.273 OA
ATOM     19  N   UNL     1      -1.842   2.084   1.823  0.00  0.00    -0.311 N 
ATOM     20  H   UNL     1      -1.502   2.967   2.385  0.00  0.00    +0.149 HD
BRANCH  19  21
ATOM     21  C   UNL     1      -1.333   1.837   0.471  0.00  0.00    +0.073 C 
ATOM     22  C   UNL     1      -2.283   2.460  -0.573  0.00  0.00    +0.022 C 
ATOM     23  C   UNL     1      -1.654   3.841  -0.882  0.00  0.00    +0.002 C 
ATOM     24  C   UNL     1      -0.135   3.538  -0.861  0.00  0.00    +0.002 C 
ATOM     25  C   UNL     1       0.032   2.523   0.288  0.00  0.00    +0.022 C 
ENDBRANCH  19  21
ENDBRANCH  10  17
BRANCH   1  26
ATOM     26  C   UNL     1      -1.439   1.167   5.492  0.00  0.00    +0.091 C 
BRANCH  26  27
ATOM     27  C   UNL     1      -0.236   0.566   4.762  0.00  0.00    -0.060 C 
BRANCH  27  28
ATOM     28  N   UNL     1       0.502  -0.315   5.676  0.00  0.00    +0.381 N 
ATOM     29  H   UNL     1      -0.216  -1.024   6.115  0.00  0.00    -0.082 HD
BRANCH  28  30
ATOM     30  C   UNL     1       1.107   0.452   6.774  0.00  0.00    -0.082 C 
ATOM     31  C   UNL     1       1.514  -0.502   7.899  0.00  0.00    -0.017 C 
ENDBRANCH  28  30
BRANCH  28  32
ATOM     32  C   UNL     1       1.518  -1.091   4.954  0.00  0.00    -0.079 C 
BRANCH  32  33
ATOM     33  C   UNL     1       0.840  -2.220   4.174  0.00  0.00    -0.019 C 
BRANCH  33  35
ATOM     34  C   UNL     1       1.228  -4.230   2.742  0.00  0.00    +0.004 C 
ATOM     35  C   UNL     1       1.906  -3.102   3.522  0.00  0.00    -0.005 C 
ENDBRANCH  33  35
ENDBRANCH  32  33
ENDBRANCH  28  32
ENDBRANCH  27  28
ENDBRANCH  26  27
ENDBRANCH   1  26
TORSDOF 10
