REMARK  Name = ZINC62012292
REMARK  9 active torsions:
REMARK  status: ('A' for Active; 'I' for Inactive)
REMARK    1  A    between atoms: C_1  and  C_2
REMARK    2  A    between atoms: C_2  and  C_4
REMARK    3  A    between atoms: C_2  and  N_11
REMARK    4  A    between atoms: N_11  and  C_12
REMARK    5  A    between atoms: N_11  and  C_13
REMARK    6  A    between atoms: C_13  and  C_15
REMARK    7  A    between atoms: C_13  and  C_21
REMARK    8  A    between atoms: C_21  and  C_23
REMARK    9  A    between atoms: C_21  and  N_24
REMARK                            x       y       z     vdW  Elec       q    Type
REMARK                         _______ _______ _______ _____ _____    ______ ____
ROOT
ATOM      1  C   UNL     1      -0.505   0.348  -2.493  0.00  0.00    +0.079 C 
ENDROOT
BRANCH   1   2
ATOM      2  C   UNL     1      -0.177   1.800  -2.259  0.00  0.00    +0.007 A 
ATOM      3  C   UNL     1      -0.987   2.883  -2.348  0.00  0.00    +0.014 A 
ATOM      4  C   UNL     1      -0.463   4.136  -2.087  0.00  0.00    +0.028 A 
ATOM      5  C   UNL     1       0.847   4.243  -1.750  0.00  0.00    +0.078 A 
ATOM      6  S   UNL     1       1.379   2.539  -1.788  0.00  0.00    -0.080 S 
ATOM      7 CL   UNL     1       1.766   5.667  -1.373  0.00  0.00    -0.076 Cl
ENDBRANCH   1   2
BRANCH   1   8
ATOM      8  N   UNL     1      -0.072  -0.444  -1.334  0.00  0.00    -0.293 NA
ATOM      9  C   UNL     1       1.381  -0.346  -1.142  0.00  0.00    +0.106 C 
BRANCH   8  11
ATOM     10  C   UNL     1      -0.268  -0.837   1.075  0.00  0.00    +0.029 C 
ATOM     11  C   UNL     1      -0.792  -0.038  -0.120  0.00  0.00    +0.084 C 
BRANCH  11  12
ATOM     12  C   UNL     1      -2.265  -0.306  -0.296  0.00  0.00    -0.030 A 
ATOM     13  C   UNL     1      -2.689  -1.500  -0.848  0.00  0.00    +0.006 A 
ATOM     14  C   UNL     1      -4.039  -1.747  -1.010  0.00  0.00    +0.020 A 
ATOM     15  C   UNL     1      -4.967  -0.798  -0.619  0.00  0.00    +0.041 A 
ATOM     16  C   UNL     1      -4.542   0.398  -0.067  0.00  0.00    +0.020 A 
ATOM     17  C   UNL     1      -3.192   0.640   0.100  0.00  0.00    +0.006 A 
ATOM     18 CL   UNL     1      -6.663  -1.106  -0.823  0.00  0.00    -0.084 Cl
ENDBRANCH  11  12
ENDBRANCH   8  11
ENDBRANCH   1   8
BRANCH   1  19
ATOM     19  C   UNL     1       0.221  -0.144  -3.747  0.00  0.00    -0.056 C 
ATOM     20  C   UNL     1       0.005  -1.651  -3.903  0.00  0.00    -0.012 C 
BRANCH  19  21
ATOM     21  N   UNL     1      -0.312   0.552  -4.926  0.00  0.00    +0.381 N 
ATOM     22  H   UNL     1      -0.170   1.545  -4.823  0.00  0.00    -0.090 HD
ATOM     23  H   UNL     1       0.166   0.227  -5.752  0.00  0.00    -0.090 HD
ATOM     24  H   UNL     1      -1.299   0.360  -5.011  0.00  0.00    -0.090 HD
ENDBRANCH  19  21
ENDBRANCH   1  19
TORSDOF 6
