REMARK  Name = ZINC13138197
REMARK  11 active torsions:
REMARK  status: ('A' for Active; 'I' for Inactive)
REMARK    1  A    between atoms: C_1  and  C_2
REMARK    2  A    between atoms: C_2  and  O_3
REMARK    3  A    between atoms: O_3  and  C_4
REMARK    4  A    between atoms: C_7  and  S_10
REMARK    5  A    between atoms: S_10  and  N_13
REMARK    6  A    between atoms: N_13  and  C_14
REMARK    7  A    between atoms: C_14  and  C_16
REMARK    8  A    between atoms: C_14  and  C_27
REMARK    9  A    between atoms: C_16  and  C_17
REMARK   10  A    between atoms: N_29  and  N_30
REMARK   11  A    between atoms: C_31  and  C_33
REMARK                            x       y       z     vdW  Elec       q    Type
REMARK                         _______ _______ _______ _____ _____    ______ ____
ROOT
ATOM      1  C   UNL     1      -5.047   8.176   0.075  0.00  0.00    +0.168 C 
ENDROOT
BRANCH   1   2
ATOM      2  C   UNL     1      -3.809   7.324   0.193  0.00  0.00    +0.248 C 
ATOM      3  O   UNL     1      -2.712   7.833   0.102  0.00  0.00    -0.273 OA
ATOM      4  N   UNL     1      -3.921   5.997   0.397  0.00  0.00    -0.233 N 
ATOM      5  H   UNL     1      -4.799   5.590   0.469  0.00  0.00    +0.173 HD
BRANCH   4   6
ATOM      6  N   UNL     1      -2.771   5.205   0.506  0.00  0.00    -0.230 N 
ATOM      7  C   UNL     1      -2.883   3.878   0.711  0.00  0.00    +0.262 C 
ATOM      8  O   UNL     1      -3.983   3.368   0.801  0.00  0.00    -0.269 OA
ATOM      9  H   UNL     1      -1.893   5.612   0.434  0.00  0.00    +0.173 HD
BRANCH   7  10
ATOM     10  C   UNL     1      -1.669   3.042   0.826  0.00  0.00    +0.056 A 
ATOM     11  C   UNL     1      -1.772   1.661   1.034  0.00  0.00    +0.016 A 
ATOM     12  C   UNL     1      -0.605   0.925   1.138  0.00  0.00    +0.020 A 
ATOM     13  C   UNL     1       0.614   1.569   1.026  0.00  0.00    +0.111 A 
ATOM     14  N   UNL     1       0.681   2.871   0.826  0.00  0.00    -0.263 NA
ATOM     15  C   UNL     1      -0.401   3.615   0.724  0.00  0.00    +0.123 A 
ENDBRANCH   7  10
ENDBRANCH   4   6
ENDBRANCH   1   2
BRANCH   1  16
ATOM     16  N   UNL     1      -4.660   9.572  -0.143  0.00  0.00    -0.178 NA
ATOM     17  H   UNL     1      -4.441  10.139   0.613  0.00  0.00    +0.149 HD
BRANCH  16  18
ATOM     18  S   UNL     1      -4.597  10.183  -1.681  0.00  0.00    +0.059 S 
ATOM     19  O   UNL     1      -4.226  11.549  -1.560  0.00  0.00    -0.153 OA
ATOM     20  O   UNL     1      -3.848   9.256  -2.455  0.00  0.00    -0.153 OA
BRANCH  18  24
ATOM     21  C   UNL     1      -8.818  10.127  -3.319  0.00  0.00    +0.121 A 
ATOM     22  C   UNL     1      -8.387  11.194  -2.545  0.00  0.00    +0.047 A 
ATOM     23  C   UNL     1      -7.099  11.209  -2.046  0.00  0.00    +0.032 A 
ATOM     24  C   UNL     1      -6.239  10.161  -2.318  0.00  0.00    +0.105 A 
ATOM     25  C   UNL     1      -6.664   9.098  -3.094  0.00  0.00    +0.032 A 
ATOM     26  C   UNL     1      -7.954   9.076  -3.590  0.00  0.00    +0.047 A 
BRANCH  21  27
ATOM     27  O   UNL     1     -10.085  10.110  -3.810  0.00  0.00    -0.492 OA
BRANCH  27  29
ATOM     28  C   UNL     1     -11.901   9.137  -5.074  0.00  0.00    +0.048 C 
ATOM     29  C   UNL     1     -10.496   8.930  -4.505  0.00  0.00    +0.225 C 
ENDBRANCH  27  29
ENDBRANCH  21  27
ENDBRANCH  18  24
ENDBRANCH  16  18
ENDBRANCH   1  16
BRANCH   1  30
ATOM     30  C   UNL     1      -5.863   8.069   1.365  0.00  0.00    +0.067 C 
BRANCH  30  31
ATOM     31  C   UNL     1      -7.143   8.851   1.216  0.00  0.00    -0.020 A 
ATOM     32  C   UNL     1      -7.357  10.115   1.614  0.00  0.00    +0.087 A 
ATOM     33  N   UNL     1      -8.637  10.490   1.310  0.00  0.00    -0.360 N 
ATOM     34  H   UNL     1      -9.024  11.359   1.499  0.00  0.00    +0.165 HD
ATOM     35  C   UNL     1      -9.297   9.447   0.699  0.00  0.00    +0.047 A 
ATOM     36  C   UNL     1      -8.390   8.375   0.614  0.00  0.00    +0.003 A 
ATOM     37  C   UNL     1      -8.789   7.170   0.032  0.00  0.00    +0.010 A 
ATOM     38  C   UNL     1     -10.060   7.038  -0.452  0.00  0.00    +0.001 A 
ATOM     39  C   UNL     1     -10.959   8.092  -0.369  0.00  0.00    +0.002 A 
ATOM     40  C   UNL     1     -10.586   9.290   0.201  0.00  0.00    +0.026 A 
ENDBRANCH  30  31
ENDBRANCH   1  30
TORSDOF 10
