REMARK  Name = ZINC39344680
REMARK  16 active torsions:
REMARK  status: ('A' for Active; 'I' for Inactive)
REMARK    1  A    between atoms: C_1  and  C_2
REMARK    2  A    between atoms: C_2  and  C_3
REMARK    3  A    between atoms: C_2  and  C_4
REMARK    4  A    between atoms: C_4  and  N_5
REMARK    5  A    between atoms: N_5  and  C_6
REMARK    6  A    between atoms: N_12  and  C_28
REMARK    7  A    between atoms: C_13  and  C_24
REMARK    8  A    between atoms: C_15  and  N_17
REMARK    9  A    between atoms: C_18  and  C_20
REMARK   10  A    between atoms: C_20  and  C_21
REMARK   11  A    between atoms: C_21  and  O_22
REMARK   12  A    between atoms: O_22  and  C_23
REMARK   13  A    between atoms: C_24  and  O_26
REMARK   14  A    between atoms: O_26  and  C_27
REMARK   15  A    between atoms: C_28  and  C_29
REMARK   16  A    between atoms: C_29  and  C_30
REMARK                            x       y       z     vdW  Elec       q    Type
REMARK                         _______ _______ _______ _____ _____    ______ ____
ROOT
ATOM      1  C   UNL     1       0.687  -1.106   3.531  0.00  0.00    +0.044 A 
ATOM      2  C   UNL     1      -0.037  -0.560   4.590  0.00  0.00    +0.033 A 
ATOM      3  C   UNL     1       0.427  -0.757   5.876  0.00  0.00    +0.015 A 
ATOM      4  C   UNL     1       1.590  -1.483   6.092  0.00  0.00    +0.105 A 
ATOM      5  N   UNL     1       2.252  -1.987   5.051  0.00  0.00    -0.348 N 
ATOM      6  C   UNL     1       1.838  -1.827   3.812  0.00  0.00    +0.107 A 
ATOM      7  N   UNL     1       1.893  -1.570   7.449  0.00  0.00    -0.301 N 
ATOM      8  C   UNL     1       0.883  -0.863   8.240  0.00  0.00    +0.208 C 
ATOM      9  C   UNL     1      -0.116  -0.305   7.212  0.00  0.00    +0.138 C 
ATOM     10  H   UNL     1       3.064  -2.493   5.212  0.00  0.00    +0.167 HD
ENDROOT
BRANCH   9  11
ATOM     11  N   UNL     1      -1.450  -0.866   7.438  0.00  0.00    -0.306 N 
ATOM     12  C   UNL     1      -2.539  -0.226   6.969  0.00  0.00    +0.216 C 
ATOM     13  O   UNL     1      -2.414   0.815   6.359  0.00  0.00    -0.276 OA
ATOM     14  H   UNL     1      -1.549  -1.699   7.926  0.00  0.00    +0.149 HD
BRANCH  12  15
ATOM     15  C   UNL     1      -3.911  -0.803   7.202  0.00  0.00    +0.124 C 
BRANCH  15  16
ATOM     16  C   UNL     1      -4.963   0.112   6.572  0.00  0.00    +0.168 C 
BRANCH  16  17
ATOM     17  O   UNL     1      -6.264  -0.436   6.792  0.00  0.00    -0.382 OA
ATOM     18  C   UNL     1      -7.325   0.347   6.240  0.00  0.00    +0.194 C 
ENDBRANCH  16  17
ENDBRANCH  15  16
ENDBRANCH  12  15
ENDBRANCH   9  11
BRANCH   1  19
ATOM     19  N   UNL     1       0.257  -0.935   2.210  0.00  0.00    -0.342 N 
ATOM     20  H   UNL     1      -0.549  -0.429   2.024  0.00  0.00    +0.146 HD
BRANCH  19  21
ATOM     21  C   UNL     1       1.026  -1.520   1.108  0.00  0.00    +0.104 C 
BRANCH  21  23
ATOM     22  C   UNL     1       0.390   0.325  -0.454  0.00  0.00    +0.009 C 
ATOM     23  C   UNL     1       0.345  -1.187  -0.222  0.00  0.00    -0.000 C 
ATOM     24  C   UNL     1       1.075  -1.900  -1.361  0.00  0.00    +0.009 C 
ENDBRANCH  21  23
ENDBRANCH  19  21
ENDBRANCH   1  19
BRANCH   8  25
ATOM     25  C   UNL     1       1.520   0.261   9.016  0.00  0.00    +0.330 C 
ATOM     26  O   UNL     1       2.537   0.774   8.613  0.00  0.00    -0.249 OA
BRANCH  25  27
ATOM     27  O   UNL     1       0.957   0.692  10.156  0.00  0.00    -0.467 OA
ATOM     28  C   UNL     1       1.614   1.761  10.840  0.00  0.00    +0.280 C 
ENDBRANCH  25  27
ENDBRANCH   8  25
BRANCH   7  29
ATOM     29  C   UNL     1       3.054  -2.269   8.005  0.00  0.00    +0.112 C 
BRANCH  29  30
ATOM     30  C   UNL     1       2.702  -3.741   8.234  0.00  0.00    +0.056 C 
BRANCH  30  31
ATOM     31  C   UNL     1       3.884  -4.451   8.844  0.00  0.00    -0.021 A 
ATOM     32  C   UNL     1       4.224  -4.512  10.267  0.00  0.00    +0.003 A 
ATOM     33  C   UNL     1       3.644  -3.996  11.427  0.00  0.00    +0.010 A 
ATOM     34  C   UNL     1       4.222  -4.239  12.641  0.00  0.00    +0.001 A 
ATOM     35  C   UNL     1       5.383  -4.995  12.730  0.00  0.00    +0.002 A 
ATOM     36  C   UNL     1       5.972  -5.514  11.598  0.00  0.00    +0.026 A 
ATOM     37  C   UNL     1       5.401  -5.280  10.352  0.00  0.00    +0.047 A 
ATOM     38  N   UNL     1       5.738  -5.650   9.070  0.00  0.00    -0.360 N 
ATOM     39  C   UNL     1       4.820  -5.152   8.185  0.00  0.00    +0.087 A 
ATOM     40  H   UNL     1       6.509  -6.187   8.829  0.00  0.00    +0.165 HD
ENDBRANCH  30  31
ENDBRANCH  29  30
ENDBRANCH   7  29
TORSDOF 12
