REMARK  Name = ZINC59287141
REMARK  12 active torsions:
REMARK  status: ('A' for Active; 'I' for Inactive)
REMARK    1  A    between atoms: C_1  and  C_2
REMARK    2  A    between atoms: C_5  and  C_8
REMARK    3  A    between atoms: C_8  and  C_36
REMARK    4  A    between atoms: N_11  and  C_15
REMARK    5  A    between atoms: C_15  and  C_16
REMARK    6  A    between atoms: N_18  and  C_19
REMARK    7  A    between atoms: C_19  and  C_21
REMARK    8  A    between atoms: C_19  and  C_32
REMARK    9  A    between atoms: C_21  and  N_22
REMARK   10  A    between atoms: C_32  and  C_33
REMARK   11  A    between atoms: C_32  and  C_34
REMARK   12  A    between atoms: C_32  and  C_35
REMARK                            x       y       z     vdW  Elec       q    Type
REMARK                         _______ _______ _______ _____ _____    ______ ____
ROOT
ATOM      1  C   UNL     1       2.990  -7.425   1.805  0.00  0.00    +0.231 C 
ATOM      2  O   UNL     1       2.077  -7.733   1.069  0.00  0.00    -0.274 OA
ATOM      3  N   UNL     1       3.504  -8.333   2.659  0.00  0.00    -0.312 N 
ATOM      4  H   UNL     1       4.234  -8.086   3.247  0.00  0.00    +0.149 HD
ENDROOT
BRANCH   1   5
ATOM      5  C   UNL     1       3.551  -6.027   1.764  0.00  0.00    +0.213 C 
BRANCH   5   9
ATOM      6  C   UNL     1       1.330  -3.879  -0.296  0.00  0.00    +0.135 C 
ATOM      7  C   UNL     1       1.722  -4.516   1.023  0.00  0.00    +0.251 C 
ATOM      8  O   UNL     1       1.157  -4.399   2.089  0.00  0.00    -0.272 OA
ATOM      9  N   UNL     1       2.829  -5.240   0.762  0.00  0.00    -0.215 N 
ATOM     10  C   UNL     1       3.187  -5.149  -0.523  0.00  0.00    +0.310 C 
ATOM     11  O   UNL     1       4.152  -5.715  -0.997  0.00  0.00    -0.252 OA
ATOM     12  N   UNL     1       2.357  -4.363  -1.234  0.00  0.00    -0.281 N 
ATOM     13  C   UNL     1      -0.060  -4.348  -0.731  0.00  0.00    +0.047 C 
ATOM     14  H   UNL     1       2.423  -4.156  -2.179  0.00  0.00    +0.152 HD
BRANCH   6  19
ATOM     15  C   UNL     1       1.490   1.884   0.101  0.00  0.00    +0.044 C 
ATOM     16  C   UNL     1       1.448   0.381  -0.003  0.00  0.00    -0.050 A 
ATOM     17  C   UNL     1       1.794  -0.240  -1.188  0.00  0.00    +0.004 A 
ATOM     18  C   UNL     1       1.755  -1.619  -1.283  0.00  0.00    +0.006 A 
ATOM     19  C   UNL     1       1.372  -2.376  -0.192  0.00  0.00    -0.015 A 
ATOM     20  C   UNL     1       1.028  -1.755   0.994  0.00  0.00    +0.006 A 
ATOM     21  C   UNL     1       1.071  -0.377   1.090  0.00  0.00    +0.004 A 
ENDBRANCH   6  19
ENDBRANCH   5   9
ENDBRANCH   1   5
BRANCH   3  22
ATOM     22  C   UNL     1       2.958  -9.692   2.698  0.00  0.00    +0.062 C 
BRANCH  22  23
ATOM     23  C   UNL     1       2.111  -9.865   3.960  0.00  0.00    -0.021 C 
ATOM     24  C   UNL     1       0.963  -8.855   3.946  0.00  0.00    +0.012 C 
ATOM     25  C   UNL     1       1.542 -11.285   4.001  0.00  0.00    +0.012 C 
ATOM     26  C   UNL     1       2.983  -9.630   5.195  0.00  0.00    +0.012 C 
ENDBRANCH  22  23
BRANCH  22  27
ATOM     27  C   UNL     1       4.107 -10.702   2.712  0.00  0.00    -0.055 C 
BRANCH  27  28
ATOM     28  N   UNL     1       4.968 -10.481   1.542  0.00  0.00    +0.384 N 
ATOM     29  C   UNL     1       4.225 -10.809   0.315  0.00  0.00    -0.074 C 
ATOM     30  C   UNL     1       5.014 -10.288  -0.887  0.00  0.00    +0.017 C 
ATOM     31  C   UNL     1       6.442 -10.762  -0.803  0.00  0.00    -0.048 A 
ATOM     32  C   UNL     1       7.231 -10.700  -1.942  0.00  0.00    +0.004 A 
ATOM     33  C   UNL     1       8.545 -11.123  -1.903  0.00  0.00    +0.000 A 
ATOM     34  C   UNL     1       9.076 -11.610  -0.723  0.00  0.00    +0.000 A 
ATOM     35  C   UNL     1       8.291 -11.673   0.410  0.00  0.00    +0.002 A 
ATOM     36  C   UNL     1       6.970 -11.251   0.373  0.00  0.00    -0.061 A 
ATOM     37  C   UNL     1       6.148 -11.346   1.631  0.00  0.00    -0.043 C 
ATOM     38  H   UNL     1       5.258  -9.515   1.514  0.00  0.00    -0.081 HD
ENDBRANCH  27  28
ENDBRANCH  22  27
ENDBRANCH   3  22
TORSDOF 7
