REMARK  Name = ZINC00106562
REMARK  2 active torsions:
REMARK  status: ('A' for Active; 'I' for Inactive)
REMARK    1  A    between atoms: C_8  and  C_18
REMARK    2  A    between atoms: C_21  and  N_24
REMARK                            x       y       z     vdW  Elec       q    Type
REMARK                         _______ _______ _______ _____ _____    ______ ____
ROOT
ATOM      1  C   UNL     1      -2.412   1.458   0.081  0.00  0.00    +0.002 A 
ATOM      2  C   UNL     1      -2.420   0.074   0.092  0.00  0.00    +0.002 A 
ATOM      3  C   UNL     1      -1.230  -0.631   0.030  0.00  0.00    +0.025 A 
ATOM      4  C   UNL     1      -0.035   0.062  -0.042  0.00  0.00    +0.052 A 
ATOM      5  C   UNL     1      -0.021   1.448  -0.016  0.00  0.00    +0.049 A 
ATOM      6  C   UNL     1      -1.215   2.151   0.027  0.00  0.00    +0.025 A 
ATOM      7  N   UNL     1       1.207   2.105  -0.004  0.00  0.00    -0.331 N 
ATOM      8  C   UNL     1       2.109   1.977   1.120  0.00  0.00    +0.136 C 
ATOM      9  C   UNL     1       2.644   0.581   1.336  0.00  0.00    +0.036 C 
ATOM     10  C   UNL     1       2.195  -0.535   0.738  0.00  0.00    +0.017 C 
ATOM     11  N   UNL     1       1.192  -0.580  -0.176  0.00  0.00    -0.316 N 
ATOM     12  C   UNL     1       2.828  -1.882   1.050  0.00  0.00    +0.051 C 
ATOM     13  C   UNL     1       3.312  -1.908   2.499  0.00  0.00    +0.014 C 
ATOM     14  C   UNL     1       4.342  -0.785   2.666  0.00  0.00    +0.080 C 
ATOM     15  C   UNL     1       3.701   0.513   2.274  0.00  0.00    +0.163 C 
ATOM     16  O   UNL     1       4.104   1.542   2.779  0.00  0.00    -0.292 OA
ATOM     17  H   UNL     1       1.461   2.657  -0.761  0.00  0.00    +0.147 HD
ATOM     18  H   UNL     1       1.342  -1.098  -0.982  0.00  0.00    +0.152 HD
ENDROOT
BRANCH   8  19
ATOM     19  C   UNL     1       1.383   2.409   2.368  0.00  0.00    -0.023 A 
ATOM     20  C   UNL     1       0.250   1.730   2.778  0.00  0.00    +0.008 A 
ATOM     21  C   UNL     1      -0.414   2.123   3.925  0.00  0.00    +0.033 A 
ATOM     22  C   UNL     1       0.049   3.201   4.656  0.00  0.00    +0.126 A 
ATOM     23  C   UNL     1       1.178   3.883   4.244  0.00  0.00    +0.033 A 
ATOM     24  C   UNL     1       1.845   3.487   3.099  0.00  0.00    +0.008 A 
BRANCH  22  25
ATOM     25  N   UNL     1      -0.665   3.626   5.881  0.00  0.00    +0.056 N 
ATOM     26  O   UNL     1      -0.258   4.575   6.526  0.00  0.00    -0.126 OA
ATOM     27  O   UNL     1      -1.661   3.025   6.245  0.00  0.00    -0.126 OA
ENDBRANCH  22  25
ENDBRANCH   8  19
TORSDOF 2
