REMARK  Name = ZINC40813662
REMARK  6 active torsions:
REMARK  status: ('A' for Active; 'I' for Inactive)
REMARK    1  A    between atoms: C_1  and  C_2
REMARK    2  A    between atoms: C_6  and  C_7
REMARK    3  A    between atoms: N_9  and  C_10
REMARK    4  A    between atoms: C_10  and  C_11
REMARK    5  A    between atoms: N_22  and  N_23
REMARK    6  A    between atoms: C_24  and  C_26
REMARK                            x       y       z     vdW  Elec       q    Type
REMARK                         _______ _______ _______ _____ _____    ______ ____
ROOT
ATOM      1  C   UNL     1      -0.018   1.503   0.010  0.00  0.00    +0.048 C 
ATOM      2  C   UNL     1       0.002  -0.004   0.002  0.00  0.00    +0.009 A 
ATOM      3  C   UNL     1       0.009  -0.838  -1.123  0.00  0.00    +0.042 A 
ATOM      4  C   UNL     1       0.027  -2.138  -0.673  0.00  0.00    +0.115 A 
ATOM      5  O   UNL     1       0.035  -2.112   0.658  0.00  0.00    -0.454 OA
ATOM      6  C   UNL     1       0.024  -0.830   1.091  0.00  0.00    +0.193 A 
ATOM      7  C   UNL     1       0.034  -3.327  -1.599  0.00  0.00    +0.075 C 
ATOM      8  C   UNL     1      -0.491  -2.903  -2.974  0.00  0.00    +0.014 C 
ATOM      9  C   UNL     1       0.279  -1.685  -3.495  0.00  0.00    +0.058 C 
ATOM     10  C   UNL     1       0.000  -0.512  -2.566  0.00  0.00    +0.070 C 
ATOM     11  N   UNL     1      -0.228   0.686  -3.008  0.00  0.00    -0.184 NA
ENDROOT
BRANCH   6  12
ATOM     12  C   UNL     1       0.031  -0.399   2.493  0.00  0.00    +0.280 C 
ATOM     13  O   UNL     1       0.017   0.786   2.766  0.00  0.00    -0.267 OA
ATOM     14  N   UNL     1       0.054  -1.317   3.480  0.00  0.00    -0.305 N 
ATOM     15  H   UNL     1       0.065  -2.263   3.263  0.00  0.00    +0.149 HD
BRANCH  14  16
ATOM     16  C   UNL     1       0.061  -0.887   4.881  0.00  0.00    +0.141 C 
BRANCH  16  17
ATOM     17  C   UNL     1       0.086  -2.098   5.778  0.00  0.00    -0.012 A 
ATOM     18  C   UNL     1      -1.082  -2.549   6.363  0.00  0.00    +0.006 A 
ATOM     19  C   UNL     1      -1.058  -3.659   7.186  0.00  0.00    +0.000 A 
ATOM     20  C   UNL     1       0.133  -4.319   7.424  0.00  0.00    +0.001 A 
ATOM     21  C   UNL     1       1.302  -3.869   6.840  0.00  0.00    +0.020 A 
ATOM     22  C   UNL     1       1.278  -2.760   6.011  0.00  0.00    +0.046 A 
ATOM     23 CL   UNL     1       2.744  -2.198   5.272  0.00  0.00    -0.083 Cl
ENDBRANCH  16  17
ENDBRANCH  14  16
ENDBRANCH   6  12
BRANCH  11  24
ATOM     24  N   UNL     1      -0.223   0.938  -4.386  0.00  0.00    -0.203 N 
ATOM     25  C   UNL     1      -0.460   2.183  -4.845  0.00  0.00    +0.265 C 
ATOM     26  O   UNL     1      -0.678   3.088  -4.062  0.00  0.00    -0.268 OA
ATOM     27  H   UNL     1      -0.050   0.216  -5.010  0.00  0.00    +0.178 HD
BRANCH  25  28
ATOM     28  C   UNL     1      -0.456   2.448  -6.297  0.00  0.00    +0.057 A 
ATOM     29  C   UNL     1      -0.212   1.409  -7.199  0.00  0.00    +0.016 A 
ATOM     30  C   UNL     1      -0.209   1.663  -8.554  0.00  0.00    +0.021 A 
ATOM     31  C   UNL     1      -0.446   2.945  -9.023  0.00  0.00    +0.042 A 
ATOM     32  C   UNL     1      -0.688   3.979  -8.136  0.00  0.00    +0.040 A 
ATOM     33  C   UNL     1      -0.701   3.737  -6.776  0.00  0.00    +0.054 A 
ATOM     34 CL   UNL     1      -1.012   5.034  -5.664  0.00  0.00    -0.083 Cl
ATOM     35 CL   UNL     1      -0.440   3.255 -10.731  0.00  0.00    -0.083 Cl
ENDBRANCH  25  28
ENDBRANCH  11  24
TORSDOF 5
