REMARK  Name = ZINC33760025
REMARK  10 active torsions:
REMARK  status: ('A' for Active; 'I' for Inactive)
REMARK    1  A    between atoms: C_1  and  C_2
REMARK    2  A    between atoms: C_2  and  O_3
REMARK    3  A    between atoms: O_3  and  C_4
REMARK    4  A    between atoms: C_4  and  C_6
REMARK    5  A    between atoms: C_10  and  N_11
REMARK    6  A    between atoms: C_12  and  C_14
REMARK    7  A    between atoms: C_17  and  C_31
REMARK    8  A    between atoms: C_18  and  C_19
REMARK    9  A    between atoms: C_18  and  C_20
REMARK   10  A    between atoms: N_33  and  C_36
REMARK                            x       y       z     vdW  Elec       q    Type
REMARK                         _______ _______ _______ _____ _____    ______ ____
ROOT
ATOM      1  N   UNL     1      -0.016   1.344   0.009  0.00  0.00    -0.279 N 
ATOM      2  C   UNL     1       0.002  -0.004   0.002  0.00  0.00    +0.230 C 
ATOM      3  O   UNL     1      -1.040  -0.625   0.009  0.00  0.00    -0.274 OA
ATOM      4  H   UNL     1       0.929   1.907   0.008  0.00  0.00    +0.155 HD
ENDROOT
BRANCH   2   5
ATOM      5  C   UNL     1       1.317  -0.740  -0.015  0.00  0.00    +0.097 C 
ATOM      6  C   UNL     1       2.239  -0.477  -1.247  0.00  0.00    +0.024 C 
ATOM      7  C   UNL     1       3.235  -1.661  -1.232  0.00  0.00    +0.015 C 
ATOM      8  C   UNL     1       2.803  -2.505   0.009  0.00  0.00    +0.018 C 
ATOM      9  C   UNL     1       1.244  -2.310  -0.046  0.00  0.00    -0.005 C 
ATOM     10  C   UNL     1       0.525  -2.884   1.176  0.00  0.00    +0.013 C 
ATOM     11  C   UNL     1       0.656  -2.838  -1.357  0.00  0.00    +0.013 C 
ATOM     12  C   UNL     1       3.141  -1.614   1.207  0.00  0.00    +0.071 A 
ATOM     13  C   UNL     1       2.231  -0.519   1.194  0.00  0.00    +0.079 A 
ATOM     14  N   UNL     1       2.277   0.427   2.094  0.00  0.00    -0.247 NA
ATOM     15  C   UNL     1       3.199   0.370   3.064  0.00  0.00    +0.090 A 
ATOM     16  C   UNL     1       3.273   1.367   4.052  0.00  0.00    +0.030 A 
ATOM     17  C   UNL     1       4.222   1.284   5.024  0.00  0.00    +0.002 A 
ATOM     18  C   UNL     1       5.124   0.222   5.057  0.00  0.00    +0.002 A 
ATOM     19  C   UNL     1       5.082  -0.762   4.118  0.00  0.00    +0.030 A 
ATOM     20  C   UNL     1       4.114  -0.712   3.099  0.00  0.00    +0.090 A 
ATOM     21  N   UNL     1       4.056  -1.707   2.135  0.00  0.00    -0.248 NA
ATOM     22  C   UNL     1       3.311  -3.947   0.054  0.00  0.00    +0.018 C 
ENDBRANCH   2   5
BRANCH   1  27
ATOM     23  C   UNL     1      -1.448   3.392   0.027  0.00  0.00    +0.091 A 
ATOM     24  C   UNL     1      -2.826   3.846   0.036  0.00  0.00    -0.025 A 
ATOM     25  C   UNL     1      -3.757   2.866   0.036  0.00  0.00    -0.021 A 
ATOM     26  S   UNL     1      -2.829   1.361   0.015  0.00  0.00    -0.079 S 
ATOM     27  C   UNL     1      -1.226   2.020   0.019  0.00  0.00    +0.086 A 
ATOM     28  C   UNL     1      -5.242   3.051   0.046  0.00  0.00    -0.036 C 
ATOM     29  N   UNL     1      -5.530   4.450   0.417  0.00  0.00    +0.381 N 
ATOM     30  C   UNL     1      -4.723   5.377  -0.388  0.00  0.00    -0.074 C 
ATOM     31  C   UNL     1      -3.255   5.309   0.044  0.00  0.00    +0.018 C 
ATOM     32  C   UNL     1      -6.962   4.746   0.283  0.00  0.00    -0.096 C 
ATOM     33  H   UNL     1      -5.257   4.590   1.473  0.00  0.00    -0.082 HD
BRANCH  23  34
ATOM     34  C   UNL     1      -0.334   4.343   0.027  0.00  0.00    +0.342 C 
ATOM     35  O   UNL     1       0.124   4.743  -1.027  0.00  0.00    -0.245 OA
BRANCH  34  36
ATOM     36  O   UNL     1       0.185   4.774   1.195  0.00  0.00    -0.461 OA
BRANCH  36  38
ATOM     37  C   UNL     1       1.739   6.089   2.532  0.00  0.00    +0.048 C 
ATOM     38  C   UNL     1       1.288   5.716   1.118  0.00  0.00    +0.229 C 
ENDBRANCH  36  38
ENDBRANCH  34  36
ENDBRANCH  23  34
ENDBRANCH   1  27
TORSDOF 5
