REMARK  Name = ZINC12702995
REMARK  10 active torsions:
REMARK  status: ('A' for Active; 'I' for Inactive)
REMARK    1  A    between atoms: C_1  and  C_2
REMARK    2  A    between atoms: C_5  and  C_7
REMARK    3  A    between atoms: N_10  and  C_12
REMARK    4  A    between atoms: C_12  and  C_13
REMARK    5  A    between atoms: N_15  and  C_16
REMARK    6  A    between atoms: N_15  and  C_23
REMARK    7  A    between atoms: C_23  and  C_25
REMARK    8  A    between atoms: C_23  and  C_32
REMARK    9  A    between atoms: C_28  and  O_31
REMARK   10  A    between atoms: N_34  and  C_35
REMARK                            x       y       z     vdW  Elec       q    Type
REMARK                         _______ _______ _______ _____ _____    ______ ____
ROOT
ATOM      1  C   UNL     1      -3.195   1.191   1.380  0.00  0.00    +0.244 C 
ATOM      2  O   UNL     1      -2.793   1.878   2.296  0.00  0.00    -0.273 OA
ATOM      3  N   UNL     1      -2.517   1.157   0.215  0.00  0.00    -0.251 N 
ENDROOT
BRANCH   3   4
ATOM      4  C   UNL     1      -2.981   0.364  -0.842  0.00  0.00    +0.073 A 
ATOM      5  C   UNL     1      -2.599  -0.968  -0.931  0.00  0.00    +0.026 A 
ATOM      6  C   UNL     1      -3.058  -1.748  -1.975  0.00  0.00    +0.002 A 
ATOM      7  C   UNL     1      -3.898  -1.205  -2.930  0.00  0.00    +0.003 A 
ATOM      8  C   UNL     1      -4.281   0.121  -2.845  0.00  0.00    +0.040 A 
ATOM      9  C   UNL     1      -3.829   0.907  -1.800  0.00  0.00    +0.145 A 
ATOM     10  F   UNL     1      -4.208   2.201  -1.714  0.00  0.00    -0.204 F 
ENDBRANCH   3   4
BRANCH   1  11
ATOM     11  C   UNL     1      -4.451   0.375   1.545  0.00  0.00    +0.264 C 
BRANCH  11  15
ATOM     12  C   UNL     1      -5.384   0.363   4.949  0.00  0.00    +0.239 A 
ATOM     13  N   UNL     1      -6.105   1.391   4.475  0.00  0.00    -0.105 NA
ATOM     14  N   UNL     1      -5.842   1.494   3.217  0.00  0.00    -0.045 NA
ATOM     15  N   UNL     1      -4.995   0.582   2.889  0.00  0.00    -0.154 N 
ATOM     16  N   UNL     1      -4.704  -0.123   3.928  0.00  0.00    -0.127 NA
BRANCH  12  21
ATOM     17  C   UNL     1      -4.230  -2.376   8.995  0.00  0.00    +0.086 C 
ATOM     18  C   UNL     1      -4.858  -1.326   8.115  0.00  0.00    +0.103 A 
ATOM     19  C   UNL     1      -5.744  -0.393   8.516  0.00  0.00    +0.045 A 
ATOM     20  C   UNL     1      -6.067   0.382   7.384  0.00  0.00    +0.053 A 
ATOM     21  C   UNL     1      -5.360  -0.132   6.343  0.00  0.00    +0.175 A 
ATOM     22  O   UNL     1      -4.629  -1.165   6.802  0.00  0.00    -0.457 OA
ENDBRANCH  12  21
ENDBRANCH  11  15
ENDBRANCH   1  11
BRANCH   3  23
ATOM     23  C   UNL     1      -1.296   1.950   0.055  0.00  0.00    +0.197 C 
BRANCH  23  24
ATOM     24  C   UNL     1      -1.417   2.816  -1.173  0.00  0.00    -0.018 A 
ATOM     25  C   UNL     1      -1.512   2.232  -2.422  0.00  0.00    +0.009 A 
ATOM     26  C   UNL     1      -1.629   3.023  -3.549  0.00  0.00    +0.046 A 
ATOM     27  C   UNL     1      -1.638   4.405  -3.426  0.00  0.00    +0.117 A 
ATOM     28  C   UNL     1      -1.536   4.988  -2.172  0.00  0.00    +0.046 A 
ATOM     29  C   UNL     1      -1.426   4.192  -1.048  0.00  0.00    +0.009 A 
BRANCH  27  30
ATOM     30  O   UNL     1      -1.746   5.186  -4.533  0.00  0.00    -0.507 OA
ATOM     31  H   UNL     1      -0.897   5.424  -4.931  0.00  0.00    +0.292 HD
ENDBRANCH  27  30
ENDBRANCH  23  24
BRANCH  23  32
ATOM     32  C   UNL     1      -0.114   1.027  -0.095  0.00  0.00    +0.239 C 
ATOM     33  O   UNL     1      -0.276  -0.175  -0.071  0.00  0.00    -0.273 OA
ATOM     34  N   UNL     1       1.122   1.537  -0.262  0.00  0.00    -0.311 N 
ATOM     35  H   UNL     1       1.252   2.498  -0.282  0.00  0.00    +0.149 HD
BRANCH  34  36
ATOM     36  C   UNL     1       2.271   0.640  -0.414  0.00  0.00    +0.073 C 
ATOM     37  C   UNL     1       2.844   0.276   0.971  0.00  0.00    +0.022 C 
ATOM     38  C   UNL     1       4.376   0.225   0.746  0.00  0.00    +0.002 C 
ATOM     39  C   UNL     1       4.616   1.396  -0.239  0.00  0.00    +0.002 C 
ATOM     40  C   UNL     1       3.397   1.352  -1.184  0.00  0.00    +0.022 C 
ENDBRANCH  34  36
ENDBRANCH  23  32
ENDBRANCH   3  23
TORSDOF 9
