REMARK  Name = ZINC08192818
REMARK  9 active torsions:
REMARK  status: ('A' for Active; 'I' for Inactive)
REMARK    1  A    between atoms: C_1  and  C_2
REMARK    2  A    between atoms: C_3  and  C_7
REMARK    3  A    between atoms: C_10  and  S_18
REMARK    4  A    between atoms: N_11  and  C_12
REMARK    5  A    between atoms: S_18  and  C_19
REMARK    6  A    between atoms: C_19  and  C_21
REMARK    7  A    between atoms: C_19  and  C_22
REMARK    8  A    between atoms: N_24  and  C_25
REMARK    9  A    between atoms: C_25  and  C_26
REMARK                            x       y       z     vdW  Elec       q    Type
REMARK                         _______ _______ _______ _____ _____    ______ ____
ROOT
ATOM      1  C   UNL     1      -7.096  -0.194   0.912  0.00  0.00    +0.173 A 
ATOM      2  N   UNL     1      -6.222  -1.072   0.478  0.00  0.00    -0.128 NA
ATOM      3  N   UNL     1      -5.075  -0.513   0.323  0.00  0.00    -0.122 NA
ATOM      4  C   UNL     1      -5.141   0.755   0.658  0.00  0.00    +0.197 A 
ATOM      5  N   UNL     1      -6.432   1.006   1.042  0.00  0.00    -0.270 N 
ENDROOT
BRANCH   1   8
ATOM      6  C   UNL     1      -8.600  -2.928   0.615  0.00  0.00    +0.087 C 
ATOM      7  C   UNL     1      -9.192  -1.623   1.083  0.00  0.00    +0.112 A 
ATOM      8  C   UNL     1      -8.523  -0.445   1.207  0.00  0.00    +0.060 A 
ATOM      9  C   UNL     1      -9.511   0.523   1.699  0.00  0.00    +0.053 A 
ATOM     10  C   UNL     1     -10.666  -0.151   1.814  0.00  0.00    +0.196 A 
ATOM     11  O   UNL     1     -10.466  -1.427   1.450  0.00  0.00    -0.467 OA
ENDBRANCH   1   8
BRANCH   5  12
ATOM     12  C   UNL     1      -6.965   2.228   1.476  0.00  0.00    +0.051 A 
ATOM     13  C   UNL     1      -7.432   2.360   2.777  0.00  0.00    +0.026 A 
ATOM     14  C   UNL     1      -7.952   3.566   3.203  0.00  0.00    +0.002 A 
ATOM     15  C   UNL     1      -8.018   4.638   2.333  0.00  0.00    +0.000 A 
ATOM     16  C   UNL     1      -7.559   4.508   1.035  0.00  0.00    +0.002 A 
ATOM     17  C   UNL     1      -7.032   3.306   0.605  0.00  0.00    +0.026 A 
ENDBRANCH   5  12
BRANCH   4  18
ATOM     18  S   UNL     1      -3.818   1.918   0.614  0.00  0.00    -0.073 S 
BRANCH  18  19
ATOM     19  C   UNL     1      -2.482   0.853   0.018  0.00  0.00    +0.137 C 
ATOM     20  C   UNL     1      -2.799   0.384  -1.403  0.00  0.00    +0.029 C 
BRANCH  19  21
ATOM     21  C   UNL     1      -1.187   1.624   0.017  0.00  0.00    +0.226 C 
ATOM     22  O   UNL     1      -1.204   2.837   0.023  0.00  0.00    -0.275 OA
ATOM     23  N   UNL     1      -0.011   0.966   0.007  0.00  0.00    -0.312 N 
ATOM     24  H   UNL     1       0.002  -0.004   0.002  0.00  0.00    +0.149 HD
BRANCH  23  25
ATOM     25  C   UNL     1       1.248   1.716  -0.001  0.00  0.00    +0.135 C 
BRANCH  25  26
ATOM     26  C   UNL     1       2.424   0.737  -0.017  0.00  0.00    +0.135 C 
ATOM     27  C   UNL     1       3.761   1.502   0.100  0.00  0.00    +0.035 C 
ATOM     28  C   UNL     1       4.723   0.719  -0.821  0.00  0.00    +0.031 C 
ATOM     29  C   UNL     1       3.853  -0.425  -1.386  0.00  0.00    +0.160 C 
ATOM     30  O   UNL     1       2.497   0.060  -1.291  0.00  0.00    -0.375 OA
ENDBRANCH  25  26
ENDBRANCH  23  25
ENDBRANCH  19  21
ENDBRANCH  18  19
ENDBRANCH   4  18
TORSDOF 7
