REMARK  Name = ZINC36591992
REMARK  15 active torsions:
REMARK  status: ('A' for Active; 'I' for Inactive)
REMARK    1  A    between atoms: C_1  and  C_2
REMARK    2  A    between atoms: C_5  and  S_8
REMARK    3  A    between atoms: S_8  and  C_11
REMARK    4  A    between atoms: C_11  and  N_12
REMARK    5  A    between atoms: C_13  and  C_15
REMARK    6  A    between atoms: C_15  and  C_17
REMARK    7  A    between atoms: C_15  and  N_29
REMARK    8  A    between atoms: C_26  and  O_27
REMARK    9  A    between atoms: O_27  and  C_28
REMARK   10  A    between atoms: N_29  and  C_35
REMARK   11  A    between atoms: C_30  and  C_32
REMARK   12  A    between atoms: C_32  and  C_34
REMARK   13  A    between atoms: C_35  and  C_36
REMARK   14  A    between atoms: C_35  and  C_37
REMARK   15  A    between atoms: C_35  and  C_38
REMARK                            x       y       z     vdW  Elec       q    Type
REMARK                         _______ _______ _______ _____ _____    ______ ____
ROOT
ATOM      1  C   UNL     1       1.581  -5.720   7.449  0.00  0.00    +0.197 C 
ENDROOT
BRANCH   1   2
ATOM      2  C   UNL     1       1.542  -6.721   8.575  0.00  0.00    +0.031 A 
ATOM      3  C   UNL     1       0.561  -6.620   9.575  0.00  0.00    -0.009 A 
ATOM      4  C   UNL     1      -0.400  -5.595   9.553  0.00  0.00    +0.009 A 
ATOM      5  C   UNL     1      -1.337  -5.528  10.538  0.00  0.00    +0.001 A 
ATOM      6  C   UNL     1      -1.358  -6.463  11.572  0.00  0.00    +0.001 A 
ATOM      7  C   UNL     1      -0.443  -7.469  11.626  0.00  0.00    +0.008 A 
ATOM      8  C   UNL     1       0.539  -7.571  10.626  0.00  0.00    -0.017 A 
ATOM      9  C   UNL     1       1.500  -8.597  10.650  0.00  0.00    +0.012 A 
ATOM     10  C   UNL     1       2.436  -8.667   9.667  0.00  0.00    +0.046 A 
ATOM     11  C   UNL     1       2.457  -7.733   8.626  0.00  0.00    +0.126 A 
BRANCH  11  12
ATOM     12  O   UNL     1       3.402  -7.833   7.654  0.00  0.00    -0.495 OA
ATOM     13  C   UNL     1       4.399  -8.843   7.820  0.00  0.00    +0.277 C 
ENDBRANCH  11  12
ENDBRANCH   1   2
BRANCH   1  15
ATOM     14  N   UNL     1       2.760  -3.737   8.342  0.00  0.00    -0.294 N 
ATOM     15  C   UNL     1       2.807  -4.854   7.589  0.00  0.00    +0.239 C 
ATOM     16  O   UNL     1       3.834  -5.162   7.023  0.00  0.00    -0.273 OA
ATOM     17  H   UNL     1       1.938  -3.491   8.794  0.00  0.00    +0.150 HD
BRANCH  14  18
ATOM     18  C   UNL     1       3.952  -2.896   8.478  0.00  0.00    +0.278 C 
BRANCH  18  19
ATOM     19  S   UNL     1       3.887  -1.554   7.259  0.00  0.00    +0.013 S 
ATOM     20  O   UNL     1       3.550  -2.072   5.979  0.00  0.00    -0.168 OA
ATOM     21  O   UNL     1       5.004  -0.692   7.420  0.00  0.00    -0.168 OA
BRANCH  19  26
ATOM     22  C   UNL     1      -0.875   1.782   8.870  0.00  0.00    +0.044 C 
ATOM     23  C   UNL     1       0.314   0.949   8.468  0.00  0.00    -0.050 A 
ATOM     24  C   UNL     1       1.565   1.235   8.983  0.00  0.00    +0.005 A 
ATOM     25  C   UNL     1       2.656   0.471   8.614  0.00  0.00    +0.027 A 
ATOM     26  C   UNL     1       2.496  -0.581   7.730  0.00  0.00    +0.090 A 
ATOM     27  C   UNL     1       1.245  -0.868   7.216  0.00  0.00    +0.027 A 
ATOM     28  C   UNL     1       0.153  -0.106   7.589  0.00  0.00    +0.005 A 
ENDBRANCH  19  26
ENDBRANCH  18  19
ENDBRANCH  14  18
ENDBRANCH   1  15
BRANCH   1  29
ATOM     29  N   UNL     1       1.628  -6.428   6.167  0.00  0.00    -0.277 N 
ATOM     30  C   UNL     1       1.711  -7.773   6.143  0.00  0.00    +0.243 C 
ATOM     31  O   UNL     1       1.705  -8.401   7.185  0.00  0.00    -0.270 OA
BRANCH  29  32
ATOM     32  C   UNL     1       1.583  -5.675   4.912  0.00  0.00    +0.030 C 
ATOM     33  C   UNL     1       1.960  -4.216   5.179  0.00  0.00    +0.031 C 
ATOM     34  C   UNL     1       2.574  -6.283   3.917  0.00  0.00    +0.031 C 
ATOM     35  C   UNL     1       0.171  -5.738   4.328  0.00  0.00    +0.031 C 
ENDBRANCH  29  32
BRANCH  30  36
ATOM     36  C   UNL     1       1.809  -8.481   4.858  0.00  0.00    +0.004 C 
ATOM     37  C   UNL     1       2.468  -9.634   4.782  0.00  0.00    +0.017 C 
ATOM     38  C   UNL     1       1.164  -7.900   3.626  0.00  0.00    +0.048 C 
ENDBRANCH  30  36
ENDBRANCH   1  29
TORSDOF 9
