REMARK  Name = ZINC39948650
REMARK  10 active torsions:
REMARK  status: ('A' for Active; 'I' for Inactive)
REMARK    1  A    between atoms: C_1  and  C_2
REMARK    2  A    between atoms: C_4  and  C_12
REMARK    3  A    between atoms: N_13  and  N_14
REMARK    4  A    between atoms: N_14  and  C_15
REMARK    5  A    between atoms: C_15  and  N_17
REMARK    6  A    between atoms: N_17  and  C_18
REMARK    7  A    between atoms: C_22  and  S_24
REMARK    8  A    between atoms: S_24  and  N_27
REMARK    9  A    between atoms: N_27  and  C_28
REMARK   10  A    between atoms: N_27  and  C_29
REMARK                            x       y       z     vdW  Elec       q    Type
REMARK                         _______ _______ _______ _____ _____    ______ ____
ROOT
ATOM      1  C   UNL     1       1.794  -0.802  -5.840  0.00  0.00    +0.154 C 
ATOM      2  S   UNL     1       1.721  -0.193  -7.439  0.00  0.00    -0.017 S 
ENDROOT
BRANCH   1   3
ATOM      3  N   UNL     1       1.032  -0.252  -4.874  0.00  0.00    -0.218 N 
ATOM      4  H   UNL     1       0.442   0.488  -5.084  0.00  0.00    +0.176 HD
BRANCH   3   6
ATOM      5  C   UNL     1       0.351  -0.215  -2.627  0.00  0.00    +0.136 C 
ATOM      6  N   UNL     1       1.092  -0.750  -3.566  0.00  0.00    -0.189 NA
BRANCH   5   9
ATOM      7  C   UNL     1      -0.027   1.241   0.169  0.00  0.00    +0.035 C 
ATOM      8  C   UNL     1      -0.366  -0.223  -0.117  0.00  0.00    +0.109 C 
ATOM      9  C   UNL     1       0.411  -0.713  -1.319  0.00  0.00    +0.003 C 
ATOM     10  C   UNL     1       1.200  -1.764  -0.852  0.00  0.00    +0.005 A 
ATOM     11  C   UNL     1       2.130  -2.614  -1.489  0.00  0.00    +0.010 A 
ATOM     12  C   UNL     1       2.766  -3.574  -0.770  0.00  0.00    +0.001 A 
ATOM     13  C   UNL     1       2.524  -3.747   0.595  0.00  0.00    +0.002 A 
ATOM     14  C   UNL     1       1.645  -2.968   1.271  0.00  0.00    +0.026 A 
ATOM     15  C   UNL     1       0.941  -1.942   0.587  0.00  0.00    +0.043 A 
ATOM     16  N   UNL     1       0.049  -1.067   1.007  0.00  0.00    -0.377 N 
ATOM     17  H   UNL     1      -0.280  -0.993   1.917  0.00  0.00    +0.160 HD
ENDBRANCH   5   9
ENDBRANCH   3   6
ENDBRANCH   1   3
BRANCH   1  18
ATOM     18  N   UNL     1       2.615  -1.831  -5.547  0.00  0.00    -0.296 N 
ATOM     19  H   UNL     1       2.703  -2.135  -4.631  0.00  0.00    +0.154 HD
BRANCH  18  20
ATOM     20  C   UNL     1       3.338  -2.459  -6.566  0.00  0.00    +0.034 A 
ATOM     21  C   UNL     1       4.007  -1.698  -7.516  0.00  0.00    +0.023 A 
ATOM     22  C   UNL     1       4.721  -2.321  -8.520  0.00  0.00    +0.004 A 
ATOM     23  C   UNL     1       4.771  -3.702  -8.580  0.00  0.00    +0.028 A 
ATOM     24  C   UNL     1       4.106  -4.463  -7.636  0.00  0.00    +0.107 A 
ATOM     25  C   UNL     1       3.395  -3.845  -6.626  0.00  0.00    +0.051 A 
BRANCH  24  26
ATOM     26  S   UNL     1       4.172  -6.221  -7.718  0.00  0.00    +0.060 S 
ATOM     27  O   UNL     1       3.020  -6.703  -7.040  0.00  0.00    -0.153 OA
ATOM     28  O   UNL     1       4.456  -6.555  -9.070  0.00  0.00    -0.153 OA
BRANCH  26  29
ATOM     29  N   UNL     1       5.481  -6.704  -6.826  0.00  0.00    -0.183 NA
ATOM     30  C   UNL     1       5.329  -6.993  -5.398  0.00  0.00    +0.131 C 
ATOM     31  C   UNL     1       6.792  -6.842  -7.466  0.00  0.00    +0.131 C 
ENDBRANCH  26  29
ENDBRANCH  24  26
ENDBRANCH  18  20
ENDBRANCH   1  18
TORSDOF 7
