REMARK  Name = ZINC05350739
REMARK  6 active torsions:
REMARK  status: ('A' for Active; 'I' for Inactive)
REMARK    1  A    between atoms: C_1  and  C_2
REMARK    2  A    between atoms: C_5  and  S_8
REMARK    3  A    between atoms: S_8  and  N_11
REMARK    4  A    between atoms: N_11  and  N_12
REMARK    5  A    between atoms: C_13  and  C_14
REMARK    6  A    between atoms: C_17  and  N_19
REMARK                            x       y       z     vdW  Elec       q    Type
REMARK                         _______ _______ _______ _____ _____    ______ ____
ROOT
ATOM      1  N   UNL     1       1.345  -3.093  -1.548  0.00  0.00    -0.137 N 
ATOM      2  H   UNL     1       0.782  -3.837  -1.813  0.00  0.00    +0.197 HD
ENDROOT
BRANCH   1   3
ATOM      3  S   UNL     1       1.203  -2.447  -0.030  0.00  0.00    +0.086 S 
ATOM      4  O   UNL     1       2.504  -2.464   0.541  0.00  0.00    -0.149 OA
ATOM      5  O   UNL     1       0.094  -3.090   0.583  0.00  0.00    -0.149 OA
BRANCH   3  10
ATOM      6  C   UNL     1      -0.315   3.355  -0.692  0.00  0.00    +0.044 C 
ATOM      7  C   UNL     1       0.065   1.906  -0.527  0.00  0.00    -0.050 A 
ATOM      8  C   UNL     1      -0.920   0.940  -0.431  0.00  0.00    +0.005 A 
ATOM      9  C   UNL     1      -0.572  -0.389  -0.280  0.00  0.00    +0.029 A 
ATOM     10  C   UNL     1       0.760  -0.753  -0.224  0.00  0.00    +0.110 A 
ATOM     11  C   UNL     1       1.745   0.212  -0.320  0.00  0.00    +0.029 A 
ATOM     12  C   UNL     1       1.397   1.542  -0.472  0.00  0.00    +0.005 A 
ENDBRANCH   3  10
ENDBRANCH   1   3
BRANCH   1  13
ATOM     13  N   UNL     1       2.204  -2.607  -2.379  0.00  0.00    -0.173 NA
ATOM     14  C   UNL     1       2.225  -3.035  -3.652  0.00  0.00    +0.146 C 
BRANCH  14  15
ATOM     15  C   UNL     1       1.200  -3.821  -4.131  0.00  0.00    +0.034 A 
ATOM     16  C   UNL     1       1.089  -4.524  -5.431  0.00  0.00    +0.019 A 
ATOM     17  C   UNL     1      -0.034  -5.217  -5.619  0.00  0.00    +0.041 A 
ATOM     18  C   UNL     1      -1.012  -5.241  -4.612  0.00  0.00    +0.164 A 
ATOM     19  S   UNL     1      -0.340  -4.265  -3.346  0.00  0.00    -0.064 S 
BRANCH  18  20
ATOM     20  N   UNL     1      -2.314  -5.943  -4.625  0.00  0.00    +0.063 N 
ATOM     21  O   UNL     1      -2.669  -6.654  -5.676  0.00  0.00    -0.126 OA
ATOM     22  O   UNL     1      -3.119  -5.858  -3.585  0.00  0.00    -0.126 OA
ENDBRANCH  18  20
ENDBRANCH  14  15
ENDBRANCH   1  13
TORSDOF 5
