REMARK  Name = ZINC35746387
REMARK  13 active torsions:
REMARK  status: ('A' for Active; 'I' for Inactive)
REMARK    1  A    between atoms: C_1  and  C_2
REMARK    2  A    between atoms: C_5  and  C_9
REMARK    3  A    between atoms: C_6  and  C_8
REMARK    4  A    between atoms: C_18  and  C_20
REMARK    5  A    between atoms: C_20  and  N_21
REMARK    6  A    between atoms: N_21  and  C_22
REMARK    7  A    between atoms: N_21  and  C_28
REMARK    8  A    between atoms: C_22  and  C_23
REMARK    9  A    between atoms: C_28  and  C_29
REMARK   10  A    between atoms: C_29  and  C_31
REMARK   11  A    between atoms: C_29  and  O_34
REMARK   12  A    between atoms: C_31  and  C_32
REMARK   13  A    between atoms: C_31  and  C_33
REMARK                            x       y       z     vdW  Elec       q    Type
REMARK                         _______ _______ _______ _____ _____    ______ ____
ROOT
ATOM      1  C   UNL     1       1.028  -4.543   0.716  0.00  0.00    +0.004 A 
ATOM      2  C   UNL     1       2.150  -5.301   0.678  0.00  0.00    +0.056 A 
ATOM      3  S   UNL     1       1.530  -6.964   0.846  0.00  0.00    -0.076 S 
ATOM      4  C   UNL     1      -0.204  -6.606   0.963  0.00  0.00    +0.116 A 
ATOM      5  C   UNL     1      -0.261  -5.205   0.874  0.00  0.00    +0.080 A 
ATOM      6  C   UNL     1      -1.571  -4.633   0.947  0.00  0.00    +0.260 A 
ATOM      7  O   UNL     1      -1.724  -3.425   0.874  0.00  0.00    -0.267 OA
ATOM      8  N   UNL     1      -2.632  -5.448   1.095  0.00  0.00    -0.312 N 
ATOM      9  H   UNL     1      -3.522  -5.065   1.145  0.00  0.00    +0.170 HD
ATOM     10  C   UNL     1      -2.481  -6.795   1.177  0.00  0.00    +0.094 A 
ATOM     11  N   UNL     1      -1.300  -7.347   1.104  0.00  0.00    -0.229 NA
ENDROOT
BRANCH   1  16
ATOM     12  C   UNL     1       1.344   1.190   0.283  0.00  0.00    +0.044 C 
ATOM     13  C   UNL     1       1.261  -0.310   0.396  0.00  0.00    -0.050 A 
ATOM     14  C   UNL     1       1.635  -1.104  -0.674  0.00  0.00    +0.004 A 
ATOM     15  C   UNL     1       1.561  -2.478  -0.576  0.00  0.00    +0.009 A 
ATOM     16  C   UNL     1       1.109  -3.067   0.604  0.00  0.00    -0.014 A 
ATOM     17  C   UNL     1       0.735  -2.262   1.679  0.00  0.00    -0.042 A 
ATOM     18  C   UNL     1       0.818  -0.889   1.572  0.00  0.00    +0.007 A 
ATOM     19  C   UNL     1       0.245  -2.891   2.959  0.00  0.00    +0.044 C 
ENDBRANCH   1  16
BRANCH  10  20
ATOM     20  C   UNL     1      -3.698  -7.668   1.343  0.00  0.00    -0.003 C 
BRANCH  20  21
ATOM     21  N   UNL     1      -3.292  -9.080   1.337  0.00  0.00    +0.391 N 
ATOM     22  H   UNL     1      -2.733  -9.265   0.518  0.00  0.00    -0.080 HD
BRANCH  21  23
ATOM     23  C   UNL     1      -4.488  -9.933   1.317  0.00  0.00    -0.002 C 
BRANCH  23  24
ATOM     24  C   UNL     1      -5.271  -9.670   0.056  0.00  0.00    +0.089 A 
ATOM     25  C   UNL     1      -5.176 -10.370  -1.089  0.00  0.00    +0.042 A 
ATOM     26  C   UNL     1      -6.083  -9.785  -2.003  0.00  0.00    +0.041 A 
ATOM     27  C   UNL     1      -6.677  -8.763  -1.361  0.00  0.00    +0.195 A 
ATOM     28  O   UNL     1      -6.186  -8.702  -0.113  0.00  0.00    -0.470 OA
ENDBRANCH  23  24
ENDBRANCH  21  23
BRANCH  21  29
ATOM     29  C   UNL     1      -2.505  -9.368   2.543  0.00  0.00    -0.046 C 
BRANCH  29  30
ATOM     30  C   UNL     1      -1.928 -10.782   2.449  0.00  0.00    +0.101 C 
BRANCH  30  31
ATOM     31  C   UNL     1      -0.933 -11.004   3.591  0.00  0.00    +0.010 C 
ATOM     32  C   UNL     1      -1.674 -10.957   4.929  0.00  0.00    +0.010 C 
ATOM     33  C   UNL     1      -0.265 -12.370   3.426  0.00  0.00    +0.010 C 
ENDBRANCH  30  31
BRANCH  30  34
ATOM     34  O   UNL     1      -2.988 -11.736   2.549  0.00  0.00    -0.393 OA
ATOM     35  H   UNL     1      -3.486 -11.686   3.376  0.00  0.00    +0.210 HD
ENDBRANCH  30  34
ENDBRANCH  29  30
ENDBRANCH  21  29
ENDBRANCH  20  21
ENDBRANCH  10  20
TORSDOF 9
