REMARK  Name = ZINC09408900
REMARK  5 active torsions:
REMARK  status: ('A' for Active; 'I' for Inactive)
REMARK    1  A    between atoms: C_4  and  O_32
REMARK    2  A    between atoms: C_5  and  C_7
REMARK    3  A    between atoms: N_15  and  C_25
REMARK    4  A    between atoms: C_16  and  C_18
REMARK    5  A    between atoms: C_25  and  C_26
REMARK                            x       y       z     vdW  Elec       q    Type
REMARK                         _______ _______ _______ _____ _____    ______ ____
ROOT
ATOM      1  C   UNL     1       0.302   4.769  -0.390  0.00  0.00    +0.102 A 
ATOM      2  C   UNL     1       1.155   5.834  -0.081  0.00  0.00    +0.035 A 
ATOM      3  C   UNL     1       0.363   6.966  -0.091  0.00  0.00    +0.126 A 
ATOM      4  N   UNL     1      -0.901   6.543  -0.388  0.00  0.00    -0.272 N 
ATOM      5  H   UNL     1      -1.703   7.136  -0.464  0.00  0.00    +0.189 HD
ATOM      6  N   UNL     1      -0.907   5.268  -0.556  0.00  0.00    -0.173 NA
ATOM      7  C   UNL     1       1.204   8.127   0.223  0.00  0.00    +0.266 C 
ATOM      8  O   UNL     1       0.806   9.274   0.296  0.00  0.00    -0.268 OA
ATOM      9  N   UNL     1       2.476   7.741   0.431  0.00  0.00    -0.283 N 
ATOM     10  C   UNL     1       2.551   6.285   0.253  0.00  0.00    +0.141 C 
ENDROOT
BRANCH  10  11
ATOM     11  C   UNL     1       3.016   5.630   1.527  0.00  0.00    -0.021 A 
ATOM     12  C   UNL     1       2.476   6.016   2.740  0.00  0.00    +0.006 A 
ATOM     13  C   UNL     1       2.903   5.415   3.909  0.00  0.00    +0.001 A 
ATOM     14  C   UNL     1       3.870   4.428   3.867  0.00  0.00    +0.015 A 
ATOM     15  C   UNL     1       4.410   4.041   2.654  0.00  0.00    +0.018 A 
ATOM     16  C   UNL     1       3.979   4.639   1.483  0.00  0.00    +0.021 A 
ATOM     17 BR   UNL     1       5.733   2.691   2.595  0.00  0.00    -0.050 Br
ENDBRANCH  10  11
BRANCH   1  22
ATOM     18  C   UNL     1       2.378   1.638  -0.536  0.00  0.00    +0.001 A 
ATOM     19  C   UNL     1       1.404   0.672  -0.717  0.00  0.00    +0.004 A 
ATOM     20  C   UNL     1       0.072   1.031  -0.798  0.00  0.00    +0.046 A 
ATOM     21  C   UNL     1      -0.296   2.362  -0.688  0.00  0.00    +0.126 A 
ATOM     22  C   UNL     1       0.686   3.340  -0.504  0.00  0.00    +0.044 A 
ATOM     23  C   UNL     1       2.026   2.968  -0.429  0.00  0.00    +0.014 A 
BRANCH  21  24
ATOM     24  O   UNL     1      -1.605   2.716  -0.762  0.00  0.00    -0.506 OA
ATOM     25  H   UNL     1      -1.910   2.909  -1.660  0.00  0.00    +0.292 HD
ENDBRANCH  21  24
ENDBRANCH   1  22
BRANCH   9  26
ATOM     26  C   UNL     1       3.596   8.623   0.767  0.00  0.00    +0.140 C 
BRANCH  26  27
ATOM     27  C   UNL     1       4.262   9.116  -0.519  0.00  0.00    +0.136 C 
ATOM     28  C   UNL     1       5.473  10.023  -0.184  0.00  0.00    +0.035 C 
ATOM     29  C   UNL     1       6.327   9.860  -1.472  0.00  0.00    +0.031 C 
ATOM     30  C   UNL     1       6.043   8.396  -1.873  0.00  0.00    +0.160 C 
ATOM     31  O   UNL     1       4.812   8.009  -1.252  0.00  0.00    -0.375 OA
ENDBRANCH  26  27
ENDBRANCH   9  26
TORSDOF 5
