REMARK  Name = ZINC06952229
REMARK  8 active torsions:
REMARK  status: ('A' for Active; 'I' for Inactive)
REMARK    1  A    between atoms: C_1  and  C_2
REMARK    2  A    between atoms: C_2  and  C_3
REMARK    3  A    between atoms: C_2  and  C_4
REMARK    4  A    between atoms: C_4  and  C_5
REMARK    5  A    between atoms: C_5  and  C_7
REMARK    6  A    between atoms: C_5  and  N_24
REMARK    7  A    between atoms: N_9  and  N_10
REMARK    8  A    between atoms: C_14  and  N_21
REMARK                            x       y       z     vdW  Elec       q    Type
REMARK                         _______ _______ _______ _____ _____    ______ ____
ROOT
ATOM      1  N   UNL     1       0.438  -2.902   5.172  0.00  0.00    -0.175 NA
ATOM      2  C   UNL     1       0.241  -4.184   5.361  0.00  0.00    +0.153 C 
ATOM      3  C   UNL     1       0.576  -4.980   6.565  0.00  0.00    +0.030 A 
ATOM      4  C   UNL     1       1.159  -4.660   7.786  0.00  0.00    +0.044 A 
ATOM      5  C   UNL     1       1.345  -5.646   8.735  0.00  0.00    +0.127 A 
ATOM      6  C   UNL     1       0.954  -6.947   8.469  0.00  0.00    +0.034 A 
ATOM      7  C   UNL     1       0.375  -7.275   7.260  0.00  0.00    +0.026 A 
ATOM      8  C   UNL     1       0.178  -6.295   6.292  0.00  0.00    +0.043 A 
ATOM      9  N   UNL     1      -0.371  -6.355   5.016  0.00  0.00    -0.280 N 
ATOM     10  C   UNL     1      -0.368  -5.149   4.423  0.00  0.00    +0.269 C 
ATOM     11  O   UNL     1      -0.789  -4.897   3.310  0.00  0.00    -0.268 OA
ATOM     12  H   UNL     1      -0.717  -7.163   4.607  0.00  0.00    +0.155 HD
ENDROOT
BRANCH   1  15
ATOM     13  C   UNL     1       0.254  -0.986   3.770  0.00  0.00    +0.218 C 
ATOM     14  O   UNL     1       0.770  -0.317   4.640  0.00  0.00    -0.276 OA
ATOM     15  N   UNL     1       0.052  -2.304   3.965  0.00  0.00    -0.208 N 
ATOM     16  H   UNL     1      -0.360  -2.840   3.269  0.00  0.00    +0.177 HD
BRANCH  13  17
ATOM     17  C   UNL     1      -0.161  -0.344   2.472  0.00  0.00    +0.015 C 
BRANCH  17  18
ATOM     18  N   UNL     1      -0.290   1.107   2.663  0.00  0.00    +0.386 N 
ATOM     19  H   UNL     1      -0.664   1.525   1.824  0.00  0.00    -0.089 HD
ATOM     20  H   UNL     1      -0.913   1.290   3.435  0.00  0.00    -0.089 HD
ATOM     21  H   UNL     1       0.616   1.503   2.861  0.00  0.00    -0.089 HD
ENDBRANCH  17  18
BRANCH  17  22
ATOM     22  C   UNL     1       0.897  -0.625   1.403  0.00  0.00    -0.004 C 
BRANCH  22  24
ATOM     23  C   UNL     1       1.528  -0.239  -0.984  0.00  0.00    +0.007 C 
ATOM     24  C   UNL     1       0.414  -0.089   0.054  0.00  0.00    -0.018 C 
ATOM     25  C   UNL     1      -0.815  -0.880  -0.399  0.00  0.00    +0.007 C 
ENDBRANCH  22  24
ENDBRANCH  17  22
ENDBRANCH  13  17
ENDBRANCH   1  15
BRANCH   5  26
ATOM     26  N   UNL     1       1.965  -5.311  10.037  0.00  0.00    +0.056 N 
ATOM     27  O   UNL     1       2.307  -4.175  10.269  0.00  0.00    -0.126 OA
ATOM     28  O   UNL     1       2.129  -6.174  10.868  0.00  0.00    -0.126 OA
ENDBRANCH   5  26
TORSDOF 6
