REMARK  Name = ZINC09861369
REMARK  7 active torsions:
REMARK  status: ('A' for Active; 'I' for Inactive)
REMARK    1  A    between atoms: C_1  and  C_2
REMARK    2  A    between atoms: C_2  and  C_35
REMARK    3  A    between atoms: C_6  and  C_24
REMARK    4  A    between atoms: C_12  and  C_16
REMARK    5  A    between atoms: C_16  and  C_18
REMARK    6  A    between atoms: C_28  and  O_30
REMARK    7  A    between atoms: O_30  and  C_31
REMARK                            x       y       z     vdW  Elec       q    Type
REMARK                         _______ _______ _______ _____ _____    ______ ____
ROOT
ATOM      1  C   UNL     1      -2.370   3.645  -0.822  0.00  0.00    +0.011 C 
ATOM      2  C   UNL     1      -3.115   2.518  -0.102  0.00  0.00    -0.023 C 
ATOM      3  C   UNL     1      -2.230   1.275  -0.032  0.00  0.00    +0.058 C 
ATOM      4  C   UNL     1      -0.952   1.589   0.727  0.00  0.00    +0.017 C 
ATOM      5  C   UNL     1      -0.949   2.491   1.728  0.00  0.00    +0.036 C 
ATOM      6  C   UNL     1       0.246   2.886   2.562  0.00  0.00    +0.136 C 
ATOM      7  N   UNL     1       1.401   2.030   2.405  0.00  0.00    -0.331 N 
ATOM      8  C   UNL     1       2.072   1.950   1.194  0.00  0.00    +0.049 A 
ATOM      9  C   UNL     1       3.363   2.446   1.050  0.00  0.00    +0.025 A 
ATOM     10  C   UNL     1       3.955   2.454  -0.195  0.00  0.00    +0.013 A 
ATOM     11  C   UNL     1       3.262   1.966  -1.308  0.00  0.00    +0.024 A 
ATOM     12  C   UNL     1       1.970   1.447  -1.156  0.00  0.00    +0.036 A 
ATOM     13  C   UNL     1       1.395   1.427   0.098  0.00  0.00    +0.053 A 
ATOM     14  N   UNL     1       0.137   0.884   0.328  0.00  0.00    -0.316 N 
ATOM     15  C   UNL     1      -2.141   3.171   2.075  0.00  0.00    +0.163 C 
ATOM     16  O   UNL     1      -2.115   3.968   2.992  0.00  0.00    -0.292 OA
ATOM     17  C   UNL     1      -3.437   2.944   1.335  0.00  0.00    +0.086 C 
ATOM     18  C   UNL     1      -4.410   2.192  -0.849  0.00  0.00    +0.011 C 
ATOM     19  H   UNL     1       1.712   1.504   3.158  0.00  0.00    +0.147 HD
ATOM     20  H   UNL     1       0.027  -0.070   0.189  0.00  0.00    +0.152 HD
ENDROOT
BRANCH   6  21
ATOM     21  C   UNL     1       0.639   4.292   2.189  0.00  0.00    -0.019 A 
ATOM     22  C   UNL     1       0.526   5.311   3.117  0.00  0.00    +0.006 A 
ATOM     23  C   UNL     1       0.892   6.601   2.779  0.00  0.00    +0.004 A 
ATOM     24  C   UNL     1       1.361   6.877   1.509  0.00  0.00    +0.045 A 
ATOM     25  C   UNL     1       1.471   5.858   0.575  0.00  0.00    +0.120 A 
ATOM     26  C   UNL     1       1.108   4.563   0.918  0.00  0.00    +0.051 A 
BRANCH  25  27
ATOM     27  O   UNL     1       1.932   6.127  -0.675  0.00  0.00    -0.495 OA
ATOM     28  C   UNL     1       2.286   7.482  -0.958  0.00  0.00    +0.277 C 
ENDBRANCH  25  27
ENDBRANCH   6  21
BRANCH  11  29
ATOM     29  C   UNL     1       3.892   1.998  -2.640  0.00  0.00    +0.193 C 
ATOM     30  O   UNL     1       3.698   1.091  -3.426  0.00  0.00    -0.287 OA
BRANCH  29  31
ATOM     31  C   UNL     1       4.758   3.134  -3.021  0.00  0.00    +0.022 A 
ATOM     32  C   UNL     1       4.854   4.252  -2.191  0.00  0.00    +0.012 A 
ATOM     33  C   UNL     1       5.669   5.306  -2.550  0.00  0.00    +0.001 A 
ATOM     34  C   UNL     1       6.381   5.261  -3.735  0.00  0.00    +0.000 A 
ATOM     35  C   UNL     1       6.286   4.158  -4.566  0.00  0.00    +0.001 A 
ATOM     36  C   UNL     1       5.480   3.095  -4.216  0.00  0.00    +0.012 A 
ENDBRANCH  29  31
ENDBRANCH  11  29
TORSDOF 4
