REMARK  Name = ZINC33762738
REMARK  6 active torsions:
REMARK  status: ('A' for Active; 'I' for Inactive)
REMARK    1  A    between atoms: C_2  and  C_12
REMARK    2  A    between atoms: C_4  and  C_6
REMARK    3  A    between atoms: N_14  and  C_15
REMARK    4  A    between atoms: C_15  and  C_17
REMARK    5  A    between atoms: C_15  and  C_21
REMARK    6  A    between atoms: C_17  and  C_18
REMARK                            x       y       z     vdW  Elec       q    Type
REMARK                         _______ _______ _______ _____ _____    ______ ____
ROOT
ATOM      1  C   UNL     1      -1.247  -0.785   0.010  0.00  0.00    +0.264 C 
ATOM      2  O   UNL     1      -1.204  -2.000   0.003  0.00  0.00    -0.268 OA
ATOM      3  N   UNL     1      -2.437  -0.152   0.025  0.00  0.00    -0.298 N 
ATOM      4  H   UNL     1      -2.475   0.947   0.032  0.00  0.00    +0.150 HD
ENDROOT
BRANCH   1   6
ATOM      5  C   UNL     1       1.227  -0.622  -0.013  0.00  0.00    +0.079 A 
ATOM      6  C   UNL     1       0.002  -0.004   0.002  0.00  0.00    +0.133 A 
ATOM      7  N   UNL     1      -0.016   1.330   0.009  0.00  0.00    -0.241 NA
ATOM      8  C   UNL     1       1.108   1.998   0.002  0.00  0.00    +0.065 A 
ATOM      9  S   UNL     1       2.301   0.740  -0.016  0.00  0.00    -0.081 S 
BRANCH   8  10
ATOM     10  C   UNL     1       1.315   3.491   0.008  0.00  0.00    -0.015 C 
ATOM     11  C   UNL     1       1.746   3.980  -1.391  0.00  0.00    -0.011 C 
ATOM     12  C   UNL     1       2.776   5.098  -1.125  0.00  0.00    -0.020 C 
ATOM     13  C   UNL     1       2.879   5.190   0.412  0.00  0.00    -0.082 C 
ATOM     14  N   UNL     1       2.448   3.854   0.897  0.00  0.00    +0.385 N 
ATOM     15  H   UNL     1       2.099   3.886   1.940  0.00  0.00    -0.085 HD
ATOM     16  H   UNL     1       3.245   3.102   0.800  0.00  0.00    -0.085 HD
ENDBRANCH   8  10
ENDBRANCH   1   6
BRANCH   3  17
ATOM     17  C   UNL     1      -3.679  -0.929   0.034  0.00  0.00    +0.168 C 
BRANCH  17  18
ATOM     18  C   UNL     1      -4.053  -1.292  -1.380  0.00  0.00    +0.231 C 
ATOM     19  O   UNL     1      -3.352  -0.938  -2.304  0.00  0.00    -0.274 OA
ATOM     20  N   UNL     1      -5.168  -2.011  -1.618  0.00  0.00    -0.328 N 
ATOM     21  H   UNL     1      -5.441  -2.277  -2.650  0.00  0.00    +0.145 HD
ATOM     22  H   UNL     1      -5.804  -2.333  -0.781  0.00  0.00    +0.145 HD
ENDBRANCH  17  18
BRANCH  17  23
ATOM     23  C   UNL     1      -4.798  -0.094   0.659  0.00  0.00    +0.127 C 
BRANCH  23  24
ATOM     24  C   UNL     1      -4.481   0.166   2.109  0.00  0.00    +0.213 C 
ATOM     25  O   UNL     1      -3.460  -0.273   2.595  0.00  0.00    -0.276 OA
ATOM     26  N   UNL     1      -5.332   0.887   2.866  0.00  0.00    -0.329 N 
ATOM     27  H   UNL     1      -5.100   1.077   3.925  0.00  0.00    +0.145 HD
ATOM     28  H   UNL     1      -6.258   1.285   2.426  0.00  0.00    +0.145 HD
ENDBRANCH  23  24
ENDBRANCH  17  23
ENDBRANCH   3  17
TORSDOF 6
