REMARK  Name = ZINC09427460
REMARK  8 active torsions:
REMARK  status: ('A' for Active; 'I' for Inactive)
REMARK    1  A    between atoms: C_1  and  C_2
REMARK    2  A    between atoms: C_10  and  C_12
REMARK    3  A    between atoms: C_12  and  N_13
REMARK    4  A    between atoms: N_13  and  C_14
REMARK    5  A    between atoms: C_19  and  O_20
REMARK    6  A    between atoms: O_20  and  C_21
REMARK    7  A    between atoms: C_22  and  C_24
REMARK    8  A    between atoms: C_28  and  N_30
REMARK                            x       y       z     vdW  Elec       q    Type
REMARK                         _______ _______ _______ _____ _____    ______ ____
ROOT
ATOM      1  N   UNL     1       5.196   4.876  -1.253  0.00  0.00    -0.260 N 
ATOM      2  C   UNL     1       4.715   6.106  -1.519  0.00  0.00    +0.251 C 
ATOM      3  O   UNL     1       3.868   6.597  -0.799  0.00  0.00    -0.270 OA
ENDROOT
BRANCH   1   4
ATOM      4  C   UNL     1       6.134   4.290  -2.112  0.00  0.00    +0.079 A 
ATOM      5  C   UNL     1       5.723   3.381  -3.076  0.00  0.00    +0.027 A 
ATOM      6  C   UNL     1       6.651   2.808  -3.925  0.00  0.00    +0.002 A 
ATOM      7  C   UNL     1       7.990   3.130  -3.810  0.00  0.00    +0.004 A 
ATOM      8  C   UNL     1       8.409   4.031  -2.848  0.00  0.00    +0.047 A 
ATOM      9  C   UNL     1       7.484   4.614  -1.996  0.00  0.00    +0.141 A 
BRANCH   9  10
ATOM     10  O   UNL     1       7.894   5.500  -1.049  0.00  0.00    -0.493 OA
ATOM     11  C   UNL     1       9.293   5.784  -0.989  0.00  0.00    +0.277 C 
ENDBRANCH   9  10
ENDBRANCH   1   4
BRANCH   2  12
ATOM     12  C   UNL     1       5.218   6.860  -2.687  0.00  0.00    +0.039 A 
ATOM     13  C   UNL     1       5.380   6.220  -3.917  0.00  0.00    +0.013 A 
ATOM     14  C   UNL     1       5.850   6.929  -5.003  0.00  0.00    +0.003 A 
ATOM     15  C   UNL     1       6.160   8.271  -4.876  0.00  0.00    +0.033 A 
ATOM     16  C   UNL     1       6.001   8.912  -3.660  0.00  0.00    +0.127 A 
ATOM     17  C   UNL     1       5.527   8.216  -2.567  0.00  0.00    +0.045 A 
BRANCH  16  18
ATOM     18  N   UNL     1       6.334  10.348  -3.533  0.00  0.00    +0.056 N 
ATOM     19  O   UNL     1       6.748  10.965  -4.498  0.00  0.00    -0.126 OA
ATOM     20  O   UNL     1       6.194  10.914  -2.463  0.00  0.00    -0.126 OA
ENDBRANCH  16  18
ENDBRANCH   2  12
BRANCH   1  21
ATOM     21  C   UNL     1       4.737   4.151  -0.066  0.00  0.00    +0.154 C 
BRANCH  21  31
ATOM     22  C   UNL     1      -1.217   1.906  -1.578  0.00  0.00    +0.046 C 
ATOM     23  C   UNL     1       0.099   1.197  -1.388  0.00  0.00    -0.026 A 
ATOM     24  C   UNL     1       0.176  -0.154  -1.541  0.00  0.00    +0.005 A 
ATOM     25  C   UNL     1       1.384  -0.827  -1.375  0.00  0.00    +0.001 A 
ATOM     26  C   UNL     1       2.523  -0.151  -1.056  0.00  0.00    +0.010 A 
ATOM     27  C   UNL     1       2.480   1.242  -0.892  0.00  0.00    -0.001 A 
ATOM     28  C   UNL     1       1.253   1.929  -1.059  0.00  0.00    +0.052 A 
ATOM     29  N   UNL     1       1.206   3.257  -0.904  0.00  0.00    -0.322 N 
ATOM     30  C   UNL     1       2.282   3.947  -0.596  0.00  0.00    +0.254 A 
ATOM     31  C   UNL     1       3.525   3.326  -0.418  0.00  0.00    +0.035 A 
ATOM     32  C   UNL     1       3.637   1.976  -0.562  0.00  0.00    +0.020 A 
ATOM     33  O   UNL     1       2.187   5.291  -0.449  0.00  0.00    -0.268 OA
ATOM     34  H   UNL     1       0.254   3.792  -1.034  0.00  0.00    +0.169 HD
ENDBRANCH  21  31
ENDBRANCH   1  21
TORSDOF 6
