REMARK  Name = ZINC11972080
REMARK  9 active torsions:
REMARK  status: ('A' for Active; 'I' for Inactive)
REMARK    1  A    between atoms: C_1  and  C_2
REMARK    2  A    between atoms: C_3  and  C_4
REMARK    3  A    between atoms: C_4  and  N_5
REMARK    4  A    between atoms: C_8  and  C_12
REMARK    5  A    between atoms: C_8  and  C_20
REMARK    6  A    between atoms: C_12  and  C_13
REMARK    7  A    between atoms: C_13  and  C_14
REMARK    8  A    between atoms: C_25  and  C_26
REMARK    9  A    between atoms: C_25  and  N_69
REMARK                            x       y       z     vdW  Elec       q    Type
REMARK                         _______ _______ _______ _____ _____    ______ ____
ROOT
ATOM      1  N   UNL     1      -8.798   5.480  -5.670  0.00  0.00    -0.212 N 
ATOM      2  C   UNL     1      -8.961   4.267  -5.106  0.00  0.00    +0.248 C 
ATOM      3  O   UNL     1     -10.001   3.763  -4.742  0.00  0.00    -0.273 OA
ATOM      4  C   UNL     1      -7.573   3.664  -5.024  0.00  0.00    +0.115 C 
ATOM      5  N   UNL     1      -6.708   4.705  -5.606  0.00  0.00    -0.285 N 
ATOM      6  C   UNL     1      -7.514   5.725  -5.952  0.00  0.00    +0.310 C 
ATOM      7  O   UNL     1      -7.119   6.754  -6.465  0.00  0.00    -0.252 OA
ATOM      8  H   UNL     1      -5.745   4.663  -5.717  0.00  0.00    +0.151 HD
ENDROOT
BRANCH   4   9
ATOM      9  C   UNL     1      -7.188   3.396  -3.568  0.00  0.00    +0.018 C 
ATOM     10  C   UNL     1      -7.327   4.686  -2.756  0.00  0.00    -0.013 C 
ATOM     11  C   UNL     1      -6.884   4.426  -1.314  0.00  0.00    -0.078 C 
ATOM     12  C   UNL     1      -5.339   2.706  -2.038  0.00  0.00    -0.078 C 
ATOM     13  C   UNL     1      -5.736   2.915  -3.501  0.00  0.00    -0.013 C 
ATOM     14  N   UNL     1      -5.472   3.990  -1.317  0.00  0.00    +0.383 N 
ATOM     15  H   UNL     1      -4.905   4.701  -1.795  0.00  0.00    -0.081 HD
BRANCH  14  16
ATOM     16  C   UNL     1      -4.986   3.842   0.070  0.00  0.00    -0.038 C 
BRANCH  16  17
ATOM     17  C   UNL     1      -3.651   3.144   0.054  0.00  0.00    +0.001 A 
ATOM     18  C   UNL     1      -2.507   3.873   0.047  0.00  0.00    +0.017 A 
ATOM     19  C   UNL     1      -1.226   3.165   0.031  0.00  0.00    -0.001 A 
ATOM     20  C   UNL     1      -0.014   3.863   0.023  0.00  0.00    +0.010 A 
ATOM     21  C   UNL     1       1.165   3.172   0.008  0.00  0.00    +0.001 A 
ATOM     22  C   UNL     1       1.170   1.784   0.001  0.00  0.00    +0.002 A 
ATOM     23  C   UNL     1      -0.013   1.076   0.008  0.00  0.00    +0.026 A 
ATOM     24  C   UNL     1      -1.225   1.758   0.017  0.00  0.00    +0.049 A 
ATOM     25  N   UNL     1      -2.423   1.075   0.031  0.00  0.00    -0.322 N 
ATOM     26  H   UNL     1      -2.420   0.105   0.026  0.00  0.00    +0.169 HD
ATOM     27  C   UNL     1      -3.595   1.734   0.046  0.00  0.00    +0.251 A 
ATOM     28  O   UNL     1      -4.634   1.098   0.052  0.00  0.00    -0.268 OA
ENDBRANCH  16  17
ENDBRANCH  14  16
ENDBRANCH   4   9
BRANCH   1  29
ATOM     29  C   UNL     1      -9.893   6.415  -5.941  0.00  0.00    +0.206 C 
BRANCH  29  32
ATOM     30  C   UNL     1     -11.392   5.720  -9.713  0.00  0.00    +0.106 C 
ATOM     31  C   UNL     1     -10.856   5.968  -8.364  0.00  0.00    -0.104 C 
ATOM     32  C   UNL     1     -10.429   6.167  -7.289  0.00  0.00    -0.083 C 
ENDBRANCH  29  32
ENDBRANCH   1  29
BRANCH   4  33
ATOM     33  C   UNL     1      -7.492   2.376  -5.846  0.00  0.00    +0.040 C 
BRANCH  33  34
ATOM     34  C   UNL     1      -7.760   2.694  -7.319  0.00  0.00    +0.038 C 
BRANCH  34  35
ATOM     35  C   UNL     1      -7.680   1.425  -8.129  0.00  0.00    -0.047 A 
ATOM     36  C   UNL     1      -6.475   1.030  -8.678  0.00  0.00    +0.003 A 
ATOM     37  C   UNL     1      -6.401  -0.136  -9.417  0.00  0.00    +0.000 A 
ATOM     38  C   UNL     1      -7.535  -0.901  -9.615  0.00  0.00    +0.000 A 
ATOM     39  C   UNL     1      -8.741  -0.503  -9.071  0.00  0.00    +0.000 A 
ATOM     40  C   UNL     1      -8.814   0.660  -8.327  0.00  0.00    +0.003 A 
ENDBRANCH  34  35
ENDBRANCH  33  34
ENDBRANCH   4  33
TORSDOF 8
