REMARK  Name = ZINC05790089
REMARK  8 active torsions:
REMARK  status: ('A' for Active; 'I' for Inactive)
REMARK    1  A    between atoms: C_1  and  C_2
REMARK    2  A    between atoms: C_2  and  S_3
REMARK    3  A    between atoms: S_3  and  C_4
REMARK    4  A    between atoms: C_10  and  C_12
REMARK    5  A    between atoms: C_14  and  C_18
REMARK    6  A    between atoms: C_20  and  C_26
REMARK    7  A    between atoms: C_22  and  C_25
REMARK    8  A    between atoms: C_23  and  O_24
REMARK                            x       y       z     vdW  Elec       q    Type
REMARK                         _______ _______ _______ _____ _____    ______ ____
ROOT
ATOM      1  C   UNL     1      -1.045  -8.729  -0.035  0.00  0.00    +0.121 A 
ATOM      2  C   UNL     1      -0.096  -9.734  -0.039  0.00  0.00    +0.062 A 
ATOM      3  C   UNL     1      -0.827 -10.936  -0.045  0.00  0.00    +0.097 A 
ATOM      4  N   UNL     1      -2.106 -10.623  -0.044  0.00  0.00    -0.173 NA
ATOM      5  N   UNL     1      -2.263  -9.348  -0.033  0.00  0.00    -0.272 N 
ATOM      6  H   UNL     1      -3.120  -8.893  -0.027  0.00  0.00    +0.189 HD
ENDROOT
BRANCH   1  13
ATOM      7  C   UNL     1      -1.508  -2.383   0.004  0.00  0.00    +0.160 A 
ATOM      8  N   UNL     1      -0.406  -3.120  -0.005  0.00  0.00    -0.133 NA
ATOM      9  N   UNL     1      -0.447  -4.380  -0.012  0.00  0.00    -0.125 NA
ATOM     10  C   UNL     1      -1.591  -5.045  -0.011  0.00  0.00    +0.189 A 
ATOM     11  S   UNL     1      -2.746  -3.677   0.009  0.00  0.00    -0.024 S 
ATOM     12  N   UNL     1      -1.829  -6.416  -0.018  0.00  0.00    -0.258 N 
ATOM     13  C   UNL     1      -0.794  -7.279  -0.027  0.00  0.00    +0.268 C 
ATOM     14  O   UNL     1       0.348  -6.860  -0.029  0.00  0.00    -0.268 OA
ATOM     15  H   UNL     1      -2.739  -6.751  -0.016  0.00  0.00    +0.157 HD
BRANCH   7  16
ATOM     16  S   UNL     1      -1.700  -0.632   0.015  0.00  0.00    -0.097 S 
BRANCH  16  18
ATOM     17  C   UNL     1      -0.019   1.526   0.010  0.00  0.00    +0.016 C 
ATOM     18  C   UNL     1       0.002  -0.004   0.002  0.00  0.00    +0.073 C 
ENDBRANCH  16  18
ENDBRANCH   7  16
ENDBRANCH   1  13
BRANCH   3  19
ATOM     19  C   UNL     1      -0.259 -12.307  -0.051  0.00  0.00    +0.044 A 
ATOM     20  C   UNL     1       1.121 -12.493  -0.045  0.00  0.00    +0.017 A 
ATOM     21  C   UNL     1       1.644 -13.770  -0.050  0.00  0.00    -0.049 A 
ATOM     22  C   UNL     1       0.801 -14.868  -0.061  0.00  0.00    +0.010 A 
ATOM     23  C   UNL     1      -0.570 -14.694  -0.067  0.00  0.00    -0.008 A 
ATOM     24  C   UNL     1      -1.108 -13.418  -0.056  0.00  0.00    +0.129 A 
ATOM     25  C   UNL     1      -1.481 -15.895  -0.079  0.00  0.00    +0.047 C 
ATOM     26  C   UNL     1       3.137 -13.970  -0.044  0.00  0.00    +0.044 C 
BRANCH  24  27
ATOM     27  O   UNL     1      -2.456 -13.246  -0.056  0.00  0.00    -0.506 OA
ATOM     28  H   UNL     1      -2.845 -13.192  -0.940  0.00  0.00    +0.292 HD
ENDBRANCH  24  27
ENDBRANCH   3  19
TORSDOF 5
