REMARK  Name = ZINC22108827
REMARK  11 active torsions:
REMARK  status: ('A' for Active; 'I' for Inactive)
REMARK    1  A    between atoms: C_4  and  N_7
REMARK    2  A    between atoms: C_8  and  S_12
REMARK    3  A    between atoms: S_12  and  C_13
REMARK    4  A    between atoms: C_13  and  C_14
REMARK    5  A    between atoms: C_14  and  C_15
REMARK    6  A    between atoms: C_15  and  N_16
REMARK    7  A    between atoms: N_16  and  C_17
REMARK    8  A    between atoms: C_17  and  C_18
REMARK    9  A    between atoms: C_27  and  O_28
REMARK   10  A    between atoms: O_28  and  C_29
REMARK   11  A    between atoms: C_29  and  C_30
REMARK                            x       y       z     vdW  Elec       q    Type
REMARK                         _______ _______ _______ _____ _____    ______ ____
ROOT
ATOM      1  C   UNL     1      -1.423   5.995   0.046  0.00  0.00    -0.042 C 
ENDROOT
BRANCH   1   2
ATOM      2  C   UNL     1      -0.112   5.253   0.029  0.00  0.00    -0.015 A 
ATOM      3  C   UNL     1      -0.095   3.849   0.023  0.00  0.00    -0.013 A 
ATOM      4  C   UNL     1      -1.288   3.105   0.030  0.00  0.00    +0.009 A 
ATOM      5  C   UNL     1      -1.235   1.746   0.017  0.00  0.00    +0.001 A 
ATOM      6  C   UNL     1      -0.013   1.076   0.008  0.00  0.00    +0.001 A 
ATOM      7  C   UNL     1       1.163   1.762   0.000  0.00  0.00    +0.008 A 
ATOM      8  C   UNL     1       1.148   3.167   0.008  0.00  0.00    -0.017 A 
ATOM      9  C   UNL     1       2.342   3.909  -0.000  0.00  0.00    +0.012 A 
ATOM     10  C   UNL     1       2.292   5.268   0.006  0.00  0.00    +0.046 A 
ATOM     11  C   UNL     1       1.067   5.942   0.021  0.00  0.00    +0.123 A 
BRANCH  11  12
ATOM     12  O   UNL     1       1.050   7.301   0.028  0.00  0.00    -0.487 OA
BRANCH  12  13
ATOM     13  C   UNL     1       2.315   7.966   0.019  0.00  0.00    +0.264 C 
BRANCH  13  14
ATOM     14  C   UNL     1       2.098   9.457   0.029  0.00  0.00    -0.010 A 
ATOM     15  C   UNL     1       1.993  10.148  -1.164  0.00  0.00    +0.008 A 
ATOM     16  C   UNL     1       1.789  11.515  -1.156  0.00  0.00    +0.020 A 
ATOM     17  C   UNL     1       1.701  12.194   0.046  0.00  0.00    +0.041 A 
ATOM     18  C   UNL     1       1.812  11.503   1.240  0.00  0.00    +0.020 A 
ATOM     19  C   UNL     1       2.011  10.135   1.231  0.00  0.00    +0.008 A 
ATOM     20 CL   UNL     1       1.451  13.911   0.058  0.00  0.00    -0.084 Cl
ENDBRANCH  13  14
ENDBRANCH  12  13
ENDBRANCH  11  12
ENDBRANCH   1   2
BRANCH   1  21
ATOM     21  N   UNL     1      -1.835   6.230   1.436  0.00  0.00    +0.382 N 
ATOM     22  H   UNL     1      -1.057   6.822   1.940  0.00  0.00    -0.085 HD
ATOM     23  H   UNL     1      -1.942   5.258   1.941  0.00  0.00    -0.085 HD
BRANCH  21  24
ATOM     24  C   UNL     1      -3.113   6.953   1.491  0.00  0.00    -0.081 C 
BRANCH  24  25
ATOM     25  C   UNL     1      -3.509   7.178   2.952  0.00  0.00    -0.008 C 
BRANCH  25  26
ATOM     26  C   UNL     1      -4.839   7.931   3.010  0.00  0.00    +0.075 C 
BRANCH  26  27
ATOM     27  S   UNL     1      -5.307   8.198   4.738  0.00  0.00    -0.084 S 
BRANCH  27  29
ATOM     28  N   UNL     1      -7.648   9.517   5.493  0.00  0.00    -0.187 N 
ATOM     29  C   UNL     1      -6.829   9.059   4.513  0.00  0.00    +0.214 A 
ATOM     30  N   UNL     1      -7.387   9.373   3.364  0.00  0.00    -0.101 NA
ATOM     31  N   UNL     1      -8.492   9.998   3.558  0.00  0.00    -0.022 NA
ATOM     32  N   UNL     1      -8.720  10.128   4.819  0.00  0.00    -0.038 NA
BRANCH  28  36
ATOM     33  C   UNL     1      -7.102   9.188   9.613  0.00  0.00    +0.000 A 
ATOM     34  C   UNL     1      -7.699  10.318   9.084  0.00  0.00    +0.002 A 
ATOM     35  C   UNL     1      -7.881  10.430   7.719  0.00  0.00    +0.028 A 
ATOM     36  C   UNL     1      -7.464   9.406   6.878  0.00  0.00    +0.070 A 
ATOM     37  C   UNL     1      -6.870   8.271   7.413  0.00  0.00    +0.028 A 
ATOM     38  C   UNL     1      -6.685   8.168   8.778  0.00  0.00    +0.002 A 
ENDBRANCH  28  36
ENDBRANCH  27  29
ENDBRANCH  26  27
ENDBRANCH  25  26
ENDBRANCH  24  25
ENDBRANCH  21  24
ENDBRANCH   1  21
TORSDOF 11
