REMARK  Name = ZINC48150790
REMARK  6 active torsions:
REMARK  status: ('A' for Active; 'I' for Inactive)
REMARK    1  A    between atoms: C_1  and  C_2
REMARK    2  A    between atoms: C_2  and  C_4
REMARK    3  A    between atoms: C_2  and  N_13
REMARK    4  A    between atoms: N_16  and  C_17
REMARK    5  A    between atoms: C_17  and  C_18
REMARK    6  A    between atoms: C_21  and  N_24
REMARK                            x       y       z     vdW  Elec       q    Type
REMARK                         _______ _______ _______ _____ _____    ______ ____
ROOT
ATOM      1  N   UNL     1       0.691  -0.440  -1.216  0.00  0.00    -0.290 N 
ATOM      2  C   UNL     1       2.033  -0.566  -1.222  0.00  0.00    +0.300 C 
ATOM      3  O   UNL     1       2.674  -0.286  -0.228  0.00  0.00    -0.253 OA
ATOM      4  N   UNL     1       2.663  -1.004  -2.330  0.00  0.00    -0.295 N 
ATOM      5  H   UNL     1       0.179  -0.664  -2.009  0.00  0.00    +0.151 HD
ATOM      6  H   UNL     1       2.151  -1.228  -3.123  0.00  0.00    +0.151 HD
ENDROOT
BRANCH   1   8
ATOM      7  C   UNL     1       0.003   1.566   0.003  0.00  0.00    +0.036 C 
ATOM      8  C   UNL     1       0.005   0.036  -0.012  0.00  0.00    +0.137 C 
BRANCH   8   9
ATOM      9  C   UNL     1      -1.415  -0.468  -0.010  0.00  0.00    +0.126 A 
ATOM     10  C   UNL     1      -2.070  -0.910   1.072  0.00  0.00    +0.055 A 
ATOM     11  C   UNL     1      -3.409  -1.296   0.611  0.00  0.00    +0.020 A 
ATOM     12  C   UNL     1      -4.542  -1.818   1.233  0.00  0.00    +0.011 A 
ATOM     13  C   UNL     1      -5.664  -2.074   0.494  0.00  0.00    +0.001 A 
ATOM     14  C   UNL     1      -5.681  -1.816  -0.869  0.00  0.00    +0.004 A 
ATOM     15  C   UNL     1      -4.570  -1.300  -1.502  0.00  0.00    +0.047 A 
ATOM     16  C   UNL     1      -3.420  -1.032  -0.769  0.00  0.00    +0.135 A 
ATOM     17  O   UNL     1      -2.209  -0.535  -1.092  0.00  0.00    -0.458 OA
ENDBRANCH   8   9
ENDBRANCH   1   8
BRANCH   4  18
ATOM     18  C   UNL     1       4.122  -1.142  -2.336  0.00  0.00    +0.141 C 
BRANCH  18  19
ATOM     19  C   UNL     1       4.573  -1.645  -3.683  0.00  0.00    -0.030 A 
ATOM     20  C   UNL     1       4.669  -3.005  -3.915  0.00  0.00    +0.007 A 
ATOM     21  C   UNL     1       5.082  -3.469  -5.149  0.00  0.00    +0.023 A 
ATOM     22  C   UNL     1       5.401  -2.568  -6.157  0.00  0.00    +0.030 A 
ATOM     23  C   UNL     1       5.303  -1.203  -5.921  0.00  0.00    +0.023 A 
ATOM     24  C   UNL     1       4.884  -0.746  -4.687  0.00  0.00    +0.007 A 
BRANCH  22  25
ATOM     25  N   UNL     1       5.819  -3.035  -7.405  0.00  0.00    -0.320 N 
ATOM     26  C   UNL     1       6.050  -2.112  -8.530  0.00  0.00    +0.124 C 
ATOM     27  C   UNL     1       7.520  -2.216  -8.939  0.00  0.00    +0.123 C 
ATOM     28  N   UNL     1       7.929  -3.609  -9.048  0.00  0.00    -0.313 N 
ATOM     29  C   UNL     1       7.313  -4.628  -8.448  0.00  0.00    +0.230 C 
ATOM     30  O   UNL     1       7.795  -5.737  -8.550  0.00  0.00    -0.274 OA
ATOM     31  C   UNL     1       6.054  -4.466  -7.648  0.00  0.00    +0.200 C 
ATOM     32  H   UNL     1       8.704  -3.810  -9.596  0.00  0.00    +0.149 HD
ENDBRANCH  22  25
ENDBRANCH  18  19
ENDBRANCH   4  18
TORSDOF 5
