REMARK  Name = ZINC57521321
REMARK  10 active torsions:
REMARK  status: ('A' for Active; 'I' for Inactive)
REMARK    1  A    between atoms: C_1  and  C_2
REMARK    2  A    between atoms: C_2  and  C_3
REMARK    3  A    between atoms: C_3  and  C_4
REMARK    4  A    between atoms: C_4  and  N_5
REMARK    5  A    between atoms: N_5  and  C_6
REMARK    6  A    between atoms: C_7  and  C_9
REMARK    7  A    between atoms: C_9  and  S_10
REMARK    8  A    between atoms: S_10  and  C_11
REMARK    9  A    between atoms: C_15  and  C_23
REMARK   10  A    between atoms: N_21  and  C_22
REMARK                            x       y       z     vdW  Elec       q    Type
REMARK                         _______ _______ _______ _____ _____    ______ ____
ROOT
ATOM      1  C   UNL     1       6.000  -3.991   4.721  0.00  0.00    +0.172 A 
ATOM      2  N   UNL     1       5.218  -4.187   5.756  0.00  0.00    -0.222 NA
ATOM      3  C   UNL     1       5.716  -4.633   6.926  0.00  0.00    +0.097 A 
ATOM      4  C   UNL     1       5.144  -4.932   8.182  0.00  0.00    +0.051 A 
ATOM      5  C   UNL     1       6.133  -5.347   9.000  0.00  0.00    +0.016 A 
ATOM      6  N   UNL     1       7.317  -5.328   8.327  0.00  0.00    -0.353 N 
ATOM      7  H   UNL     1       8.179  -5.581   8.693  0.00  0.00    +0.166 HD
ATOM      8  C   UNL     1       7.088  -4.890   7.040  0.00  0.00    +0.131 A 
ATOM      9  C   UNL     1       7.912  -4.673   5.920  0.00  0.00    +0.278 A 
ATOM     10  O   UNL     1       9.111  -4.885   5.978  0.00  0.00    -0.265 OA
ATOM     11  N   UNL     1       7.343  -4.231   4.777  0.00  0.00    -0.289 N 
ATOM     12  C   UNL     1       8.173  -4.002   3.592  0.00  0.00    +0.154 C 
ATOM     13  C   UNL     1       5.956  -5.766  10.437  0.00  0.00    +0.063 C 
ENDROOT
BRANCH   1  14
ATOM     14  S   UNL     1       5.296  -3.407   3.215  0.00  0.00    -0.078 S 
BRANCH  14  15
ATOM     15  C   UNL     1       3.531  -3.232   3.594  0.00  0.00    +0.173 C 
BRANCH  15  18
ATOM     16  N   UNL     1       1.471  -2.526   2.420  0.00  0.00    -0.304 N 
ATOM     17  C   UNL     1       0.733  -2.787   3.658  0.00  0.00    +0.132 C 
ATOM     18  C   UNL     1       2.802  -2.732   2.373  0.00  0.00    +0.226 C 
ATOM     19  O   UNL     1       3.414  -2.516   1.348  0.00  0.00    -0.275 OA
BRANCH  16  20
ATOM     20  C   UNL     1       0.763  -2.041   1.233  0.00  0.00    +0.107 C 
BRANCH  20  21
ATOM     21  C   UNL     1       0.742  -0.511   1.242  0.00  0.00    +0.019 C 
BRANCH  21  23
ATOM     22  C   UNL     1      -0.019   1.526   0.010  0.00  0.00    +0.004 C 
ATOM     23  C   UNL     1       0.002  -0.004   0.002  0.00  0.00    -0.002 C 
ENDBRANCH  21  23
ENDBRANCH  20  21
ENDBRANCH  16  20
ENDBRANCH  15  18
ENDBRANCH  14  15
ENDBRANCH   1  14
TORSDOF 6
