REMARK  Name = ZINC40385836
REMARK  2 active torsions:
REMARK  status: ('A' for Active; 'I' for Inactive)
REMARK    1  A    between atoms: C_6  and  N_7
REMARK    2  A    between atoms: C_16  and  N_18
REMARK                            x       y       z     vdW  Elec       q    Type
REMARK                         _______ _______ _______ _____ _____    ______ ____
ROOT
ATOM      1  N   UNL     1      -1.200  -0.722   0.010  0.00  0.00    -0.293 N 
ATOM      2  C   UNL     1      -2.380  -0.059   0.123  0.00  0.00    +0.207 A 
ATOM      3  N   UNL     1      -3.538  -0.653   0.138  0.00  0.00    -0.217 NA
ATOM      4  C   UNL     1      -3.644  -1.992   0.041  0.00  0.00    +0.173 A 
ATOM      5  C   UNL     1      -2.466  -2.766  -0.080  0.00  0.00    +0.116 A 
ATOM      6  C   UNL     1      -1.178  -2.072  -0.100  0.00  0.00    +0.109 A 
ATOM      7  S   UNL     1       0.295  -2.930  -0.250  0.00  0.00    -0.031 S 
ATOM      8  C   UNL     1      -2.581  -4.158  -0.181  0.00  0.00    +0.286 A 
ATOM      9  N   UNL     1      -3.801  -4.689  -0.159  0.00  0.00    -0.176 NA
ATOM     10  C   UNL     1      -4.875  -3.932  -0.045  0.00  0.00    +0.206 A 
ATOM     11  N   UNL     1      -4.819  -2.619   0.054  0.00  0.00    -0.196 NA
ATOM     12  O   UNL     1      -1.483  -4.941  -0.299  0.00  0.00    -0.265 OA
ENDROOT
BRANCH   1  18
ATOM     13  C   UNL     1       0.534   0.448  -1.198  0.00  0.00    +0.028 A 
ATOM     14  C   UNL     1       1.720   1.156  -1.204  0.00  0.00    +0.023 A 
ATOM     15  C   UNL     1       2.379   1.415  -0.015  0.00  0.00    +0.059 A 
ATOM     16  C   UNL     1       1.850   0.966   1.184  0.00  0.00    +0.061 A 
ATOM     17  C   UNL     1       0.664   0.257   1.195  0.00  0.00    +0.047 A 
ATOM     18  C   UNL     1       0.002  -0.004   0.002  0.00  0.00    +0.050 A 
ATOM     19 CL   UNL     1       2.680   1.292   2.674  0.00  0.00    -0.082 Cl
ATOM     20 CL   UNL     1       3.869   2.304  -0.027  0.00  0.00    -0.082 Cl
ENDBRANCH   1  18
BRANCH  10  21
ATOM     21  N   UNL     1      -6.129  -4.550  -0.027  0.00  0.00    -0.365 NA
ATOM     22  C   UNL     1      -6.309  -5.377  -1.248  0.00  0.00    +0.087 C 
ATOM     23  C   UNL     1      -7.409  -6.387  -0.832  0.00  0.00    +0.019 C 
ATOM     24  C   UNL     1      -7.060  -6.690   0.643  0.00  0.00    +0.019 C 
ATOM     25  C   UNL     1      -6.220  -5.488   1.113  0.00  0.00    +0.087 C 
ATOM     26  H   UNL     1      -6.859  -3.856   0.035  0.00  0.00    +0.129 HD
ENDBRANCH  10  21
TORSDOF 2
