REMARK  Name = ZINC19216498
REMARK  11 active torsions:
REMARK  status: ('A' for Active; 'I' for Inactive)
REMARK    1  A    between atoms: C_1  and  C_2
REMARK    2  A    between atoms: C_5  and  C_7
REMARK    3  A    between atoms: C_7  and  N_8
REMARK    4  A    between atoms: N_8  and  C_9
REMARK    5  A    between atoms: N_8  and  C_17
REMARK    6  A    between atoms: C_9  and  C_10
REMARK    7  A    between atoms: C_11  and  C_16
REMARK    8  A    between atoms: C_19  and  C_25
REMARK    9  A    between atoms: C_19  and  C_26
REMARK   10  A    between atoms: C_21  and  C_23
REMARK   11  A    between atoms: C_21  and  C_24
REMARK                            x       y       z     vdW  Elec       q    Type
REMARK                         _______ _______ _______ _____ _____    ______ ____
ROOT
ATOM      1  N   UNL     1       1.745  -3.569  -1.388  0.00  0.00    -0.287 NA
ENDROOT
BRANCH   1   2
ATOM      2  C   UNL     1       2.295  -4.929  -1.268  0.00  0.00    +0.055 C 
ATOM      3  C   UNL     1       1.151  -5.912  -1.005  0.00  0.00    +0.006 C 
ATOM      4  C   UNL     1       1.708  -7.328  -0.865  0.00  0.00    -0.072 C 
ATOM      5  N   UNL     1       2.755  -7.409   0.143  0.00  0.00    +0.386 N 
ATOM      6  C   UNL     1       3.796  -6.394   0.118  0.00  0.00    -0.072 C 
ATOM      7  C   UNL     1       3.254  -4.982  -0.079  0.00  0.00    +0.006 C 
ATOM      8  C   UNL     1       4.858  -6.698  -0.942  0.00  0.00    -0.010 C 
ATOM      9  C   UNL     1       4.507  -6.425   1.491  0.00  0.00    -0.010 C 
ATOM     10  C   UNL     1       2.174  -7.850  -2.223  0.00  0.00    -0.010 C 
ATOM     11  C   UNL     1       0.543  -8.234  -0.401  0.00  0.00    -0.010 C 
ATOM     12  H   UNL     1       2.314  -7.395   1.066  0.00  0.00    -0.084 HD
ATOM     13  H   UNL     1       3.199  -8.328   0.072  0.00  0.00    -0.084 HD
ENDBRANCH   1   2
BRANCH   1  14
ATOM     14  C   UNL     1       1.234  -3.091  -0.097  0.00  0.00    +0.159 C 
BRANCH  14  19
ATOM     15  C   UNL     1       0.174   1.822  -0.524  0.00  0.00    +0.086 C 
ATOM     16  C   UNL     1       0.004   0.325  -0.489  0.00  0.00    +0.102 A 
ATOM     17  C   UNL     1      -1.149  -0.341  -0.680  0.00  0.00    +0.044 A 
ATOM     18  C   UNL     1      -0.852  -1.718  -0.560  0.00  0.00    +0.046 A 
ATOM     19  C   UNL     1       0.465  -1.811  -0.303  0.00  0.00    +0.119 A 
ATOM     20  O   UNL     1       0.980  -0.571  -0.267  0.00  0.00    -0.464 OA
ENDBRANCH  14  19
ENDBRANCH   1  14
BRANCH   1  21
ATOM     21  C   UNL     1       2.747  -2.643  -1.934  0.00  0.00    +0.140 C 
BRANCH  21  22
ATOM     22  C   UNL     1       2.968  -2.944  -3.393  0.00  0.00    +0.050 A 
ATOM     23  C   UNL     1       2.138  -2.618  -4.403  0.00  0.00    +0.035 A 
ATOM     24  N   UNL     1       2.718  -3.076  -5.556  0.00  0.00    -0.350 N 
ATOM     25  C   UNL     1       3.882  -3.666  -5.210  0.00  0.00    +0.171 A 
ATOM     26  N   UNL     1       4.027  -3.579  -3.916  0.00  0.00    -0.349 N 
ATOM     27  H   UNL     1       2.359  -2.992  -6.453  0.00  0.00    +0.166 HD
ATOM     28  C   UNL     1       0.824  -1.890  -4.286  0.00  0.00    +0.065 C 
ATOM     29  H   UNL     1       4.782  -3.922  -3.411  0.00  0.00    +0.166 HD
ENDBRANCH  21  22
ENDBRANCH   1  21
TORSDOF 5
