REMARK  Name = ZINC06523255
REMARK  4 active torsions:
REMARK  status: ('A' for Active; 'I' for Inactive)
REMARK    1  A    between atoms: C_1  and  C_2
REMARK    2  A    between atoms: C_8  and  C_11
REMARK    3  A    between atoms: N_13  and  C_14
REMARK    4  A    between atoms: C_20  and  C_22
REMARK                            x       y       z     vdW  Elec       q    Type
REMARK                         _______ _______ _______ _____ _____    ______ ____
ROOT
ATOM      1  C   UNL     1       3.183   1.819   1.669  0.00  0.00    +0.266 C 
ATOM      2  O   UNL     1       3.544   2.842   1.122  0.00  0.00    -0.268 OA
ATOM      3  N   UNL     1       2.131   1.130   1.184  0.00  0.00    -0.307 N 
ATOM      4  H   UNL     1       1.843   0.313   1.621  0.00  0.00    +0.149 HD
ENDROOT
BRANCH   1  11
ATOM      5  C   UNL     1       7.586   4.680   3.999  0.00  0.00    +0.008 C 
ATOM      6  C   UNL     1       6.606   3.572   4.390  0.00  0.00    -0.009 C 
ATOM      7  C   UNL     1       7.388   2.354   4.890  0.00  0.00    +0.011 C 
ATOM      8  C   UNL     1       6.421   1.338   5.512  0.00  0.00    +0.078 C 
ATOM      9  C   UNL     1       5.293   1.102   4.541  0.00  0.00    +0.141 A 
ATOM     10  C   UNL     1       5.012   1.923   3.502  0.00  0.00    +0.027 A 
ATOM     11  C   UNL     1       3.901   1.327   2.871  0.00  0.00    +0.171 A 
ATOM     12  N   UNL     1       3.629   0.248   3.572  0.00  0.00    -0.073 NA
ATOM     13  O   UNL     1       4.402   0.114   4.499  0.00  0.00    -0.359 OA
ATOM     14  C   UNL     1       5.766   3.176   3.167  0.00  0.00    +0.044 C 
ENDBRANCH   1  11
BRANCH   3  15
ATOM     15  C   UNL     1       1.423   1.615  -0.003  0.00  0.00    +0.076 C 
ATOM     16  C   UNL     1       2.139   1.122  -1.262  0.00  0.00    +0.022 C 
ATOM     17  C   UNL     1       1.399   1.629  -2.501  0.00  0.00    +0.002 C 
ATOM     18  C   UNL     1      -0.037   1.099  -2.490  0.00  0.00    +0.000 C 
ATOM     19  C   UNL     1      -0.753   1.593  -1.232  0.00  0.00    +0.005 C 
ATOM     20  C   UNL     1      -0.013   1.086   0.008  0.00  0.00    +0.006 C 
ATOM     21  C   UNL     1      -0.729   1.579   1.267  0.00  0.00    +0.009 C 
ENDBRANCH   3  15
TORSDOF 2
