REMARK  Name = ZINC38915297
REMARK  7 active torsions:
REMARK  status: ('A' for Active; 'I' for Inactive)
REMARK    1  A    between atoms: C_1  and  C_2
REMARK    2  A    between atoms: C_5  and  S_8
REMARK    3  A    between atoms: S_8  and  C_9
REMARK    4  A    between atoms: C_9  and  C_10
REMARK    5  A    between atoms: C_12  and  C_24
REMARK    6  A    between atoms: C_14  and  C_22
REMARK    7  A    between atoms: C_15  and  N_21
REMARK                            x       y       z     vdW  Elec       q    Type
REMARK                         _______ _______ _______ _____ _____    ______ ____
ROOT
ATOM      1  C   UNL     1       0.097  -6.482   1.870  0.00  0.00    +0.079 C 
ATOM      2  C   UNL     1       1.146  -7.189   2.215  0.00  0.00    +0.031 C 
ATOM      3  C   UNL     1       2.525  -6.831   2.695  0.00  0.00    +0.098 C 
ATOM      4  C   UNL     1       2.829  -7.801   3.822  0.00  0.00    +0.097 C 
ATOM      5  C   UNL     1       2.025  -8.851   4.089  0.00  0.00    +0.195 C 
ATOM      6  O   UNL     1       0.881  -9.169   3.457  0.00  0.00    -0.448 OA
ATOM      7  C   UNL     1       0.686  -8.646   2.140  0.00  0.00    +0.343 C 
ATOM      8  N   UNL     1      -0.734  -8.500   1.806  0.00  0.00    -0.138 NA
ATOM      9  N   UNL     1      -0.970  -7.294   1.659  0.00  0.00    -0.154 NA
ENDROOT
BRANCH   3  10
ATOM     10  C   UNL     1       3.525  -6.995   1.579  0.00  0.00    -0.035 A 
ATOM     11  C   UNL     1       3.696  -8.230   0.981  0.00  0.00    +0.006 A 
ATOM     12  C   UNL     1       4.612  -8.381  -0.042  0.00  0.00    +0.020 A 
ATOM     13  C   UNL     1       5.358  -7.296  -0.469  0.00  0.00    +0.041 A 
ATOM     14  C   UNL     1       5.186  -6.061   0.129  0.00  0.00    +0.020 A 
ATOM     15  C   UNL     1       4.265  -5.910   1.149  0.00  0.00    +0.006 A 
ATOM     16 CL   UNL     1       6.509  -7.486  -1.754  0.00  0.00    -0.084 Cl
ENDBRANCH   3  10
BRANCH   5  17
ATOM     17  N   UNL     1       2.414  -9.679   5.112  0.00  0.00    -0.329 N 
ATOM     18  H   UNL     1       3.231  -9.495   5.601  0.00  0.00    +0.145 HD
ATOM     19  H   UNL     1       1.871 -10.449   5.345  0.00  0.00    +0.145 HD
ENDBRANCH   5  17
BRANCH   4  20
ATOM     20  C   UNL     1       3.999  -7.597   4.621  0.00  0.00    +0.101 C 
ATOM     21  N   UNL     1       4.928  -7.436   5.255  0.00  0.00    -0.191 NA
ENDBRANCH   4  20
BRANCH   1  22
ATOM     22  C   UNL     1       0.077  -4.981   1.735  0.00  0.00    +0.131 C 
BRANCH  22  23
ATOM     23  S   UNL     1       0.062  -4.533  -0.023  0.00  0.00    -0.119 S 
BRANCH  23  28
ATOM     24  C   UNL     1      -0.018   1.503   0.010  0.00  0.00    +0.044 C 
ATOM     25  C   UNL     1       0.002  -0.004   0.002  0.00  0.00    -0.050 A 
ATOM     26  C   UNL     1       0.006  -0.687  -1.200  0.00  0.00    +0.004 A 
ATOM     27  C   UNL     1       0.024  -2.068  -1.212  0.00  0.00    +0.015 A 
ATOM     28  C   UNL     1       0.039  -2.771  -0.013  0.00  0.00    +0.008 A 
ATOM     29  C   UNL     1       0.036  -2.081   1.193  0.00  0.00    +0.015 A 
ATOM     30  C   UNL     1       0.023  -0.700   1.197  0.00  0.00    +0.004 A 
ENDBRANCH  23  28
ENDBRANCH  22  23
ENDBRANCH   1  22
TORSDOF 6
