REMARK  Name = ZINC35557868
REMARK  5 active torsions:
REMARK  status: ('A' for Active; 'I' for Inactive)
REMARK    1  A    between atoms: C_1  and  C_2
REMARK    2  A    between atoms: C_2  and  N_3
REMARK    3  A    between atoms: N_3  and  C_4
REMARK    4  A    between atoms: C_4  and  C_6
REMARK    5  A    between atoms: C_4  and  C_14
REMARK                            x       y       z     vdW  Elec       q    Type
REMARK                         _______ _______ _______ _____ _____    ______ ____
ROOT
ATOM      1  C   UNL     1      -1.356  -1.981   0.004  0.00  0.00    -0.003 C 
ENDROOT
BRANCH   1   2
ATOM      2  C   UNL     1      -0.737  -2.482   1.284  0.00  0.00    -0.019 A 
ATOM      3  C   UNL     1       0.122  -3.511   1.469  0.00  0.00    +0.013 A 
ATOM      4  C   UNL     1       0.583  -3.814   2.750  0.00  0.00    -0.037 A 
ATOM      5  C   UNL     1       0.124  -3.030   3.763  0.00  0.00    -0.007 A 
ATOM      6  S   UNL     1      -0.939  -1.867   2.949  0.00  0.00    -0.099 S 
ATOM      7  C   UNL     1       0.452  -3.134   5.217  0.00  0.00    +0.043 C 
ATOM      8  C   UNL     1       1.110  -4.500   5.466  0.00  0.00    +0.005 C 
ATOM      9  C   UNL     1       2.195  -4.722   4.408  0.00  0.00    +0.005 C 
ATOM     10  C   UNL     1       1.551  -4.957   3.040  0.00  0.00    +0.036 C 
ENDBRANCH   1   2
BRANCH   1  11
ATOM     11  C   UNL     1      -2.766  -2.502  -0.109  0.00  0.00    -0.055 A 
ATOM     12  C   UNL     1      -3.789  -1.882   0.583  0.00  0.00    +0.004 A 
ATOM     13  C   UNL     1      -5.082  -2.359   0.481  0.00  0.00    +0.021 A 
ATOM     14  C   UNL     1      -5.353  -3.457  -0.315  0.00  0.00    +0.059 A 
ATOM     15  C   UNL     1      -4.329  -4.078  -1.009  0.00  0.00    +0.059 A 
ATOM     16  C   UNL     1      -3.035  -3.596  -0.909  0.00  0.00    +0.023 A 
ATOM     17 CL   UNL     1      -4.667  -5.457  -2.007  0.00  0.00    -0.082 Cl
ATOM     18 CL   UNL     1      -6.977  -4.057  -0.444  0.00  0.00    -0.082 Cl
ENDBRANCH   1  11
BRANCH   1  19
ATOM     19  N   UNL     1      -1.376  -0.512   0.012  0.00  0.00    +0.386 N 
ATOM     20  H   UNL     1      -1.848  -0.187   0.843  0.00  0.00    -0.085 HD
ATOM     21  H   UNL     1      -1.864  -0.178  -0.805  0.00  0.00    -0.085 HD
BRANCH  19  23
ATOM     22  C   UNL     1      -0.019   1.526   0.010  0.00  0.00    -0.017 C 
ATOM     23  C   UNL     1       0.002  -0.004   0.002  0.00  0.00    -0.085 C 
ENDBRANCH  19  23
ENDBRANCH   1  19
TORSDOF 4
