REMARK  Name = ZINC15007631
REMARK  7 active torsions:
REMARK  status: ('A' for Active; 'I' for Inactive)
REMARK    1  A    between atoms: C_4  and  C_7
REMARK    2  A    between atoms: N_10  and  C_19
REMARK    3  A    between atoms: C_19  and  C_20
REMARK    4  A    between atoms: C_20  and  C_21
REMARK    5  A    between atoms: N_23  and  C_24
REMARK    6  A    between atoms: C_24  and  C_25
REMARK    7  A    between atoms: C_25  and  C_26
REMARK                            x       y       z     vdW  Elec       q    Type
REMARK                         _______ _______ _______ _____ _____    ______ ____
ROOT
ATOM      1  C   UNL     1       5.681  -1.935   2.921  0.00  0.00    -0.069 C 
ENDROOT
BRANCH   1   4
ATOM      2  C   UNL     1       6.214  -0.700  -0.591  0.00  0.00    +0.187 C 
ATOM      3  C   UNL     1       6.276  -0.784   0.918  0.00  0.00    -0.028 C 
ATOM      4  N   UNL     1       5.367  -1.768   1.496  0.00  0.00    +0.385 N 
ATOM      5  C   UNL     1       3.969  -1.344   1.359  0.00  0.00    -0.039 C 
ATOM      6  C   UNL     1       3.464  -1.766  -0.007  0.00  0.00    -0.022 A 
ATOM      7  C   UNL     1       2.509  -2.756  -0.116  0.00  0.00    +0.005 A 
ATOM      8  C   UNL     1       2.042  -3.123  -1.366  0.00  0.00    +0.000 A 
ATOM      9  C   UNL     1       2.529  -2.499  -2.500  0.00  0.00    +0.004 A 
ATOM     10  C   UNL     1       3.489  -1.510  -2.391  0.00  0.00    +0.046 A 
ATOM     11  C   UNL     1       3.963  -1.149  -1.138  0.00  0.00    +0.123 A 
ATOM     12  O   UNL     1       4.939  -0.206  -1.021  0.00  0.00    -0.486 OA
ATOM     13  H   UNL     1       5.492  -2.651   1.025  0.00  0.00    -0.081 HD
BRANCH   2  17
ATOM     14  C   UNL     1       9.280   1.931  -1.980  0.00  0.00    +0.000 A 
ATOM     15  C   UNL     1       9.473   0.562  -2.019  0.00  0.00    +0.000 A 
ATOM     16  C   UNL     1       8.481  -0.289  -1.569  0.00  0.00    +0.007 A 
ATOM     17  C   UNL     1       7.296   0.228  -1.080  0.00  0.00    -0.009 A 
ATOM     18  C   UNL     1       7.103   1.596  -1.040  0.00  0.00    +0.007 A 
ATOM     19  C   UNL     1       8.095   2.448  -1.491  0.00  0.00    +0.000 A 
ENDBRANCH   2  17
ENDBRANCH   1   4
BRANCH   1  20
ATOM     20  C   UNL     1       7.068  -2.563   3.067  0.00  0.00    +0.077 C 
BRANCH  20  21
ATOM     21  C   UNL     1       7.337  -2.856   4.521  0.00  0.00    +0.211 C 
ATOM     22  O   UNL     1       6.500  -2.589   5.358  0.00  0.00    -0.276 OA
ATOM     23  N   UNL     1       8.506  -3.415   4.891  0.00  0.00    -0.315 N 
ATOM     24  H   UNL     1       9.175  -3.629   4.222  0.00  0.00    +0.149 HD
BRANCH  23  25
ATOM     25  C   UNL     1       8.766  -3.700   6.304  0.00  0.00    +0.112 C 
BRANCH  25  26
ATOM     26  C   UNL     1      10.154  -4.329   6.450  0.00  0.00    +0.093 C 
BRANCH  26  27
ATOM     27  C   UNL     1      10.422  -4.622   7.904  0.00  0.00    +0.112 A 
ATOM     28  N   UNL     1       9.504  -4.323   8.772  0.00  0.00    -0.234 NA
ATOM     29  H   UNL     1      12.256  -5.396   7.545  0.00  0.00    +0.170 HD
ATOM     30  C   UNL     1       9.675  -4.558  10.097  0.00  0.00    +0.078 A 
ATOM     31  C   UNL     1       8.688  -4.236  11.031  0.00  0.00    +0.028 A 
ATOM     32  C   UNL     1       8.904  -4.492  12.367  0.00  0.00    +0.002 A 
ATOM     33  C   UNL     1      10.092  -5.067  12.798  0.00  0.00    +0.001 A 
ATOM     34  C   UNL     1      11.081  -5.394  11.895  0.00  0.00    +0.015 A 
ATOM     35  C   UNL     1      10.882  -5.143  10.539  0.00  0.00    +0.065 A 
ATOM     36  C   UNL     1      11.900  -5.470   9.530  0.00  0.00    +0.259 A 
ATOM     37  O   UNL     1      12.962  -5.976   9.844  0.00  0.00    -0.267 OA
ATOM     38  N   UNL     1      11.609  -5.191   8.238  0.00  0.00    -0.310 N 
ENDBRANCH  26  27
ENDBRANCH  25  26
ENDBRANCH  23  25
ENDBRANCH  20  21
ENDBRANCH   1  20
TORSDOF 7
