REMARK  Name = ZINC35890821
REMARK  12 active torsions:
REMARK  status: ('A' for Active; 'I' for Inactive)
REMARK    1  A    between atoms: C_1  and  C_2
REMARK    2  A    between atoms: C_2  and  C_3
REMARK    3  A    between atoms: C_2  and  N_4
REMARK    4  A    between atoms: C_5  and  C_7
REMARK    5  A    between atoms: C_7  and  C_9
REMARK    6  A    between atoms: C_7  and  O_28
REMARK    7  A    between atoms: C_9  and  N_10
REMARK    8  A    between atoms: N_10  and  C_11
REMARK    9  A    between atoms: N_10  and  C_21
REMARK   10  A    between atoms: C_11  and  C_12
REMARK   11  A    between atoms: C_21  and  C_22
REMARK   12  A    between atoms: O_28  and  C_29
REMARK                            x       y       z     vdW  Elec       q    Type
REMARK                         _______ _______ _______ _____ _____    ______ ____
ROOT
ATOM      1  N   UNL     1       2.836  -2.884  -4.304  0.00  0.00    +0.387 N 
ATOM      2  H   UNL     1       2.738  -2.155  -4.996  0.00  0.00    -0.081 HD
ENDROOT
BRANCH   1   3
ATOM      3  C   UNL     1       2.450  -2.362  -2.986  0.00  0.00    -0.023 C 
BRANCH   3   4
ATOM      4  C   UNL     1       3.219  -1.069  -2.704  0.00  0.00    +0.242 C 
BRANCH   4   6
ATOM      5  N   UNL     1       1.426   0.021  -1.395  0.00  0.00    -0.310 N 
ATOM      6  C   UNL     1       2.692  -0.437  -1.441  0.00  0.00    +0.252 C 
ATOM      7  O   UNL     1       3.408  -0.341  -0.467  0.00  0.00    -0.272 OA
ATOM      8  H   UNL     1       0.853  -0.056  -2.174  0.00  0.00    +0.149 HD
BRANCH   5  10
ATOM      9  C   UNL     1       1.296   2.117  -0.141  0.00  0.00    +0.027 C 
ATOM     10  C   UNL     1       0.914   0.636  -0.167  0.00  0.00    +0.067 C 
ATOM     11  C   UNL     1      -0.610   0.500  -0.126  0.00  0.00    +0.027 C 
ENDBRANCH   5  10
ENDBRANCH   4   6
BRANCH   4  12
ATOM     12  O   UNL     1       4.607  -1.366  -2.545  0.00  0.00    -0.479 OA
BRANCH  12  13
ATOM     13  C   UNL     1       5.486  -0.358  -2.792  0.00  0.00    +0.157 A 
ATOM     14  C   UNL     1       5.019   0.917  -3.071  0.00  0.00    +0.048 A 
ATOM     15  C   UNL     1       5.914   1.940  -3.321  0.00  0.00    +0.004 A 
ATOM     16  C   UNL     1       7.274   1.693  -3.295  0.00  0.00    +0.003 A 
ATOM     17  C   UNL     1       7.744   0.423  -3.018  0.00  0.00    +0.042 A 
ATOM     18  C   UNL     1       6.853  -0.604  -2.760  0.00  0.00    +0.165 A 
ATOM     19  F   UNL     1       7.311  -1.844  -2.483  0.00  0.00    -0.202 F 
ENDBRANCH  12  13
ENDBRANCH   4  12
ENDBRANCH   3   4
ENDBRANCH   1   3
BRANCH   1  20
ATOM     20  C   UNL     1       1.967  -4.014  -4.657  0.00  0.00    -0.043 C 
BRANCH  20  21
ATOM     21  C   UNL     1       0.555  -3.522  -4.847  0.00  0.00    -0.060 A 
ATOM     22  C   UNL     1      -0.315  -3.489  -3.773  0.00  0.00    +0.005 A 
ATOM     23  C   UNL     1      -1.610  -3.038  -3.942  0.00  0.00    +0.050 A 
ATOM     24  C   UNL     1      -2.041  -2.618  -5.190  0.00  0.00    +0.166 A 
ATOM     25  C   UNL     1      -1.165  -2.651  -6.272  0.00  0.00    +0.166 A 
ATOM     26  C   UNL     1       0.134  -3.099  -6.094  0.00  0.00    +0.051 A 
ATOM     27  O   UNL     1      -1.820  -2.192  -7.378  0.00  0.00    -0.453 OA
ATOM     28  C   UNL     1      -3.221  -2.262  -7.052  0.00  0.00    +0.466 C 
ATOM     29  O   UNL     1      -3.245  -2.138  -5.618  0.00  0.00    -0.453 OA
ENDBRANCH  20  21
ENDBRANCH   1  20
BRANCH   1  30
ATOM     30  C   UNL     1       4.233  -3.335  -4.262  0.00  0.00    -0.046 C 
BRANCH  30  31
ATOM     31  C   UNL     1       4.658  -3.810  -5.653  0.00  0.00    +0.102 C 
ATOM     32  C   UNL     1       6.109  -4.335  -5.607  0.00  0.00    +0.032 C 
ATOM     33  C   UNL     1       6.691  -3.812  -6.948  0.00  0.00    +0.030 C 
ATOM     34  C   UNL     1       5.941  -2.464  -7.090  0.00  0.00    +0.160 C 
ATOM     35  O   UNL     1       4.622  -2.712  -6.573  0.00  0.00    -0.378 OA
ENDBRANCH  30  31
ENDBRANCH   1  30
TORSDOF 10
