REMARK  Name = ZINC39225664
REMARK  14 active torsions:
REMARK  status: ('A' for Active; 'I' for Inactive)
REMARK    1  A    between atoms: C_1  and  C_2
REMARK    2  A    between atoms: C_2  and  C_3
REMARK    3  A    between atoms: C_3  and  C_5
REMARK    4  A    between atoms: C_3  and  C_11
REMARK    5  A    between atoms: N_20  and  C_23
REMARK    6  A    between atoms: C_23  and  C_25
REMARK    7  A    between atoms: C_23  and  C_29
REMARK    8  A    between atoms: C_25  and  C_26
REMARK    9  A    between atoms: C_26  and  C_27
REMARK   10  A    between atoms: C_26  and  C_28
REMARK   11  A    between atoms: N_31  and  C_32
REMARK   12  A    between atoms: C_32  and  C_33
REMARK   13  A    between atoms: N_38  and  C_39
REMARK   14  A    between atoms: C_39  and  C_40
REMARK                            x       y       z     vdW  Elec       q    Type
REMARK                         _______ _______ _______ _____ _____    ______ ____
ROOT
ATOM      1  C   UNL     1      -0.297  -6.435   3.821  0.00  0.00    +0.224 C 
ATOM      2  O   UNL     1       0.691  -6.758   3.197  0.00  0.00    -0.275 OA
ATOM      3  N   UNL     1      -1.207  -5.611   3.263  0.00  0.00    -0.287 N 
ATOM      4  C   UNL     1      -2.494  -5.210   3.866  0.00  0.00    +0.109 C 
ATOM      5  C   UNL     1      -2.846  -3.861   3.189  0.00  0.00    +0.022 C 
ATOM      6  C   UNL     1      -2.335  -4.093   1.741  0.00  0.00    +0.037 C 
ATOM      7  C   UNL     1      -1.084  -4.957   1.961  0.00  0.00    +0.115 C 
ATOM      8  C   UNL     1       0.186  -4.090   1.900  0.00  0.00    +0.054 C 
ATOM      9  C   UNL     1       0.617  -4.272   0.426  0.00  0.00    +0.111 C 
ATOM     10  N   UNL     1       0.045  -5.559   0.007  0.00  0.00    -0.288 N 
ATOM     11  C   UNL     1      -0.924  -5.961   0.850  0.00  0.00    +0.240 C 
ATOM     12  O   UNL     1      -1.572  -6.979   0.733  0.00  0.00    -0.273 OA
ENDROOT
BRANCH   1  13
ATOM     13  C   UNL     1      -0.509  -6.955   5.220  0.00  0.00    +0.105 C 
BRANCH  13  14
ATOM     14  C   UNL     1       0.642  -7.848   5.603  0.00  0.00    -0.036 A 
ATOM     15  C   UNL     1       0.917  -8.980   4.859  0.00  0.00    +0.004 A 
ATOM     16  C   UNL     1       1.973  -9.799   5.211  0.00  0.00    +0.000 A 
ATOM     17  C   UNL     1       2.756  -9.486   6.307  0.00  0.00    +0.000 A 
ATOM     18  C   UNL     1       2.482  -8.353   7.051  0.00  0.00    +0.000 A 
ATOM     19  C   UNL     1       1.428  -7.531   6.696  0.00  0.00    +0.004 A 
ENDBRANCH  13  14
BRANCH  13  21
ATOM     20  C   UNL     1      -2.092  -8.174   6.719  0.00  0.00    +0.005 C 
ATOM     21  C   UNL     1      -1.813  -7.752   5.275  0.00  0.00    +0.014 C 
ENDBRANCH  13  21
ENDBRANCH   1  13
BRANCH  10  22
ATOM     22  C   UNL     1       0.475  -6.308  -1.176  0.00  0.00    +0.162 C 
BRANCH  22  23
ATOM     23  C   UNL     1       1.898  -6.768  -0.990  0.00  0.00    +0.234 C 
ATOM     24  O   UNL     1       2.494  -6.497   0.031  0.00  0.00    -0.274 OA
ATOM     25  N   UNL     1       2.508  -7.481  -1.957  0.00  0.00    -0.315 N 
ATOM     26  H   UNL     1       2.031  -7.698  -2.774  0.00  0.00    +0.149 HD
BRANCH  25  27
ATOM     27  C   UNL     1       3.891  -7.929  -1.776  0.00  0.00    +0.089 C 
BRANCH  27  28
ATOM     28  C   UNL     1       4.340  -8.712  -3.011  0.00  0.00    -0.051 C 
ATOM     29  C   UNL     1       5.732  -9.331  -2.764  0.00  0.00    -0.016 C 
ATOM     30  C   UNL     1       5.396 -10.783  -2.332  0.00  0.00    -0.020 C 
ATOM     31  C   UNL     1       4.161 -11.094  -3.213  0.00  0.00    -0.078 C 
ATOM     32  N   UNL     1       3.404  -9.821  -3.270  0.00  0.00    +0.382 N 
ATOM     33  H   UNL     1       2.679  -9.825  -2.568  0.00  0.00    -0.081 HD
BRANCH  32  34
ATOM     34  C   UNL     1       2.801  -9.660  -4.600  0.00  0.00    -0.082 C 
ATOM     35  C   UNL     1       1.741 -10.742  -4.813  0.00  0.00    -0.017 C 
ENDBRANCH  32  34
ENDBRANCH  27  28
ENDBRANCH  25  27
ENDBRANCH  22  23
BRANCH  22  36
ATOM     36  C   UNL     1       0.389  -5.407  -2.410  0.00  0.00    +0.035 C 
BRANCH  36  37
ATOM     37  C   UNL     1      -1.078  -5.081  -2.702  0.00  0.00    -0.015 C 
ATOM     38  C   UNL     1      -1.637  -4.199  -1.583  0.00  0.00    +0.007 C 
ATOM     39  C   UNL     1      -1.180  -4.339  -4.036  0.00  0.00    +0.007 C 
ENDBRANCH  36  37
ENDBRANCH  22  36
ENDBRANCH  10  22
TORSDOF 10
