REMARK  Name = ZINC00553381
REMARK  0 active torsions:
REMARK  status: ('A' for Active; 'I' for Inactive)
REMARK                            x       y       z     vdW  Elec       q    Type
REMARK                         _______ _______ _______ _____ _____    ______ ____
ROOT
ATOM      1  C   UNL     1      -0.016   1.316   0.009  0.00  0.00    +0.138 A 
ATOM      2  C   UNL     1       1.168   2.032   0.002  0.00  0.00    +0.086 A 
ATOM      3  C   UNL     1       2.383   1.338  -0.013  0.00  0.00    +0.084 A 
ATOM      4  C   UNL     1       2.354  -0.052  -0.021  0.00  0.00    +0.061 A 
ATOM      5  C   UNL     1       1.129  -0.691  -0.014  0.00  0.00    +0.128 A 
ATOM      6  N   UNL     1       0.002  -0.004   0.002  0.00  0.00    -0.260 NA
ATOM      7 BR   UNL     1       3.961  -1.048  -0.043  0.00  0.00    -0.047 Br
ATOM      8  N   UNL     1       3.392   2.289  -0.018  0.00  0.00    -0.305 N 
ATOM      9  H   UNL     1       4.344   2.106  -0.028  0.00  0.00    +0.170 HD
ATOM     10  C   UNL     1       2.825   3.511  -0.005  0.00  0.00    +0.325 A 
ATOM     11  O   UNL     1       3.432   4.565  -0.005  0.00  0.00    -0.247 OA
ATOM     12  N   UNL     1       1.483   3.388   0.006  0.00  0.00    -0.305 N 
ATOM     13  H   UNL     1       0.846   4.119   0.016  0.00  0.00    +0.170 HD
ENDROOT
TORSDOF 0
