REMARK  Name = ZINC43137023
REMARK  7 active torsions:
REMARK  status: ('A' for Active; 'I' for Inactive)
REMARK    1  A    between atoms: C_1  and  C_2
REMARK    2  A    between atoms: C_7  and  N_8
REMARK    3  A    between atoms: N_11  and  N_12
REMARK    4  A    between atoms: N_15  and  C_16
REMARK    5  A    between atoms: C_16  and  C_17
REMARK    6  A    between atoms: C_17  and  C_19
REMARK    7  A    between atoms: C_17  and  N_24
REMARK                            x       y       z     vdW  Elec       q    Type
REMARK                         _______ _______ _______ _____ _____    ______ ____
ROOT
ATOM      1  N   UNL     1      -0.593   1.315   4.744  0.00  0.00    -0.217 N 
ATOM      2  C   UNL     1      -0.569   1.999   5.906  0.00  0.00    +0.316 C 
ATOM      3  O   UNL     1      -0.552   3.214   5.896  0.00  0.00    -0.251 OA
ATOM      4  N   UNL     1      -0.562   1.334   7.078  0.00  0.00    -0.299 N 
ATOM      5  H   UNL     1      -0.598   1.793   3.900  0.00  0.00    +0.174 HD
ATOM      6  H   UNL     1      -0.575   0.364   7.087  0.00  0.00    +0.150 HD
ENDROOT
BRANCH   1  10
ATOM      7  N   UNL     1      -0.644  -0.105   2.422  0.00  0.00    -0.268 N 
ATOM      8  C   UNL     1      -0.637  -0.769   3.595  0.00  0.00    +0.320 C 
ATOM      9  O   UNL     1      -0.653  -1.985   3.605  0.00  0.00    -0.251 OA
ATOM     10  N   UNL     1      -0.612  -0.086   4.756  0.00  0.00    -0.217 N 
ATOM     11  H   UNL     1      -0.558   0.861   2.411  0.00  0.00    +0.156 HD
ATOM     12  H   UNL     1      -0.608  -0.564   5.600  0.00  0.00    +0.174 HD
BRANCH   7  19
ATOM     13  C   UNL     1      -2.054   1.134   0.284  0.00  0.00    +0.045 C 
ATOM     14  C   UNL     1      -1.454  -0.241   0.151  0.00  0.00    -0.029 A 
ATOM     15  C   UNL     1      -1.575  -0.937  -1.037  0.00  0.00    +0.005 A 
ATOM     16  C   UNL     1      -1.024  -2.199  -1.160  0.00  0.00    +0.000 A 
ATOM     17  C   UNL     1      -0.351  -2.770  -0.095  0.00  0.00    +0.002 A 
ATOM     18  C   UNL     1      -0.227  -2.080   1.095  0.00  0.00    +0.023 A 
ATOM     19  C   UNL     1      -0.773  -0.809   1.220  0.00  0.00    +0.038 A 
ENDBRANCH   7  19
ENDBRANCH   1  10
BRANCH   4  20
ATOM     20  C   UNL     1      -0.535   2.077   8.341  0.00  0.00    +0.098 C 
BRANCH  20  21
ATOM     21  C   UNL     1      -0.413   1.095   9.508  0.00  0.00    +0.016 C 
BRANCH  21  22
ATOM     22  N   UNL     1      -1.491   0.101   9.426  0.00  0.00    +0.387 N 
ATOM     23  C   UNL     1      -2.786   0.788   9.365  0.00  0.00    -0.078 C 
ATOM     24  C   UNL     1      -3.907  -0.240   9.198  0.00  0.00    -0.019 C 
ATOM     25  C   UNL     1      -3.893  -1.201  10.390  0.00  0.00    -0.004 C 
ATOM     26  C   UNL     1      -2.512  -1.857  10.488  0.00  0.00    -0.019 C 
ATOM     27  C   UNL     1      -1.443  -0.769  10.607  0.00  0.00    -0.078 C 
ATOM     28  H   UNL     1      -1.370  -0.457   8.594  0.00  0.00    -0.081 HD
ENDBRANCH  21  22
BRANCH  21  29
ATOM     29  C   UNL     1      -0.521   1.847  10.810  0.00  0.00    +0.093 A 
ATOM     30  C   UNL     1       0.511   2.256  11.570  0.00  0.00    +0.043 A 
ATOM     31  C   UNL     1      -0.043   2.915  12.691  0.00  0.00    +0.041 A 
ATOM     32  C   UNL     1      -1.380   2.869  12.549  0.00  0.00    +0.195 A 
ATOM     33  O   UNL     1      -1.664   2.226  11.405  0.00  0.00    -0.469 OA
ENDBRANCH  21  29
ENDBRANCH  20  21
ENDBRANCH   4  20
TORSDOF 6
