REMARK  Name = ZINC14015719
REMARK  3 active torsions:
REMARK  status: ('A' for Active; 'I' for Inactive)
REMARK    1  A    between atoms: C_4  and  S_7
REMARK    2  A    between atoms: S_7  and  N_10
REMARK    3  A    between atoms: C_14  and  C_17
REMARK                            x       y       z     vdW  Elec       q    Type
REMARK                         _______ _______ _______ _____ _____    ______ ____
ROOT
ATOM      1  C   UNL     1      -0.921   3.974   0.028  0.00  0.00    +0.223 C 
ATOM      2  O   UNL     1       0.205   4.425   0.025  0.00  0.00    -0.275 OA
ATOM      3  N   UNL     1      -1.112   2.640   0.022  0.00  0.00    -0.264 N 
ATOM      4  C   UNL     1      -0.022   1.783   0.012  0.00  0.00    +0.165 A 
ATOM      5  N   UNL     1       1.258   2.076   0.001  0.00  0.00    -0.225 NA
ATOM      6  C   UNL     1       2.221   1.129  -0.013  0.00  0.00    +0.081 A 
ATOM      7  C   UNL     1       3.632   1.326  -0.026  0.00  0.00    +0.029 A 
ATOM      8  C   UNL     1       4.495   0.289  -0.041  0.00  0.00    +0.010 A 
ATOM      9  C   UNL     1       4.038  -1.044  -0.044  0.00  0.00    -0.017 A 
ATOM     10  C   UNL     1       4.929  -2.126  -0.060  0.00  0.00    +0.008 A 
ATOM     11  C   UNL     1       4.445  -3.400  -0.060  0.00  0.00    +0.001 A 
ATOM     12  C   UNL     1       3.074  -3.643  -0.048  0.00  0.00    +0.001 A 
ATOM     13  C   UNL     1       2.180  -2.615  -0.033  0.00  0.00    +0.009 A 
ATOM     14  C   UNL     1       2.640  -1.289  -0.030  0.00  0.00    -0.002 A 
ATOM     15  C   UNL     1       1.767  -0.200  -0.016  0.00  0.00    +0.048 A 
ATOM     16  S   UNL     1       0.002  -0.004   0.002  0.00  0.00    -0.051 S 
ATOM     17  H   UNL     1      -2.013   2.279   0.025  0.00  0.00    +0.157 HD
ENDROOT
BRANCH   1  22
ATOM     18  N   UNL     1      -2.776   7.247   0.191  0.00  0.00    -0.176 NA
ATOM     19  C   UNL     1      -3.701   7.028   1.311  0.00  0.00    +0.109 C 
ATOM     20  C   UNL     1      -4.168   5.569   1.287  0.00  0.00    +0.018 C 
ATOM     21  C   UNL     1      -2.947   4.647   1.291  0.00  0.00    +0.015 C 
ATOM     22  C   UNL     1      -2.106   4.905   0.039  0.00  0.00    +0.091 C 
ATOM     23  C   UNL     1      -1.615   6.356   0.049  0.00  0.00    +0.122 C 
BRANCH  18  24
ATOM     24  S   UNL     1      -3.035   8.473  -0.891  0.00  0.00    +0.061 S 
ATOM     25  O   UNL     1      -2.371   8.103  -2.092  0.00  0.00    -0.153 OA
ATOM     26  O   UNL     1      -4.425   8.765  -0.849  0.00  0.00    -0.153 OA
BRANCH  24  30
ATOM     27  C   UNL     1      -0.895  12.133   0.696  0.00  0.00    +0.000 A 
ATOM     28  C   UNL     1      -0.235  11.256  -0.144  0.00  0.00    +0.002 A 
ATOM     29  C   UNL     1      -0.888  10.138  -0.628  0.00  0.00    +0.028 A 
ATOM     30  C   UNL     1      -2.202   9.898  -0.273  0.00  0.00    +0.105 A 
ATOM     31  C   UNL     1      -2.865  10.777   0.562  0.00  0.00    +0.028 A 
ATOM     32  C   UNL     1      -2.210  11.893   1.050  0.00  0.00    +0.002 A 
ENDBRANCH  24  30
ENDBRANCH  18  24
ENDBRANCH   1  22
TORSDOF 3
