REMARK  Name = ZINC39675453
REMARK  10 active torsions:
REMARK  status: ('A' for Active; 'I' for Inactive)
REMARK    1  A    between atoms: C_1  and  C_2
REMARK    2  A    between atoms: C_2  and  C_4
REMARK    3  A    between atoms: C_2  and  N_14
REMARK    4  A    between atoms: C_4  and  C_5
REMARK    5  A    between atoms: C_5  and  C_6
REMARK    6  A    between atoms: C_9  and  O_12
REMARK    7  A    between atoms: O_12  and  C_13
REMARK    8  A    between atoms: C_15  and  C_17
REMARK    9  A    between atoms: C_28  and  C_30
REMARK   10  A    between atoms: C_33  and  C_35
REMARK                            x       y       z     vdW  Elec       q    Type
REMARK                         _______ _______ _______ _____ _____    ______ ____
ROOT
ATOM      1  C   UNL     1      -2.167  -1.465   1.411  0.00  0.00    +0.100 C 
ATOM      2  C   UNL     1      -2.151  -2.989   1.160  0.00  0.00    +0.121 C 
ATOM      3  N   UNL     1      -2.283  -3.592   2.507  0.00  0.00    -0.294 N 
ATOM      4  C   UNL     1      -3.259  -2.722   3.206  0.00  0.00    +0.115 C 
ATOM      5  C   UNL     1      -2.898  -1.293   2.753  0.00  0.00    -0.004 C 
ATOM      6  C   UNL     1      -1.978  -0.633   3.775  0.00  0.00    -0.010 C 
ATOM      7  C   UNL     1      -2.744  -0.422   5.084  0.00  0.00    -0.082 C 
ATOM      8  N   UNL     1      -3.918   0.424   4.834  0.00  0.00    +0.379 N 
ATOM      9  C   UNL     1      -4.842  -0.259   3.921  0.00  0.00    -0.082 C 
ATOM     10  C   UNL     1      -4.164  -0.464   2.563  0.00  0.00    -0.010 C 
ATOM     11  C   UNL     1      -1.658  -4.684   2.988  0.00  0.00    +0.282 C 
ATOM     12  O   UNL     1      -1.937  -5.108   4.095  0.00  0.00    -0.267 OA
ATOM     13  H   UNL     1      -4.387   0.612   5.707  0.00  0.00    -0.086 HD
ATOM     14  H   UNL     1      -3.621   1.295   4.420  0.00  0.00    -0.086 HD
ENDROOT
BRANCH  11  15
ATOM     15  C   UNL     1      -0.641  -5.362   2.180  0.00  0.00    +0.190 A 
ATOM     16  C   UNL     1      -0.001  -6.538   2.504  0.00  0.00    +0.055 A 
ATOM     17  C   UNL     1       0.882  -6.819   1.458  0.00  0.00    +0.051 A 
ATOM     18  C   UNL     1       0.751  -5.815   0.541  0.00  0.00    +0.139 A 
ATOM     19  O   UNL     1      -0.173  -4.946   0.984  0.00  0.00    -0.450 OA
BRANCH  18  20
ATOM     20  C   UNL     1       1.497  -5.706  -0.729  0.00  0.00    +0.052 A 
ATOM     21  C   UNL     1       2.893  -5.729  -0.726  0.00  0.00    +0.014 A 
ATOM     22  C   UNL     1       3.584  -5.626  -1.915  0.00  0.00    +0.001 A 
ATOM     23  C   UNL     1       2.897  -5.501  -3.111  0.00  0.00    +0.003 A 
ATOM     24  C   UNL     1       1.514  -5.478  -3.123  0.00  0.00    +0.039 A 
ATOM     25  C   UNL     1       0.808  -5.585  -1.940  0.00  0.00    +0.134 A 
ATOM     26  F   UNL     1      -0.542  -5.569  -1.953  0.00  0.00    -0.205 F 
ENDBRANCH  18  20
ENDBRANCH  11  15
BRANCH   1  28
ATOM     27  N   UNL     1      -0.509   0.363   1.241  0.00  0.00    -0.312 N 
ATOM     28  C   UNL     1      -0.760  -0.934   1.508  0.00  0.00    +0.218 C 
ATOM     29  O   UNL     1       0.147  -1.674   1.826  0.00  0.00    -0.275 OA
ATOM     30  H   UNL     1      -1.242   0.971   1.058  0.00  0.00    +0.149 HD
BRANCH  27  32
ATOM     31  C   UNL     1       1.304   1.197   2.655  0.00  0.00    +0.028 C 
ATOM     32  C   UNL     1       0.871   0.854   1.228  0.00  0.00    +0.070 C 
BRANCH  32  33
ATOM     33  C   UNL     1       0.958   2.107   0.355  0.00  0.00    +0.026 C 
BRANCH  33  34
ATOM     34  C   UNL     1       0.664   1.736  -1.100  0.00  0.00    +0.037 C 
BRANCH  34  35
ATOM     35  C   UNL     1       0.870   2.943  -1.978  0.00  0.00    -0.047 A 
ATOM     36  C   UNL     1      -0.204   3.752  -2.302  0.00  0.00    +0.007 A 
ATOM     37  C   UNL     1      -0.018   4.859  -3.107  0.00  0.00    +0.046 A 
ATOM     38  C   UNL     1       1.247   5.160  -3.590  0.00  0.00    +0.120 A 
ATOM     39  C   UNL     1       2.323   4.347  -3.264  0.00  0.00    +0.046 A 
ATOM     40  C   UNL     1       2.133   3.244  -2.454  0.00  0.00    +0.007 A 
BRANCH  38  41
ATOM     41  O   UNL     1       1.432   6.248  -4.383  0.00  0.00    -0.495 OA
ATOM     42  C   UNL     1       2.762   6.496  -4.844  0.00  0.00    +0.277 C 
ENDBRANCH  38  41
ENDBRANCH  34  35
ENDBRANCH  33  34
ENDBRANCH  32  33
ENDBRANCH  27  32
ENDBRANCH   1  28
TORSDOF 8
