REMARK  Name = ZINC01380902
REMARK  9 active torsions:
REMARK  status: ('A' for Active; 'I' for Inactive)
REMARK    1  A    between atoms: C_1  and  C_2
REMARK    2  A    between atoms: C_7  and  N_8
REMARK    3  A    between atoms: C_9  and  C_11
REMARK    4  A    between atoms: N_22  and  C_32
REMARK    5  A    between atoms: C_23  and  C_25
REMARK    6  A    between atoms: N_27  and  C_28
REMARK    7  A    between atoms: C_28  and  C_29
REMARK    8  A    between atoms: C_28  and  C_30
REMARK    9  A    between atoms: C_28  and  C_31
REMARK                            x       y       z     vdW  Elec       q    Type
REMARK                         _______ _______ _______ _____ _____    ______ ____
ROOT
ATOM      1  C   UNL     1      -0.168   0.052   4.882  0.00  0.00    +0.123 C 
ATOM      2  C   UNL     1      -1.520   0.863   4.957  0.00  0.00    +0.155 C 
ATOM      3  C   UNL     1      -1.226   1.878   6.068  0.00  0.00    +0.004 C 
ATOM      4  C   UNL     1      -1.222   1.170   7.188  0.00  0.00    +0.009 C 
ATOM      5  C   UNL     1      -1.570  -0.249   6.779  0.00  0.00    +0.127 C 
ATOM      6  C   UNL     1      -0.326  -0.900   6.040  0.00  0.00    +0.128 C 
ATOM      7  C   UNL     1       0.585  -1.064   7.187  0.00  0.00    +0.228 C 
ATOM      8  O   UNL     1       1.793  -0.955   7.170  0.00  0.00    -0.275 OA
ATOM      9  N   UNL     1      -0.194  -1.364   8.278  0.00  0.00    -0.256 N 
ATOM     10  C   UNL     1      -1.619  -1.193   7.940  0.00  0.00    +0.203 C 
ATOM     11  O   UNL     1      -2.422  -0.100   5.647  0.00  0.00    -0.358 OA
ENDROOT
BRANCH   9  12
ATOM     12  C   UNL     1       0.290  -1.738   9.536  0.00  0.00    +0.037 A 
ATOM     13  C   UNL     1      -0.596  -2.024  10.567  0.00  0.00    +0.024 A 
ATOM     14  C   UNL     1      -0.113  -2.393  11.805  0.00  0.00    +0.006 A 
ATOM     15  C   UNL     1       1.252  -2.479  12.027  0.00  0.00    -0.044 A 
ATOM     16  C   UNL     1       2.137  -2.194  11.003  0.00  0.00    -0.042 A 
ATOM     17  C   UNL     1       1.657  -1.829   9.757  0.00  0.00    +0.027 A 
ATOM     18  C   UNL     1       3.559  -2.359  11.495  0.00  0.00    +0.036 C 
ATOM     19  C   UNL     1       3.457  -2.347  13.035  0.00  0.00    +0.009 C 
ATOM     20  C   UNL     1       2.020  -2.855  13.276  0.00  0.00    +0.036 C 
ENDBRANCH   9  12
BRANCH   1  22
ATOM     21  N   UNL     1       0.025  -0.015   2.417  0.00  0.00    -0.285 N 
ATOM     22  C   UNL     1      -0.056  -0.694   3.578  0.00  0.00    +0.224 C 
ATOM     23  O   UNL     1      -0.040  -1.907   3.573  0.00  0.00    -0.275 OA
ATOM     24  H   UNL     1       0.078   0.954   2.425  0.00  0.00    +0.155 HD
BRANCH  21  31
ATOM     25  C   UNL     1      -1.264   1.184   0.181  0.00  0.00    +0.045 C 
ATOM     26  C   UNL     1      -0.584  -0.158   0.084  0.00  0.00    -0.029 A 
ATOM     27  C   UNL     1      -0.568  -0.840  -1.117  0.00  0.00    +0.005 A 
ATOM     28  C   UNL     1       0.055  -2.071  -1.206  0.00  0.00    +0.000 A 
ATOM     29  C   UNL     1       0.666  -2.622  -0.095  0.00  0.00    +0.002 A 
ATOM     30  C   UNL     1       0.655  -1.945   1.108  0.00  0.00    +0.023 A 
ATOM     31  C   UNL     1       0.034  -0.706   1.201  0.00  0.00    +0.036 A 
ENDBRANCH  21  31
ENDBRANCH   1  22
BRANCH  10  32
ATOM     32  C   UNL     1      -2.403  -0.601   9.083  0.00  0.00    +0.238 C 
ATOM     33  O   UNL     1      -1.821  -0.094  10.019  0.00  0.00    -0.274 OA
ATOM     34  N   UNL     1      -3.750  -0.635   9.065  0.00  0.00    -0.309 N 
ATOM     35  H   UNL     1      -4.215  -1.040   8.317  0.00  0.00    +0.149 HD
BRANCH  34  36
ATOM     36  C   UNL     1      -4.512  -0.059  10.176  0.00  0.00    +0.026 C 
ATOM     37  C   UNL     1      -4.181   1.429  10.305  0.00  0.00    +0.031 C 
ATOM     38  C   UNL     1      -6.009  -0.227   9.909  0.00  0.00    +0.031 C 
ATOM     39  C   UNL     1      -4.141  -0.778  11.475  0.00  0.00    +0.031 C 
ENDBRANCH  34  36
ENDBRANCH  10  32
TORSDOF 5
