REMARK  Name = ZINC05947821
REMARK  9 active torsions:
REMARK  status: ('A' for Active; 'I' for Inactive)
REMARK    1  A    between atoms: C_1  and  C_2
REMARK    2  A    between atoms: C_2  and  N_3
REMARK    3  A    between atoms: N_3  and  C_4
REMARK    4  A    between atoms: C_7  and  C_13
REMARK    5  A    between atoms: C_9  and  N_10
REMARK    6  A    between atoms: N_15  and  N_16
REMARK    7  A    between atoms: C_17  and  C_18
REMARK    8  A    between atoms: N_20  and  C_33
REMARK    9  A    between atoms: C_22  and  C_23
REMARK                            x       y       z     vdW  Elec       q    Type
REMARK                         _______ _______ _______ _____ _____    ______ ____
ROOT
ATOM      1  C   UNL     1      -5.012  -0.543   0.976  0.00  0.00    +0.040 A 
ATOM      2  C   UNL     1      -5.957  -1.497   0.713  0.00  0.00    +0.124 A 
ATOM      3  N   UNL     1      -5.423  -2.387  -0.148  0.00  0.00    -0.239 N 
ATOM      4  N   UNL     1      -4.113  -2.008  -0.457  0.00  0.00    -0.166 NA
ATOM      5  C   UNL     1      -3.825  -0.902   0.195  0.00  0.00    +0.102 A 
ENDROOT
BRANCH   5   6
ATOM      6  C   UNL     1      -2.542  -0.162   0.152  0.00  0.00    +0.006 A 
ATOM      7  C   UNL     1      -1.968   0.311   1.331  0.00  0.00    +0.014 A 
ATOM      8  C   UNL     1      -0.776   1.003   1.288  0.00  0.00    +0.050 A 
ATOM      9  C   UNL     1      -0.140   1.226   0.074  0.00  0.00    +0.162 A 
ATOM     10  C   UNL     1      -0.707   0.755  -1.106  0.00  0.00    +0.163 A 
ATOM     11  C   UNL     1      -1.906   0.063  -1.068  0.00  0.00    +0.059 A 
ATOM     12  O   UNL     1      -0.097   0.964  -2.304  0.00  0.00    -0.485 OA
ATOM     13  C   UNL     1       0.909   1.983  -2.345  0.00  0.00    +0.270 C 
ATOM     14  C   UNL     1       1.829   1.797  -1.131  0.00  0.00    +0.270 C 
ATOM     15  O   UNL     1       1.036   1.912   0.055  0.00  0.00    -0.485 OA
ENDBRANCH   5   6
BRANCH   3  16
ATOM     16  C   UNL     1      -6.078  -3.517  -0.653  0.00  0.00    +0.065 A 
ATOM     17  C   UNL     1      -7.383  -3.795  -0.267  0.00  0.00    +0.028 A 
ATOM     18  C   UNL     1      -8.028  -4.907  -0.771  0.00  0.00    +0.002 A 
ATOM     19  C   UNL     1      -7.373  -5.749  -1.652  0.00  0.00    +0.000 A 
ATOM     20  C   UNL     1      -6.072  -5.478  -2.034  0.00  0.00    +0.002 A 
ATOM     21  C   UNL     1      -5.423  -4.364  -1.538  0.00  0.00    +0.028 A 
ENDBRANCH   3  16
BRANCH   1  23
ATOM     22  N   UNL     1      -4.210   1.502   1.949  0.00  0.00    -0.187 NA
ATOM     23  C   UNL     1      -5.160   0.620   1.869  0.00  0.00    +0.142 C 
BRANCH  22  26
ATOM     24  C   UNL     1      -3.365   3.523   2.880  0.00  0.00    +0.263 C 
ATOM     25  O   UNL     1      -2.354   3.389   2.217  0.00  0.00    -0.268 OA
ATOM     26  N   UNL     1      -4.351   2.607   2.798  0.00  0.00    -0.203 N 
ATOM     27  H   UNL     1      -5.157   2.713   3.326  0.00  0.00    +0.178 HD
BRANCH  24  31
ATOM     28  C   UNL     1      -3.791   6.874   5.453  0.00  0.00    +0.058 A 
ATOM     29  C   UNL     1      -4.810   5.929   5.369  0.00  0.00    +0.026 A 
ATOM     30  C   UNL     1      -4.678   4.845   4.532  0.00  0.00    +0.015 A 
ATOM     31  C   UNL     1      -3.513   4.687   3.774  0.00  0.00    +0.041 A 
ATOM     32  C   UNL     1      -2.492   5.638   3.861  0.00  0.00    +0.047 A 
ATOM     33  C   UNL     1      -2.633   6.723   4.695  0.00  0.00    +0.148 A 
BRANCH  33  34
ATOM     34  N   UNL     1      -1.552   7.729   4.788  0.00  0.00    +0.058 N 
ATOM     35  O   UNL     1      -0.588   7.658   4.047  0.00  0.00    -0.126 OA
ATOM     36  O   UNL     1      -1.627   8.629   5.606  0.00  0.00    -0.126 OA
ENDBRANCH  33  34
BRANCH  28  37
ATOM     37  N   UNL     1      -3.931   7.972   6.295  0.00  0.00    -0.342 N 
ATOM     38  H   UNL     1      -3.189   8.584   6.422  0.00  0.00    +0.146 HD
BRANCH  37  40
ATOM     39  C   UNL     1      -5.086   9.467   7.848  0.00  0.00    +0.024 C 
ATOM     40  C   UNL     1      -5.198   8.204   6.993  0.00  0.00    +0.098 C 
ENDBRANCH  37  40
ENDBRANCH  28  37
ENDBRANCH  24  31
ENDBRANCH  22  26
ENDBRANCH   1  23
TORSDOF 8
