REMARK  Name = ZINC09219007
REMARK  7 active torsions:
REMARK  status: ('A' for Active; 'I' for Inactive)
REMARK    1  A    between atoms: C_7  and  N_31
REMARK    2  A    between atoms: C_8  and  S_13
REMARK    3  A    between atoms: S_13  and  C_14
REMARK    4  A    between atoms: C_17  and  C_22
REMARK    5  A    between atoms: N_18  and  C_19
REMARK    6  A    between atoms: C_22  and  O_23
REMARK    7  A    between atoms: O_23  and  C_24
REMARK                            x       y       z     vdW  Elec       q    Type
REMARK                         _______ _______ _______ _____ _____    ______ ____
ROOT
ATOM      1  C   UNL     1       0.961  -4.973  -0.409  0.00  0.00    +0.197 A 
ATOM      2  N   UNL     1      -0.081  -4.175  -0.461  0.00  0.00    -0.122 NA
ATOM      3  N   UNL     1      -1.153  -4.840  -0.215  0.00  0.00    -0.130 NA
ATOM      4  C   UNL     1      -0.862  -6.091   0.006  0.00  0.00    +0.172 A 
ATOM      5  N   UNL     1       0.494  -6.222  -0.115  0.00  0.00    -0.300 N 
ENDROOT
BRANCH   5   6
ATOM      6  C   UNL     1       1.282  -7.447   0.041  0.00  0.00    +0.091 C 
ATOM      7  C   UNL     1       2.791  -7.295   0.243  0.00  0.00    +0.027 C 
ATOM      8  C   UNL     1       2.245  -7.816  -1.088  0.00  0.00    +0.027 C 
ENDBRANCH   5   6
BRANCH   1   9
ATOM      9  S   UNL     1       2.642  -4.519  -0.676  0.00  0.00    -0.043 S 
BRANCH   9  17
ATOM     10  C   UNL     1       3.740   1.351  -3.115  0.00  0.00    +0.001 A 
ATOM     11  C   UNL     1       3.014   2.064  -2.171  0.00  0.00    +0.002 A 
ATOM     12  C   UNL     1       2.368   1.412  -1.143  0.00  0.00    +0.026 A 
ATOM     13  C   UNL     1       2.443   0.026  -1.048  0.00  0.00    +0.051 A 
ATOM     14  C   UNL     1       3.179  -0.691  -2.007  0.00  0.00    +0.020 A 
ATOM     15  C   UNL     1       3.826  -0.011  -3.042  0.00  0.00    +0.012 A 
ATOM     16  C   UNL     1       3.251  -2.155  -1.899  0.00  0.00    +0.053 A 
ATOM     17  C   UNL     1       2.588  -2.766  -0.852  0.00  0.00    +0.101 A 
ATOM     18  C   UNL     1       1.869  -1.987   0.074  0.00  0.00    +0.265 A 
ATOM     19  O   UNL     1       1.289  -2.542   0.993  0.00  0.00    -0.267 OA
ATOM     20  N   UNL     1       1.804  -0.649  -0.028  0.00  0.00    -0.321 N 
ATOM     21  H   UNL     1       1.298  -0.147   0.630  0.00  0.00    +0.169 HD
BRANCH  16  22
ATOM     22  N   UNL     1       3.964  -2.901  -2.822  0.00  0.00    -0.356 N 
ATOM     23  H   UNL     1       4.359  -2.469  -3.595  0.00  0.00    +0.142 HD
ATOM     24  H   UNL     1       4.069  -3.857  -2.695  0.00  0.00    +0.142 HD
ENDBRANCH  16  22
ENDBRANCH   9  17
ENDBRANCH   1   9
BRANCH   4  25
ATOM     25  C   UNL     1      -1.840  -7.191   0.331  0.00  0.00    +0.305 C 
BRANCH  25  26
ATOM     26  O   UNL     1      -2.286  -7.804  -0.880  0.00  0.00    -0.483 OA
BRANCH  26  27
ATOM     27  C   UNL     1      -3.179  -8.823  -0.764  0.00  0.00    +0.139 A 
ATOM     28  C   UNL     1      -3.620  -9.220   0.489  0.00  0.00    +0.047 A 
ATOM     29  C   UNL     1      -4.527 -10.255   0.605  0.00  0.00    +0.004 A 
ATOM     30  C   UNL     1      -4.996 -10.896  -0.527  0.00  0.00    +0.002 A 
ATOM     31  C   UNL     1      -4.558 -10.503  -1.778  0.00  0.00    +0.023 A 
ATOM     32  C   UNL     1      -3.654  -9.464  -1.900  0.00  0.00    +0.083 A 
ATOM     33 CL   UNL     1      -3.110  -8.965  -3.471  0.00  0.00    -0.080 Cl
ENDBRANCH  26  27
ENDBRANCH  25  26
ENDBRANCH   4  25
TORSDOF 7
