REMARK  Name = ZINC20840224
REMARK  10 active torsions:
REMARK  status: ('A' for Active; 'I' for Inactive)
REMARK    1  A    between atoms: C_2  and  C_3
REMARK    2  A    between atoms: C_3  and  N_4
REMARK    3  A    between atoms: C_5  and  C_30
REMARK    4  A    between atoms: C_8  and  S_9
REMARK    5  A    between atoms: S_9  and  C_10
REMARK    6  A    between atoms: C_10  and  C_11
REMARK    7  A    between atoms: N_13  and  C_14
REMARK    8  A    between atoms: C_17  and  S_20
REMARK    9  A    between atoms: S_20  and  N_23
REMARK   10  A    between atoms: N_23  and  C_24
REMARK                            x       y       z     vdW  Elec       q    Type
REMARK                         _______ _______ _______ _____ _____    ______ ____
ROOT
ATOM      1  C   UNL     1      -4.445   2.959   7.275  0.00  0.00    +0.227 C 
ATOM      2  O   UNL     1      -5.296   2.581   8.053  0.00  0.00    -0.275 OA
ATOM      3  N   UNL     1      -4.126   4.267   7.208  0.00  0.00    -0.285 N 
ATOM      4  H   UNL     1      -3.303   4.599   6.559  0.00  0.00    +0.155 HD
ENDROOT
BRANCH   3   5
ATOM      5  C   UNL     1      -4.842   5.201   7.964  0.00  0.00    +0.034 A 
ATOM      6  C   UNL     1      -5.079   6.472   7.456  0.00  0.00    +0.025 A 
ATOM      7  C   UNL     1      -5.791   7.390   8.203  0.00  0.00    +0.030 A 
ATOM      8  C   UNL     1      -6.259   7.049   9.458  0.00  0.00    +0.105 A 
ATOM      9  C   UNL     1      -6.020   5.787   9.969  0.00  0.00    +0.030 A 
ATOM     10  C   UNL     1      -5.313   4.862   9.226  0.00  0.00    +0.025 A 
BRANCH   8  11
ATOM     11  S   UNL     1      -7.162   8.226  10.410  0.00  0.00    +0.059 S 
ATOM     12  O   UNL     1      -7.721   9.151   9.488  0.00  0.00    -0.153 OA
ATOM     13  O   UNL     1      -7.958   7.484  11.323  0.00  0.00    -0.153 OA
BRANCH  11  14
ATOM     14  N   UNL     1      -6.062   9.069  11.317  0.00  0.00    -0.187 NA
ATOM     15  H   UNL     1      -5.979   8.858  12.393  0.00  0.00    +0.148 HD
BRANCH  14  16
ATOM     16  C   UNL     1      -5.069   9.921  10.658  0.00  0.00    +0.077 C 
ATOM     17  C   UNL     1      -3.767   9.137  10.473  0.00  0.00    +0.020 C 
ATOM     18  C   UNL     1      -2.730  10.027   9.786  0.00  0.00    +0.002 C 
ATOM     19  C   UNL     1      -2.464  11.261  10.649  0.00  0.00    +0.000 C 
ATOM     20  C   UNL     1      -3.765  12.045  10.835  0.00  0.00    +0.002 C 
ATOM     21  C   UNL     1      -4.802  11.155  11.522  0.00  0.00    +0.020 C 
ENDBRANCH  14  16
ENDBRANCH  11  14
ENDBRANCH   8  11
ENDBRANCH   3   5
BRANCH   1  22
ATOM     22  C   UNL     1      -3.744   1.966   6.385  0.00  0.00    +0.173 C 
BRANCH  22  23
ATOM     23  S   UNL     1      -4.388   0.305   6.709  0.00  0.00    -0.077 S 
BRANCH  23  28
ATOM     24  N   UNL     1      -3.481  -1.975   5.364  0.00  0.00    -0.295 N 
ATOM     25  C   UNL     1      -2.559  -2.244   4.391  0.00  0.00    +0.238 A 
ATOM     26  N   UNL     1      -2.003  -1.113   4.060  0.00  0.00    -0.124 NA
ATOM     27  N   UNL     1      -2.513  -0.153   4.746  0.00  0.00    -0.122 NA
ATOM     28  C   UNL     1      -3.423  -0.626   5.566  0.00  0.00    +0.193 A 
BRANCH  25  29
ATOM     29  C   UNL     1      -2.240  -3.599   3.812  0.00  0.00    +0.452 C 
ATOM     30  F   UNL     1      -1.034  -3.532   3.106  0.00  0.00    -0.163 F 
ATOM     31  F   UNL     1      -3.267  -3.989   2.946  0.00  0.00    -0.163 F 
ATOM     32  F   UNL     1      -2.124  -4.532   4.847  0.00  0.00    -0.163 F 
ENDBRANCH  25  29
BRANCH  24  33
ATOM     33  C   UNL     1      -4.350  -2.935   6.049  0.00  0.00    +0.152 C 
BRANCH  33  35
ATOM     34  C   UNL     1      -4.234  -3.364   8.450  0.00  0.00    +0.005 C 
ATOM     35  C   UNL     1      -3.653  -3.455   7.279  0.00  0.00    -0.013 C 
ENDBRANCH  33  35
ENDBRANCH  24  33
ENDBRANCH  23  28
ENDBRANCH  22  23
ENDBRANCH   1  22
TORSDOF 10
