REMARK  Name = ZINC09074441
REMARK  5 active torsions:
REMARK  status: ('A' for Active; 'I' for Inactive)
REMARK    1  A    between atoms: C_6  and  C_7
REMARK    2  A    between atoms: C_7  and  O_9
REMARK    3  A    between atoms: O_9  and  C_10
REMARK    4  A    between atoms: C_10  and  C_11
REMARK    5  A    between atoms: N_16  and  C_17
REMARK                            x       y       z     vdW  Elec       q    Type
REMARK                         _______ _______ _______ _____ _____    ______ ____
ROOT
ATOM      1  C   UNL     1       7.265   0.257  -0.086  0.00  0.00    +0.258 C 
ATOM      2  O   UNL     1       7.075   1.455  -0.075  0.00  0.00    -0.272 OA
ATOM      3  N   UNL     1       8.523  -0.226  -0.106  0.00  0.00    -0.237 N 
ATOM      4  C   UNL     1       9.570   0.622  -0.112  0.00  0.00    +0.306 C 
ATOM      5  O   UNL     1       9.380   1.823  -0.101  0.00  0.00    -0.252 OA
ATOM      6  N   UNL     1      10.828   0.139  -0.132  0.00  0.00    -0.294 N 
ATOM      7  H   UNL     1       8.674  -1.184  -0.115  0.00  0.00    +0.159 HD
ATOM      8  H   UNL     1      10.980  -0.819  -0.141  0.00  0.00    +0.151 HD
ENDROOT
BRANCH   6   9
ATOM      9  C   UNL     1      11.967   1.061  -0.138  0.00  0.00    +0.037 C 
ATOM     10  C   UNL     1      11.894   1.952  -1.380  0.00  0.00    +0.029 C 
ATOM     11  C   UNL     1      13.083   2.914  -1.387  0.00  0.00    -0.008 C 
ATOM     12  C   UNL     1      14.387   2.114  -1.409  0.00  0.00    +0.007 C 
ATOM     13  C   UNL     1      14.460   1.223  -0.168  0.00  0.00    -0.008 C 
ATOM     14  C   UNL     1      13.271   0.260  -0.161  0.00  0.00    +0.029 C 
ATOM     15  C   UNL     1      14.418   2.095   1.089  0.00  0.00    +0.007 C 
ATOM     16  C   UNL     1      13.114   2.895   1.111  0.00  0.00    -0.008 C 
ATOM     17  C   UNL     1      13.041   3.786  -0.131  0.00  0.00    +0.007 C 
ATOM     18  C   UNL     1      11.925   1.932   1.118  0.00  0.00    +0.029 C 
ENDBRANCH   6   9
BRANCH   1  19
ATOM     19  C   UNL     1       6.093  -0.691  -0.079  0.00  0.00    +0.328 C 
BRANCH  19  20
ATOM     20  O   UNL     1       4.856   0.069  -0.058  0.00  0.00    -0.452 OA
BRANCH  20  21
ATOM     21  C   UNL     1       3.706  -0.635  -0.050  0.00  0.00    +0.340 C 
ATOM     22  O   UNL     1       3.737  -1.850  -0.059  0.00  0.00    -0.245 OA
BRANCH  21  28
ATOM     23  C   UNL     1       2.378   1.467  -0.016  0.00  0.00    +0.016 A 
ATOM     24  C   UNL     1       1.166   2.122   0.002  0.00  0.00    +0.017 A 
ATOM     25  C   UNL     1      -0.017   1.396   0.010  0.00  0.00    +0.030 A 
ATOM     26  C   UNL     1       0.002  -0.004   0.002  0.00  0.00    +0.048 A 
ATOM     27  C   UNL     1       1.221  -0.662  -0.019  0.00  0.00    +0.039 A 
ATOM     28  C   UNL     1       2.412   0.069  -0.028  0.00  0.00    +0.061 A 
ATOM     29  N   UNL     1      -1.175  -0.748   0.021  0.00  0.00    -0.284 N 
ATOM     30  C   UNL     1      -2.379  -0.325  -0.354  0.00  0.00    +0.227 C 
ATOM     31  O   UNL     1      -3.307  -1.104  -0.288  0.00  0.00    -0.275 OA
ATOM     32  C   UNL     1      -2.655   1.066  -0.857  0.00  0.00    +0.170 C 
ATOM     33  S   UNL     1      -1.572   2.232   0.022  0.00  0.00    -0.114 S 
ATOM     34  H   UNL     1      -1.111  -1.663   0.337  0.00  0.00    +0.155 HD
ENDBRANCH  21  28
ENDBRANCH  20  21
ENDBRANCH  19  20
ENDBRANCH   1  19
TORSDOF 5
