REMARK  Name = ZINC11814506
REMARK  15 active torsions:
REMARK  status: ('A' for Active; 'I' for Inactive)
REMARK    1  A    between atoms: C_1  and  C_2
REMARK    2  A    between atoms: C_2  and  O_3
REMARK    3  A    between atoms: O_3  and  C_4
REMARK    4  A    between atoms: C_8  and  C_11
REMARK    5  A    between atoms: C_9  and  O_10
REMARK    6  A    between atoms: C_11  and  N_68
REMARK    7  A    between atoms: C_12  and  N_68
REMARK    8  A    between atoms: C_13  and  C_14
REMARK    9  A    between atoms: C_13  and  N_68
REMARK   10  A    between atoms: C_17  and  S_26
REMARK   11  A    between atoms: N_18  and  C_19
REMARK   12  A    between atoms: C_19  and  C_20
REMARK   13  A    between atoms: S_26  and  C_27
REMARK   14  A    between atoms: C_27  and  C_28
REMARK   15  A    between atoms: C_33  and  C_34
REMARK                            x       y       z     vdW  Elec       q    Type
REMARK                         _______ _______ _______ _____ _____    ______ ____
ROOT
ATOM      1  C   UNL     1      -1.046   1.223   3.598  0.00  0.00    +0.117 A 
ATOM      2  N   UNL     1      -0.913   2.233   4.411  0.00  0.00    -0.135 NA
ATOM      3  N   UNL     1      -1.837   2.205   5.304  0.00  0.00    -0.123 NA
ATOM      4  C   UNL     1      -2.610   1.162   5.113  0.00  0.00    +0.192 A 
ATOM      5  N   UNL     1      -2.130   0.502   4.019  0.00  0.00    -0.305 N 
ENDROOT
BRANCH   1   6
ATOM      6  C   UNL     1      -0.165   0.904   2.418  0.00  0.00    -0.001 C 
BRANCH   6   8
ATOM      7  C   UNL     1      -0.615   3.022   1.332  0.00  0.00    -0.095 C 
ATOM      8  N   UNL     1      -0.728   1.552   1.214  0.00  0.00    +0.385 N 
ATOM      9  H   UNL     1      -1.720   1.300   1.133  0.00  0.00    -0.081 HD
BRANCH   8  10
ATOM     10  C   UNL     1      -0.013   1.086   0.008  0.00  0.00    -0.039 C 
BRANCH  10  15
ATOM     11  C   UNL     1      -1.221   3.342  -2.781  0.00  0.00    +0.162 A 
ATOM     12  C   UNL     1      -2.084   2.497  -3.459  0.00  0.00    +0.049 A 
ATOM     13  C   UNL     1      -2.275   1.202  -3.014  0.00  0.00    +0.004 A 
ATOM     14  C   UNL     1      -1.605   0.747  -1.894  0.00  0.00    +0.005 A 
ATOM     15  C   UNL     1      -0.742   1.585  -1.213  0.00  0.00    -0.019 A 
ATOM     16  C   UNL     1      -0.551   2.886  -1.650  0.00  0.00    +0.160 A 
BRANCH  16  17
ATOM     17  O   UNL     1       0.293   3.714  -0.978  0.00  0.00    -0.503 OA
ATOM     18  H   UNL     1       1.207   3.684  -1.294  0.00  0.00    +0.292 HD
ENDBRANCH  16  17
BRANCH  11  19
ATOM     19  O   UNL     1      -1.033   4.616  -3.217  0.00  0.00    -0.489 OA
BRANCH  19  21
ATOM     20  C   UNL     1      -1.420   6.471  -4.717  0.00  0.00    +0.048 C 
ATOM     21  C   UNL     1      -1.758   5.017  -4.381  0.00  0.00    +0.226 C 
ENDBRANCH  19  21
ENDBRANCH  11  19
ENDBRANCH  10  15
ENDBRANCH   8  10
ENDBRANCH   6   8
ENDBRANCH   1   6
BRANCH   5  22
ATOM     22  C   UNL     1      -2.664  -0.723   3.419  0.00  0.00    +0.157 C 
BRANCH  22  23
ATOM     23  C   UNL     1      -1.994  -1.939   4.062  0.00  0.00    +0.138 C 
ATOM     24  C   UNL     1      -2.585  -3.248   3.480  0.00  0.00    +0.035 C 
ATOM     25  C   UNL     1      -1.412  -4.236   3.727  0.00  0.00    +0.031 C 
ATOM     26  C   UNL     1      -0.176  -3.331   3.537  0.00  0.00    +0.160 C 
ATOM     27  O   UNL     1      -0.598  -1.975   3.726  0.00  0.00    -0.375 OA
ENDBRANCH  22  23
ENDBRANCH   5  22
BRANCH   4  28
ATOM     28  S   UNL     1      -4.005   0.700   6.086  0.00  0.00    -0.081 S 
BRANCH  28  29
ATOM     29  C   UNL     1      -3.991   2.034   7.309  0.00  0.00    +0.112 C 
BRANCH  29  30
ATOM     30  C   UNL     1      -5.131   1.841   8.276  0.00  0.00    -0.034 A 
ATOM     31  C   UNL     1      -4.944   1.097   9.426  0.00  0.00    +0.005 A 
ATOM     32  C   UNL     1      -5.989   0.921  10.313  0.00  0.00    +0.000 A 
ATOM     33  C   UNL     1      -7.222   1.489  10.050  0.00  0.00    +0.000 A 
ATOM     34  C   UNL     1      -7.409   2.233   8.900  0.00  0.00    +0.003 A 
ATOM     35  C   UNL     1      -6.362   2.413   8.015  0.00  0.00    -0.046 A 
ATOM     36  C   UNL     1      -6.564   3.230   6.765  0.00  0.00    +0.044 C 
ENDBRANCH  29  30
ENDBRANCH  28  29
ENDBRANCH   4  28
TORSDOF 12
