REMARK  Name = ZINC40108054
REMARK  9 active torsions:
REMARK  status: ('A' for Active; 'I' for Inactive)
REMARK    1  A    between atoms: C_1  and  C_2
REMARK    2  A    between atoms: C_4  and  N_22
REMARK    3  A    between atoms: C_6  and  C_7
REMARK    4  A    between atoms: N_9  and  C_10
REMARK    5  A    between atoms: C_10  and  C_11
REMARK    6  A    between atoms: C_11  and  C_13
REMARK    7  A    between atoms: C_11  and  N_14
REMARK    8  A    between atoms: C_18  and  C_21
REMARK    9  A    between atoms: C_23  and  C_25
REMARK                            x       y       z     vdW  Elec       q    Type
REMARK                         _______ _______ _______ _____ _____    ______ ____
ROOT
ATOM      1  C   UNL     1       1.115   1.794   0.307  0.00  0.00    +0.045 C 
ATOM      2  C   UNL     1       0.925   0.304   0.191  0.00  0.00    -0.029 A 
ATOM      3  C   UNL     1       1.008  -0.348  -1.012  0.00  0.00    +0.035 A 
ATOM      4  C   UNL     1       0.822  -1.711  -1.037  0.00  0.00    +0.073 A 
ATOM      5  S   UNL     1       0.533  -2.114   0.568  0.00  0.00    -0.069 S 
ATOM      6  C   UNL     1       0.660  -0.493   1.297  0.00  0.00    +0.078 A 
ENDROOT
BRANCH   6   7
ATOM      7  C   UNL     1       0.519  -0.102   2.698  0.00  0.00    +0.251 C 
ATOM      8  O   UNL     1       0.637   1.067   3.018  0.00  0.00    -0.270 OA
ATOM      9  N   UNL     1       0.258  -1.035   3.635  0.00  0.00    -0.312 N 
ATOM     10  H   UNL     1       0.164  -1.966   3.379  0.00  0.00    +0.149 HD
BRANCH   9  11
ATOM     11  C   UNL     1       0.117  -0.643   5.039  0.00  0.00    +0.089 C 
BRANCH  11  12
ATOM     12  C   UNL     1      -0.041  -1.895   5.904  0.00  0.00    -0.054 C 
ATOM     13  C   UNL     1      -0.097  -1.492   7.379  0.00  0.00    -0.012 C 
BRANCH  12  14
ATOM     14  N   UNL     1       1.103  -2.790   5.684  0.00  0.00    +0.383 N 
ATOM     15  C   UNL     1       0.882  -4.050   6.404  0.00  0.00    -0.078 C 
ATOM     16  C   UNL     1       2.033  -5.016   6.113  0.00  0.00    -0.018 C 
ATOM     17  C   UNL     1       3.350  -4.387   6.575  0.00  0.00    -0.001 C 
ATOM     18  C   UNL     1       3.534  -3.038   5.873  0.00  0.00    -0.031 C 
ATOM     19  C   UNL     1       2.328  -2.145   6.173  0.00  0.00    -0.075 C 
ATOM     20  C   UNL     1       4.809  -2.365   6.385  0.00  0.00    +0.005 C 
ATOM     21  H   UNL     1       1.195  -2.980   4.698  0.00  0.00    -0.081 HD
ENDBRANCH  12  14
ENDBRANCH  11  12
ENDBRANCH   9  11
ENDBRANCH   6   7
BRANCH   4  22
ATOM     22  N   UNL     1       0.864  -2.558  -2.136  0.00  0.00    -0.273 N 
ATOM     23  C   UNL     1       0.656  -3.880  -1.976  0.00  0.00    +0.284 C 
ATOM     24  O   UNL     1       0.433  -4.331  -0.868  0.00  0.00    -0.266 OA
ATOM     25  H   UNL     1       1.042  -2.198  -3.019  0.00  0.00    +0.156 HD
BRANCH  23  26
ATOM     26  C   UNL     1       0.700  -4.775  -3.137  0.00  0.00    +0.189 A 
ATOM     27  C   UNL     1       0.503  -6.126  -3.116  0.00  0.00    +0.054 A 
ATOM     28  C   UNL     1       0.634  -6.573  -4.441  0.00  0.00    +0.042 A 
ATOM     29  C   UNL     1       0.902  -5.489  -5.202  0.00  0.00    +0.196 A 
ATOM     30  O   UNL     1       0.936  -4.406  -4.413  0.00  0.00    -0.458 OA
ENDBRANCH  23  26
ENDBRANCH   4  22
TORSDOF 6
