REMARK  Name = ZINC04865488
REMARK  5 active torsions:
REMARK  status: ('A' for Active; 'I' for Inactive)
REMARK    1  A    between atoms: C_1  and  C_2
REMARK    2  A    between atoms: C_5  and  S_8
REMARK    3  A    between atoms: S_8  and  N_11
REMARK    4  A    between atoms: C_24  and  C_31
REMARK    5  A    between atoms: C_27  and  C_30
REMARK                            x       y       z     vdW  Elec       q    Type
REMARK                         _______ _______ _______ _____ _____    ______ ____
ROOT
ATOM      1  N   UNL     1      -0.092   0.012  -0.283  0.00  0.00    -0.197 N 
ATOM      2  C   UNL     1      -0.064   1.391  -0.135  0.00  0.00    +0.179 A 
ATOM      3  C   UNL     1       1.163   2.087  -0.251  0.00  0.00    +0.164 A 
ATOM      4  N   UNL     1       1.203   3.396  -0.114  0.00  0.00    -0.227 NA
ATOM      5  C   UNL     1       0.074   4.074   0.139  0.00  0.00    +0.091 A 
ATOM      6  C   UNL     1       0.090   5.470   0.290  0.00  0.00    +0.030 A 
ATOM      7  C   UNL     1      -1.070   6.136   0.546  0.00  0.00    +0.002 A 
ATOM      8  C   UNL     1      -2.277   5.452   0.660  0.00  0.00    +0.002 A 
ATOM      9  C   UNL     1      -2.330   4.098   0.520  0.00  0.00    +0.030 A 
ATOM     10  C   UNL     1      -1.153   3.378   0.256  0.00  0.00    +0.091 A 
ATOM     11  N   UNL     1      -1.181   2.045   0.108  0.00  0.00    -0.226 NA
ATOM     12  N   UNL     1       2.331   1.386  -0.513  0.00  0.00    -0.308 N 
ATOM     13  C   UNL     1       3.299   1.547   0.582  0.00  0.00    +0.138 C 
ATOM     14  C   UNL     1       4.545   0.711   0.281  0.00  0.00    +0.133 C 
ATOM     15  O   UNL     1       5.086   1.108  -0.982  0.00  0.00    -0.371 OA
ATOM     16  C   UNL     1       4.170   0.963  -2.071  0.00  0.00    +0.133 C 
ATOM     17  C   UNL     1       2.920   1.802  -1.794  0.00  0.00    +0.138 C 
ATOM     18  C   UNL     1       3.777  -0.508  -2.216  0.00  0.00    +0.039 C 
ATOM     19  C   UNL     1       5.589   0.937   1.377  0.00  0.00    +0.039 C 
ATOM     20  H   UNL     1       0.738  -0.483  -0.367  0.00  0.00    +0.175 HD
ENDROOT
BRANCH   1  21
ATOM     21  S   UNL     1      -1.541  -0.788  -0.318  0.00  0.00    +0.074 S 
ATOM     22  O   UNL     1      -1.241  -2.164  -0.505  0.00  0.00    -0.150 OA
ATOM     23  O   UNL     1      -2.292  -0.316   0.792  0.00  0.00    -0.150 OA
BRANCH  21  28
ATOM     24  C   UNL     1      -4.465   1.028  -5.274  0.00  0.00    +0.044 C 
ATOM     25  C   UNL     1      -3.734   0.574  -4.036  0.00  0.00    -0.050 A 
ATOM     26  C   UNL     1      -2.893  -0.521  -4.092  0.00  0.00    +0.005 A 
ATOM     27  C   UNL     1      -2.224  -0.938  -2.957  0.00  0.00    +0.029 A 
ATOM     28  C   UNL     1      -2.395  -0.258  -1.765  0.00  0.00    +0.109 A 
ATOM     29  C   UNL     1      -3.239   0.835  -1.708  0.00  0.00    +0.029 A 
ATOM     30  C   UNL     1      -3.906   1.254  -2.845  0.00  0.00    +0.005 A 
ENDBRANCH  21  28
ENDBRANCH   1  21
TORSDOF 2
