REMARK  Name = ZINC25578565
REMARK  6 active torsions:
REMARK  status: ('A' for Active; 'I' for Inactive)
REMARK    1  A    between atoms: C_4  and  C_7
REMARK    2  A    between atoms: C_7  and  C_9
REMARK    3  A    between atoms: C_7  and  C_22
REMARK    4  A    between atoms: C_9  and  C_10
REMARK    5  A    between atoms: C_10  and  C_11
REMARK    6  A    between atoms: C_11  and  C_12
REMARK                            x       y       z     vdW  Elec       q    Type
REMARK                         _______ _______ _______ _____ _____    ______ ____
ROOT
ATOM      1  C   UNL     1       5.298  -3.235  -2.301  0.00  0.00    +0.046 C 
ENDROOT
BRANCH   1   2
ATOM      2  C   UNL     1       6.708  -3.750  -2.432  0.00  0.00    +0.081 A 
ATOM      3  C   UNL     1       7.661  -3.038  -3.153  0.00  0.00    +0.259 A 
ATOM      4  O   UNL     1       7.336  -1.880  -3.744  0.00  0.00    -0.267 OA
ATOM      5  N   UNL     1       8.914  -3.525  -3.250  0.00  0.00    -0.296 N 
ATOM      6  H   UNL     1       9.582  -3.033  -3.752  0.00  0.00    +0.172 HD
ATOM      7  C   UNL     1       9.243  -4.676  -2.664  0.00  0.00    +0.173 A 
ATOM      8  N   UNL     1       8.354  -5.381  -1.966  0.00  0.00    -0.296 N 
ATOM      9  C   UNL     1       7.086  -4.945  -1.828  0.00  0.00    +0.259 A 
ATOM     10  O   UNL     1       6.198  -5.657  -1.120  0.00  0.00    -0.267 OA
ATOM     11  N   UNL     1      10.523  -5.143  -2.782  0.00  0.00    -0.330 N 
ATOM     12  H   UNL     1      11.179  -4.638  -3.288  0.00  0.00    +0.145 HD
ATOM     13  H   UNL     1      10.774  -5.979  -2.360  0.00  0.00    +0.145 HD
ATOM     14  H   UNL     1       8.623  -6.216  -1.551  0.00  0.00    +0.172 HD
ENDBRANCH   1   2
BRANCH   1  15
ATOM     15  C   UNL     1       5.223  -2.243  -1.139  0.00  0.00    +0.006 C 
BRANCH  15  16
ATOM     16  C   UNL     1       3.791  -1.720  -1.008  0.00  0.00    +0.020 C 
BRANCH  16  17
ATOM     17  C   UNL     1       3.686  -0.827   0.230  0.00  0.00    +0.132 C 
BRANCH  17  21
ATOM     18  C   UNL     1       6.087   2.662  -0.326  0.00  0.00    +0.000 A 
ATOM     19  C   UNL     1       6.346   1.806   0.728  0.00  0.00    +0.000 A 
ATOM     20  C   UNL     1       5.569   0.677   0.908  0.00  0.00    +0.004 A 
ATOM     21  C   UNL     1       4.533   0.405   0.034  0.00  0.00    -0.034 A 
ATOM     22  C   UNL     1       4.273   1.261  -1.019  0.00  0.00    +0.004 A 
ATOM     23  C   UNL     1       5.051   2.390  -1.200  0.00  0.00    +0.000 A 
ENDBRANCH  17  21
BRANCH  17  24
ATOM     24  C   UNL     1       2.250  -0.421   0.437  0.00  0.00    +0.363 C 
ATOM     25  O   UNL     1       1.351  -1.109  -0.016  0.00  0.00    -0.246 OA
ATOM     26  O   UNL     1       1.986   0.595   1.058  0.00  0.00    -0.246 OA
ENDBRANCH  17  24
ENDBRANCH  16  17
ENDBRANCH  15  16
ENDBRANCH   1  15
TORSDOF 6
