REMARK  Name = ZINC38685715
REMARK  10 active torsions:
REMARK  status: ('A' for Active; 'I' for Inactive)
REMARK    1  A    between atoms: C_1  and  C_2
REMARK    2  A    between atoms: C_2  and  O_3
REMARK    3  A    between atoms: O_3  and  C_4
REMARK    4  A    between atoms: C_7  and  C_10
REMARK    5  A    between atoms: C_15  and  O_24
REMARK    6  A    between atoms: C_19  and  N_23
REMARK    7  A    between atoms: C_20  and  C_21
REMARK    8  A    between atoms: O_24  and  C_25
REMARK    9  A    between atoms: C_25  and  C_27
REMARK   10  A    between atoms: C_28  and  C_29
REMARK                            x       y       z     vdW  Elec       q    Type
REMARK                         _______ _______ _______ _____ _____    ______ ____
ROOT
ATOM      1  C   UNL     1       1.120  -6.005  -1.793  0.00  0.00    +0.098 C 
ATOM      2  C   UNL     1       2.572  -6.398  -1.860  0.00  0.00    +0.008 A 
ATOM      3  C   UNL     1       3.342  -6.356  -0.711  0.00  0.00    +0.012 A 
ATOM      4  C   UNL     1       4.675  -6.713  -0.754  0.00  0.00    +0.047 A 
ATOM      5  C   UNL     1       5.247  -7.117  -1.953  0.00  0.00    +0.135 A 
ATOM      6  C   UNL     1       4.479  -7.160  -3.104  0.00  0.00    +0.093 A 
ATOM      7  C   UNL     1       3.138  -6.800  -3.060  0.00  0.00    +0.138 A 
ATOM      8  O   UNL     1       2.400  -6.847  -4.196  0.00  0.00    -0.441 OA
ATOM      9  C   UNL     1       1.059  -6.887  -4.122  0.00  0.00    +0.199 C 
ATOM     10  C   UNL     1       0.394  -6.501  -3.011  0.00  0.00    +0.098 C 
ENDROOT
BRANCH   1  14
ATOM     11  C   UNL     1       0.815  -1.747  -1.596  0.00  0.00    +0.121 A 
ATOM     12  C   UNL     1       0.308  -2.528  -0.568  0.00  0.00    +0.046 A 
ATOM     13  C   UNL     1       0.407  -3.905  -0.634  0.00  0.00    +0.008 A 
ATOM     14  C   UNL     1       1.012  -4.503  -1.723  0.00  0.00    -0.034 A 
ATOM     15  C   UNL     1       1.519  -3.727  -2.749  0.00  0.00    +0.008 A 
ATOM     16  C   UNL     1       1.417  -2.351  -2.691  0.00  0.00    +0.046 A 
BRANCH  11  17
ATOM     17  O   UNL     1       0.718  -0.393  -1.534  0.00  0.00    -0.492 OA
BRANCH  17  19
ATOM     18  C   UNL     1       0.070   1.685  -0.484  0.00  0.00    +0.048 C 
ATOM     19  C   UNL     1       0.086   0.159  -0.377  0.00  0.00    +0.225 C 
ENDBRANCH  17  19
ENDBRANCH  11  17
ENDBRANCH   1  14
BRANCH   9  20
ATOM     20  N   UNL     1       0.345  -7.331  -5.207  0.00  0.00    -0.328 N 
ATOM     21  H   UNL     1       0.809  -7.611  -6.012  0.00  0.00    +0.145 HD
ATOM     22  H   UNL     1      -0.624  -7.365  -5.170  0.00  0.00    +0.145 HD
ENDBRANCH   9  20
BRANCH  10  23
ATOM     23  C   UNL     1      -1.037  -6.566  -2.998  0.00  0.00    +0.101 C 
ATOM     24  N   UNL     1      -2.171  -6.618  -2.987  0.00  0.00    -0.191 NA
ENDBRANCH  10  23
BRANCH   5  25
ATOM     25  O   UNL     1       6.559  -7.468  -1.996  0.00  0.00    -0.423 OA
BRANCH  25  26
ATOM     26  C   UNL     1       6.930  -8.610  -1.381  0.00  0.00    +0.337 C 
ATOM     27  O   UNL     1       6.087  -9.343  -0.900  0.00  0.00    -0.245 OA
BRANCH  26  28
ATOM     28  C   UNL     1       8.345  -8.966  -1.292  0.00  0.00    +0.092 C 
ATOM     29  C   UNL     1       8.716 -10.108  -0.676  0.00  0.00    +0.015 C 
BRANCH  29  30
ATOM     30  C   UNL     1      10.140 -10.467  -0.586  0.00  0.00    -0.025 A 
ATOM     31  C   UNL     1      11.113  -9.623  -1.133  0.00  0.00    +0.009 A 
ATOM     32  C   UNL     1      12.445  -9.965  -1.045  0.00  0.00    +0.020 A 
ATOM     33  C   UNL     1      12.822 -11.142  -0.418  0.00  0.00    +0.041 A 
ATOM     34  C   UNL     1      11.864 -11.982   0.126  0.00  0.00    +0.020 A 
ATOM     35  C   UNL     1      10.528 -11.650   0.052  0.00  0.00    +0.009 A 
ATOM     36 CL   UNL     1      14.502 -11.565  -0.312  0.00  0.00    -0.084 Cl
ENDBRANCH  29  30
ENDBRANCH  26  28
ENDBRANCH  25  26
ENDBRANCH   5  25
TORSDOF 9
