REMARK  Name = ZINC07832284
REMARK  8 active torsions:
REMARK  status: ('A' for Active; 'I' for Inactive)
REMARK    1  A    between atoms: C_1  and  C_2
REMARK    2  A    between atoms: C_14  and  C_15
REMARK    3  A    between atoms: C_15  and  O_17
REMARK    4  A    between atoms: O_17  and  C_18
REMARK    5  A    between atoms: C_18  and  C_19
REMARK    6  A    between atoms: N_21  and  C_22
REMARK    7  A    between atoms: C_25  and  C_28
REMARK    8  A    between atoms: C_28  and  C_29
REMARK                            x       y       z     vdW  Elec       q    Type
REMARK                         _______ _______ _______ _____ _____    ______ ____
ROOT
ATOM      1  C   UNL     1       1.176   2.076  -0.008  0.00  0.00    +0.376 C 
ATOM      2  O   UNL     1       2.204   1.428  -0.030  0.00  0.00    -0.241 OA
ENDROOT
BRANCH   1  16
ATOM      3  C   UNL     1       3.785   3.764  -0.038  0.00  0.00    +0.048 C 
ATOM      4  C   UNL     1       2.371   4.286  -0.010  0.00  0.00    +0.010 A 
ATOM      5  C   UNL     1       1.974   5.646   0.007  0.00  0.00    +0.025 A 
ATOM      6  C   UNL     1       2.689   6.861   0.005  0.00  0.00    +0.012 A 
ATOM      7  C   UNL     1       2.039   8.048   0.023  0.00  0.00    +0.009 A 
ATOM      8  C   UNL     1       0.628   8.088   0.047  0.00  0.00    -0.014 A 
ATOM      9  C   UNL     1      -0.057   9.312   0.068  0.00  0.00    +0.008 A 
ATOM     10  C   UNL     1      -1.420   9.324   0.089  0.00  0.00    +0.001 A 
ATOM     11  C   UNL     1      -2.146   8.137   0.093  0.00  0.00    +0.001 A 
ATOM     12  C   UNL     1      -1.513   6.930   0.074  0.00  0.00    +0.012 A 
ATOM     13  C   UNL     1      -0.111   6.881   0.051  0.00  0.00    +0.025 A 
ATOM     14  C   UNL     1       0.575   5.647   0.030  0.00  0.00    +0.144 A 
ATOM     15  O   UNL     1       0.164   4.366   0.021  0.00  0.00    -0.447 OA
ATOM     16  C   UNL     1       1.233   3.542   0.003  0.00  0.00    +0.216 A 
ENDBRANCH   1  16
BRANCH   1  17
ATOM     17  O   UNL     1      -0.017   1.448   0.007  0.00  0.00    -0.450 OA
BRANCH  17  18
ATOM     18  C   UNL     1       0.002  -0.004  -0.005  0.00  0.00    +0.328 C 
BRANCH  18  19
ATOM     19  C   UNL     1      -1.412  -0.526   0.015  0.00  0.00    +0.255 C 
ATOM     20  O   UNL     1      -2.344   0.250   0.036  0.00  0.00    -0.272 OA
ATOM     21  N   UNL     1      -1.640  -1.854   0.008  0.00  0.00    -0.283 N 
ATOM     22  H   UNL     1      -0.898  -2.473  -0.077  0.00  0.00    +0.155 HD
BRANCH  21  23
ATOM     23  C   UNL     1      -2.947  -2.340   0.123  0.00  0.00    +0.034 A 
ATOM     24  C   UNL     1      -3.192  -3.521   0.811  0.00  0.00    +0.023 A 
ATOM     25  C   UNL     1      -4.484  -3.994   0.929  0.00  0.00    +0.006 A 
ATOM     26  C   UNL     1      -5.532  -3.300   0.352  0.00  0.00    -0.034 A 
ATOM     27  C   UNL     1      -5.290  -2.126  -0.338  0.00  0.00    +0.006 A 
ATOM     28  C   UNL     1      -4.001  -1.644  -0.454  0.00  0.00    +0.023 A 
BRANCH  26  29
ATOM     29  C   UNL     1      -6.940  -3.822   0.477  0.00  0.00    +0.153 C 
BRANCH  29  30
ATOM     30  C   UNL     1      -7.234  -4.717  -0.655  0.00  0.00    +0.067 C 
ATOM     31  N   UNL     1      -7.460  -5.407  -1.528  0.00  0.00    -0.196 NA
ENDBRANCH  29  30
ENDBRANCH  26  29
ENDBRANCH  21  23
ENDBRANCH  18  19
ENDBRANCH  17  18
ENDBRANCH   1  17
TORSDOF 7
