REMARK  Name = ZINC55512330
REMARK  6 active torsions:
REMARK  status: ('A' for Active; 'I' for Inactive)
REMARK    1  A    between atoms: C_1  and  C_2
REMARK    2  A    between atoms: C_5  and  N_9
REMARK    3  A    between atoms: C_6  and  C_8
REMARK    4  A    between atoms: N_12  and  C_13
REMARK    5  A    between atoms: C_15  and  C_23
REMARK    6  A    between atoms: C_17  and  C_19
REMARK                            x       y       z     vdW  Elec       q    Type
REMARK                         _______ _______ _______ _____ _____    ______ ____
ROOT
ATOM      1  N   UNL     1      -0.751  -4.335  -0.085  0.00  0.00    -0.326 N 
ATOM      2  C   UNL     1      -0.541  -5.007  -1.261  0.00  0.00    +0.203 C 
ATOM      3  N   UNL     1      -0.388  -4.309  -2.430  0.00  0.00    -0.369 N 
ATOM      4  N   UNL     1      -0.485  -6.322  -1.268  0.00  0.00    -0.177 NA
ATOM      5  H   UNL     1      -1.203  -4.776   0.651  0.00  0.00    +0.169 HD
ATOM      6  H   UNL     1      -0.606  -3.365  -2.463  0.00  0.00    +0.159 HD
ATOM      7  H   UNL     1      -0.063  -4.760  -3.225  0.00  0.00    +0.159 HD
ENDROOT
BRANCH   1  12
ATOM      8  C   UNL     1       1.022   1.024   0.476  0.00  0.00    +0.044 C 
ATOM      9  C   UNL     1       0.551  -0.400   0.327  0.00  0.00    -0.050 A 
ATOM     10  C   UNL     1       1.115  -1.216  -0.637  0.00  0.00    +0.005 A 
ATOM     11  C   UNL     1       0.686  -2.521  -0.776  0.00  0.00    +0.026 A 
ATOM     12  C   UNL     1      -0.314  -3.014   0.053  0.00  0.00    +0.045 A 
ATOM     13  C   UNL     1      -0.878  -2.192   1.020  0.00  0.00    -0.027 A 
ATOM     14  C   UNL     1      -0.440  -0.889   1.158  0.00  0.00    +0.008 A 
ATOM     15  C   UNL     1      -1.962  -2.723   1.922  0.00  0.00    +0.046 C 
ENDBRANCH   1  12
BRANCH   4  16
ATOM     16  C   UNL     1      -0.466  -7.008  -0.092  0.00  0.00    +0.254 A 
ATOM     17  N   UNL     1      -0.366  -6.336   1.052  0.00  0.00    -0.207 NA
ATOM     18  C   UNL     1      -0.345  -6.974   2.209  0.00  0.00    +0.149 A 
ATOM     19  C   UNL     1      -0.429  -8.358   2.222  0.00  0.00    +0.064 A 
ATOM     20  C   UNL     1      -0.532  -9.030   1.013  0.00  0.00    +0.149 A 
ATOM     21  N   UNL     1      -0.553  -8.335  -0.112  0.00  0.00    -0.207 NA
BRANCH  20  22
ATOM     22  C   UNL     1      -0.624 -10.533   0.982  0.00  0.00    +0.434 C 
ATOM     23  F   UNL     1      -1.967 -10.919   1.040  0.00  0.00    -0.164 F 
ATOM     24  F   UNL     1      -0.052 -11.011  -0.202  0.00  0.00    -0.164 F 
ATOM     25  F   UNL     1       0.062 -11.065   2.079  0.00  0.00    -0.164 F 
ENDBRANCH  20  22
BRANCH  18  26
ATOM     26  C   UNL     1      -0.232  -6.205   3.501  0.00  0.00    +0.434 C 
ATOM     27  F   UNL     1      -0.345  -4.836   3.240  0.00  0.00    -0.164 F 
ATOM     28  F   UNL     1      -1.254  -6.601   4.370  0.00  0.00    -0.164 F 
ATOM     29  F   UNL     1       1.009  -6.467   4.091  0.00  0.00    -0.164 F 
ENDBRANCH  18  26
ENDBRANCH   4  16
TORSDOF 4
