REMARK  Name = ZINC06751418
REMARK  3 active torsions:
REMARK  status: ('A' for Active; 'I' for Inactive)
REMARK    1  A    between atoms: N_7  and  C_11
REMARK    2  A    between atoms: C_14  and  C_16
REMARK    3  A    between atoms: N_18  and  C_19
REMARK                            x       y       z     vdW  Elec       q    Type
REMARK                         _______ _______ _______ _____ _____    ______ ____
ROOT
ATOM      1  C   UNL     1      -0.024   2.057   2.301  0.00  0.00    +0.073 A 
ATOM      2  C   UNL     1      -0.526   2.635   3.449  0.00  0.00    +0.032 A 
ATOM      3  C   UNL     1       0.349   3.047   4.416  0.00  0.00    +0.022 A 
ATOM      4  C   UNL     1       1.703   2.864   4.169  0.00  0.00    +0.076 A 
ATOM      5  S   UNL     1       1.690   2.097   2.558  0.00  0.00    -0.069 S 
ENDROOT
BRANCH   1  12
ATOM      6  C   UNL     1       0.052   4.039  -1.412  0.00  0.00    +0.002 A 
ATOM      7  C   UNL     1      -0.408   3.381  -2.538  0.00  0.00    +0.004 A 
ATOM      8  C   UNL     1      -0.976   2.125  -2.428  0.00  0.00    +0.047 A 
ATOM      9  C   UNL     1      -1.085   1.519  -1.185  0.00  0.00    +0.142 A 
ATOM     10  C   UNL     1      -0.618   2.183  -0.054  0.00  0.00    +0.077 A 
ATOM     11  C   UNL     1      -0.051   3.442  -0.170  0.00  0.00    +0.027 A 
ATOM     12  N   UNL     1      -0.720   1.569   1.206  0.00  0.00    -0.289 N 
ATOM     13  C   UNL     1      -1.592   0.389   1.323  0.00  0.00    +0.152 C 
ATOM     14  C   UNL     1      -1.359  -0.486   0.082  0.00  0.00    +0.248 C 
ATOM     15  O   UNL     1      -1.648   0.285  -1.086  0.00  0.00    -0.489 OA
ENDBRANCH   1  12
BRANCH   4  16
ATOM     16  C   UNL     1       2.811   3.199   4.986  0.00  0.00    +0.251 C 
ATOM     17  O   UNL     1       2.631   3.724   6.071  0.00  0.00    -0.270 OA
ATOM     18  N   UNL     1       4.064   2.938   4.564  0.00  0.00    -0.308 N 
ATOM     19  H   UNL     1       4.207   2.520   3.700  0.00  0.00    +0.149 HD
BRANCH  18  20
ATOM     20  C   UNL     1       5.209   3.285   5.409  0.00  0.00    +0.073 C 
ATOM     21  C   UNL     1       5.562   4.770   5.188  0.00  0.00    +0.022 C 
ATOM     22  C   UNL     1       6.353   5.255   6.373  0.00  0.00    +0.002 C 
ATOM     23  C   UNL     1       7.874   5.157   6.144  0.00  0.00    +0.000 C 
ATOM     24  C   UNL     1       8.290   3.848   5.446  0.00  0.00    +0.000 C 
ATOM     25  C   UNL     1       7.551   2.651   5.979  0.00  0.00    +0.002 C 
ATOM     26  C   UNL     1       6.318   2.399   5.087  0.00  0.00    +0.022 C 
ENDBRANCH  18  20
ENDBRANCH   4  16
TORSDOF 3
