REMARK  Name = ZINC61055567
REMARK  11 active torsions:
REMARK  status: ('A' for Active; 'I' for Inactive)
REMARK    1  A    between atoms: C_1  and  C_2
REMARK    2  A    between atoms: C_2  and  C_3
REMARK    3  A    between atoms: C_3  and  C_4
REMARK    4  A    between atoms: C_3  and  C_5
REMARK    5  A    between atoms: C_5  and  C_6
REMARK    6  A    between atoms: C_5  and  N_10
REMARK    7  A    between atoms: C_6  and  O_8
REMARK    8  A    between atoms: O_8  and  C_9
REMARK    9  A    between atoms: C_11  and  C_13
REMARK   10  A    between atoms: C_20  and  C_24
REMARK   11  A    between atoms: C_21  and  C_23
REMARK                            x       y       z     vdW  Elec       q    Type
REMARK                         _______ _______ _______ _____ _____    ______ ____
ROOT
ATOM      1  N   UNL     1      -0.031  -0.948  -3.825  0.00  0.00    -0.298 N 
ATOM      2  C   UNL     1      -0.418  -2.238  -3.865  0.00  0.00    +0.245 C 
ATOM      3  O   UNL     1      -0.811  -2.786  -2.854  0.00  0.00    -0.270 OA
ATOM      4  H   UNL     1       0.283  -0.510  -4.632  0.00  0.00    +0.150 HD
ENDROOT
BRANCH   2   5
ATOM      5  C   UNL     1      -0.365  -2.987  -5.139  0.00  0.00    +0.039 A 
ATOM      6  C   UNL     1       0.097  -2.349  -6.304  0.00  0.00    +0.015 A 
ATOM      7  C   UNL     1       0.155  -3.015  -7.485  0.00  0.00    +0.030 A 
ATOM      8  C   UNL     1      -0.249  -4.362  -7.556  0.00  0.00    +0.090 A 
ATOM      9  C   UNL     1      -0.716  -5.016  -6.388  0.00  0.00    +0.090 A 
ATOM     10  C   UNL     1      -0.764  -4.312  -5.174  0.00  0.00    +0.043 A 
ATOM     11  N   UNL     1      -1.099  -6.296  -6.456  0.00  0.00    -0.249 NA
ATOM     12  C   UNL     1      -1.038  -6.934  -7.602  0.00  0.00    +0.060 A 
ATOM     13  C   UNL     1      -0.578  -6.290  -8.753  0.00  0.00    +0.060 A 
ATOM     14  N   UNL     1      -0.198  -5.033  -8.712  0.00  0.00    -0.249 NA
ATOM     15  C   UNL     1      -0.517  -7.045 -10.056  0.00  0.00    +0.067 C 
ATOM     16  C   UNL     1      -1.470  -8.376  -7.676  0.00  0.00    +0.067 C 
ENDBRANCH   2   5
BRANCH   1  17
ATOM     17  C   UNL     1      -0.083  -0.206  -2.563  0.00  0.00    +0.185 C 
BRANCH  17  18
ATOM     18  C   UNL     1       1.198  -0.463  -1.766  0.00  0.00    +0.017 C 
ATOM     19  C   UNL     1       2.413  -0.143  -2.639  0.00  0.00    +0.010 C 
BRANCH  18  21
ATOM     20  C   UNL     1       0.115  -2.214  -0.351  0.00  0.00    +0.004 C 
ATOM     21  C   UNL     1       1.247  -1.931  -1.340  0.00  0.00    +0.002 C 
ENDBRANCH  18  21
ENDBRANCH  17  18
BRANCH  17  22
ATOM     22  C   UNL     1      -0.209   1.268  -2.851  0.00  0.00    +0.328 C 
ATOM     23  O   UNL     1       0.206   1.717  -3.893  0.00  0.00    -0.249 OA
BRANCH  22  24
ATOM     24  O   UNL     1      -0.782   2.082  -1.950  0.00  0.00    -0.467 OA
ATOM     25  C   UNL     1      -0.884   3.464  -2.298  0.00  0.00    +0.280 C 
ENDBRANCH  22  24
ENDBRANCH  17  22
ENDBRANCH   1  17
TORSDOF 6
