REMARK  Name = ZINC12855532
REMARK  4 active torsions:
REMARK  status: ('A' for Active; 'I' for Inactive)
REMARK    1  A    between atoms: C_5  and  N_7
REMARK    2  A    between atoms: C_8  and  C_10
REMARK    3  A    between atoms: C_12  and  N_22
REMARK    4  A    between atoms: C_15  and  N_16
REMARK                            x       y       z     vdW  Elec       q    Type
REMARK                         _______ _______ _______ _____ _____    ______ ____
ROOT
ATOM      1  C   UNL     1       1.252   1.965   0.016  0.00  0.00    +0.060 A 
ATOM      2  C   UNL     1       1.239   3.363   0.029  0.00  0.00    +0.047 A 
ATOM      3  C   UNL     1       2.426   4.061   0.031  0.00  0.00    +0.127 A 
ATOM      4  C   UNL     1       3.636   3.386   0.021  0.00  0.00    +0.034 A 
ATOM      5  C   UNL     1       3.666   2.006   0.009  0.00  0.00    +0.026 A 
ATOM      6  C   UNL     1       2.479   1.284   0.012  0.00  0.00    +0.042 A 
ENDROOT
BRANCH   6   7
ATOM      7  N   UNL     1       2.507  -0.104   0.006  0.00  0.00    -0.325 N 
ATOM      8  C   UNL     1       3.128  -0.624   1.233  0.00  0.00    +0.133 C 
ATOM      9  C   UNL     1       3.084  -2.155   1.211  0.00  0.00    +0.178 C 
ATOM     10  O   UNL     1       3.737  -2.629   0.031  0.00  0.00    -0.377 OA
ATOM     11  C   UNL     1       3.158  -2.142  -1.183  0.00  0.00    +0.178 C 
ATOM     12  C   UNL     1       3.203  -0.612  -1.186  0.00  0.00    +0.133 C 
ENDBRANCH   6   7
BRANCH   1  14
ATOM     13  N   UNL     1      -1.191   1.870   0.018  0.00  0.00    -0.281 N 
ATOM     14  C   UNL     1      -0.015   1.212   0.014  0.00  0.00    +0.250 C 
ATOM     15  O   UNL     1       0.002  -0.004   0.003  0.00  0.00    -0.270 OA
ATOM     16  H   UNL     1      -1.205   2.837   0.093  0.00  0.00    +0.155 HD
BRANCH  13  21
ATOM     17  C   UNL     1      -3.697  -0.793   0.399  0.00  0.00    +0.002 A 
ATOM     18  C   UNL     1      -4.764  -0.248  -0.291  0.00  0.00    +0.001 A 
ATOM     19  C   UNL     1      -4.649   0.997  -0.880  0.00  0.00    +0.016 A 
ATOM     20  C   UNL     1      -3.465   1.703  -0.779  0.00  0.00    +0.035 A 
ATOM     21  C   UNL     1      -2.391   1.159  -0.086  0.00  0.00    +0.047 A 
ATOM     22  C   UNL     1      -2.509  -0.095   0.499  0.00  0.00    +0.024 A 
ATOM     23  I   UNL     1      -3.289   3.590  -1.672  0.00  0.00    -0.042 I 
ENDBRANCH  13  21
ENDBRANCH   1  14
BRANCH   3  24
ATOM     24  N   UNL     1       2.409   5.541   0.044  0.00  0.00    +0.056 N 
ATOM     25  O   UNL     1       1.347   6.138   0.052  0.00  0.00    -0.126 OA
ATOM     26  O   UNL     1       3.457   6.162   0.046  0.00  0.00    -0.126 OA
ENDBRANCH   3  24
TORSDOF 4
