REMARK  Name = ZINC03459203
REMARK  13 active torsions:
REMARK  status: ('A' for Active; 'I' for Inactive)
REMARK    1  A    between atoms: C_1  and  C_2
REMARK    2  A    between atoms: C_2  and  N_3
REMARK    3  A    between atoms: N_3  and  C_4
REMARK    4  A    between atoms: N_3  and  S_10
REMARK    5  A    between atoms: S_10  and  C_13
REMARK    6  A    between atoms: C_17  and  C_19
REMARK    7  A    between atoms: C_19  and  O_21
REMARK    8  A    between atoms: O_21  and  C_22
REMARK    9  A    between atoms: C_22  and  C_23
REMARK   10  A    between atoms: N_28  and  C_29
REMARK   11  A    between atoms: C_29  and  C_30
REMARK   12  A    between atoms: C_29  and  C_31
REMARK   13  A    between atoms: C_29  and  C_32
REMARK                            x       y       z     vdW  Elec       q    Type
REMARK                         _______ _______ _______ _____ _____    ______ ____
ROOT
ATOM      1  C   UNL     1       0.368  -0.245   1.967  0.00  0.00    +0.109 A 
ATOM      2  C   UNL     1      -0.684  -0.361   2.858  0.00  0.00    +0.029 A 
ATOM      3  C   UNL     1      -0.440  -0.565   4.204  0.00  0.00    +0.003 A 
ATOM      4  C   UNL     1       0.857  -0.654   4.667  0.00  0.00    +0.015 A 
ATOM      5  C   UNL     1       1.923  -0.538   3.774  0.00  0.00    +0.061 A 
ATOM      6  C   UNL     1       1.669  -0.337   2.416  0.00  0.00    +0.043 A 
ENDROOT
BRANCH   1   7
ATOM      7  S   UNL     1       0.045   0.015   0.254  0.00  0.00    +0.075 S 
ATOM      8  O   UNL     1      -1.262  -0.485   0.007  0.00  0.00    -0.150 OA
ATOM      9  O   UNL     1       1.186  -0.455  -0.450  0.00  0.00    -0.150 OA
BRANCH   7  10
ATOM     10  N   UNL     1      -0.020   1.652   0.011  0.00  0.00    -0.203 N 
BRANCH  10  11
ATOM     11  C   UNL     1      -1.253   2.309   0.010  0.00  0.00    +0.051 A 
ATOM     12  C   UNL     1      -1.508   3.311   0.938  0.00  0.00    +0.025 A 
ATOM     13  C   UNL     1      -2.726   3.962   0.931  0.00  0.00    +0.002 A 
ATOM     14  C   UNL     1      -3.695   3.610   0.008  0.00  0.00    +0.000 A 
ATOM     15  C   UNL     1      -3.446   2.610  -0.913  0.00  0.00    +0.002 A 
ATOM     16  C   UNL     1      -2.228   1.958  -0.915  0.00  0.00    +0.025 A 
ENDBRANCH  10  11
BRANCH  10  18
ATOM     17  C   UNL     1       1.457   2.564  -1.712  0.00  0.00    +0.026 C 
ATOM     18  C   UNL     1       1.214   2.409  -0.209  0.00  0.00    +0.128 C 
ENDBRANCH  10  18
ENDBRANCH   7  10
ENDBRANCH   1   7
BRANCH   5  19
ATOM     19  C   UNL     1       3.314  -0.632   4.263  0.00  0.00    +0.340 C 
ATOM     20  O   UNL     1       4.240  -0.531   3.483  0.00  0.00    -0.245 OA
BRANCH  19  21
ATOM     21  O   UNL     1       3.556  -0.831   5.573  0.00  0.00    -0.452 OA
BRANCH  21  22
ATOM     22  C   UNL     1       4.946  -0.914   5.981  0.00  0.00    +0.328 C 
BRANCH  22  23
ATOM     23  C   UNL     1       5.020  -1.137   7.470  0.00  0.00    +0.258 C 
ATOM     24  O   UNL     1       4.001  -1.218   8.122  0.00  0.00    -0.272 OA
ATOM     25  N   UNL     1       6.219  -1.247   8.076  0.00  0.00    -0.237 N 
ATOM     26  C   UNL     1       6.285  -1.446   9.408  0.00  0.00    +0.306 C 
ATOM     27  O   UNL     1       5.263  -1.527  10.061  0.00  0.00    -0.252 OA
ATOM     28  N   UNL     1       7.483  -1.555  10.014  0.00  0.00    -0.294 N 
ATOM     29  H   UNL     1       7.034  -1.182   7.555  0.00  0.00    +0.159 HD
ATOM     30  H   UNL     1       8.299  -1.490   9.492  0.00  0.00    +0.151 HD
BRANCH  28  31
ATOM     31  C   UNL     1       7.555  -1.772  11.461  0.00  0.00    +0.028 C 
ATOM     32  C   UNL     1       6.840  -3.077  11.818  0.00  0.00    +0.031 C 
ATOM     33  C   UNL     1       9.021  -1.859  11.892  0.00  0.00    +0.031 C 
ATOM     34  C   UNL     1       6.879  -0.606  12.186  0.00  0.00    +0.031 C 
ENDBRANCH  28  31
ENDBRANCH  22  23
ENDBRANCH  21  22
ENDBRANCH  19  21
ENDBRANCH   5  19
TORSDOF 9
