REMARK  Name = ZINC08922840
REMARK  10 active torsions:
REMARK  status: ('A' for Active; 'I' for Inactive)
REMARK    1  A    between atoms: C_1  and  C_2
REMARK    2  A    between atoms: C_2  and  C_3
REMARK    3  A    between atoms: C_2  and  N_58
REMARK    4  A    between atoms: C_11  and  O_32
REMARK    5  A    between atoms: C_13  and  C_16
REMARK    6  A    between atoms: C_19  and  O_24
REMARK    7  A    between atoms: C_20  and  O_22
REMARK    8  A    between atoms: O_22  and  C_23
REMARK    9  A    between atoms: O_24  and  C_25
REMARK   10  A    between atoms: C_25  and  C_27
REMARK                            x       y       z     vdW  Elec       q    Type
REMARK                         _______ _______ _______ _____ _____    ______ ____
ROOT
ATOM      1  C   UNL     1      -1.265  -0.509   0.190  0.00  0.00    -0.073 C 
ATOM      2  C   UNL     1      -1.309  -1.987  -0.209  0.00  0.00    +0.018 C 
ATOM      3  C   UNL     1      -0.225  -2.723   0.571  0.00  0.00    -0.027 A 
ATOM      4  C   UNL     1       0.783  -2.026   1.149  0.00  0.00    -0.021 A 
ATOM      5  S   UNL     1       1.793  -3.253   1.932  0.00  0.00    -0.080 S 
ATOM      6  C   UNL     1       0.901  -4.648   1.500  0.00  0.00    +0.080 A 
ATOM      7  C   UNL     1      -0.180  -4.161   0.753  0.00  0.00    +0.067 A 
ATOM      8  C   UNL     1      -1.142  -5.161   0.221  0.00  0.00    +0.220 C 
ATOM      9  N   UNL     1      -1.047  -6.387   0.655  0.00  0.00    -0.223 NA
ATOM     10  C   UNL     1      -0.127  -6.831   1.695  0.00  0.00    +0.224 C 
ATOM     11  N   UNL     1       1.082  -5.987   1.747  0.00  0.00    -0.313 N 
ATOM     12  C   UNL     1       0.974  -0.543   1.114  0.00  0.00    -0.035 C 
ATOM     13  H   UNL     1       1.956  -6.358   1.944  0.00  0.00    +0.149 HD
ATOM     14  N   UNL     1       0.113   0.000   0.035  0.00  0.00    +0.384 N 
ATOM     15  H   UNL     1       0.483  -0.305  -0.873  0.00  0.00    -0.081 HD
ENDROOT
BRANCH  10  16
ATOM     16  C   UNL     1      -0.825  -6.770   3.029  0.00  0.00    -0.002 A 
ATOM     17  C   UNL     1      -0.096  -6.527   4.178  0.00  0.00    +0.011 A 
ATOM     18  C   UNL     1      -0.732  -6.469   5.404  0.00  0.00    +0.050 A 
ATOM     19  C   UNL     1      -2.103  -6.656   5.483  0.00  0.00    +0.173 A 
ATOM     20  C   UNL     1      -2.837  -6.901   4.326  0.00  0.00    +0.163 A 
ATOM     21  C   UNL     1      -2.194  -6.951   3.099  0.00  0.00    +0.056 A 
BRANCH  20  22
ATOM     22  O   UNL     1      -4.182  -7.084   4.398  0.00  0.00    -0.491 OA
ATOM     23  C   UNL     1      -4.870  -7.331   3.170  0.00  0.00    +0.277 C 
ENDBRANCH  20  22
BRANCH  19  24
ATOM     24  O   UNL     1      -2.731  -6.600   6.688  0.00  0.00    -0.416 OA
BRANCH  24  25
ATOM     25  C   UNL     1      -3.008  -7.775   7.289  0.00  0.00    +0.380 C 
ATOM     26  O   UNL     1      -2.612  -8.816   6.801  0.00  0.00    -0.241 OA
BRANCH  25  27
ATOM     27  C   UNL     1      -3.786  -7.798   8.530  0.00  0.00    +0.212 A 
ATOM     28  C   UNL     1      -4.136  -8.912   9.238  0.00  0.00    +0.056 A 
ATOM     29  C   UNL     1      -4.872  -8.470  10.348  0.00  0.00    +0.042 A 
ATOM     30  C   UNL     1      -4.938  -7.123  10.271  0.00  0.00    +0.196 A 
ATOM     31  O   UNL     1      -4.278  -6.721   9.177  0.00  0.00    -0.456 OA
ENDBRANCH  25  27
ENDBRANCH  24  25
ENDBRANCH  19  24
ENDBRANCH  10  16
BRANCH  14  33
ATOM     32  C   UNL     1       1.561   1.978   0.069  0.00  0.00    -0.014 C 
ATOM     33  C   UNL     1       0.115   1.478   0.082  0.00  0.00    -0.074 C 
ATOM     34  C   UNL     1      -0.621   2.014  -1.148  0.00  0.00    -0.014 C 
ENDBRANCH  14  33
BRANCH   8  35
ATOM     35  O   UNL     1      -2.085  -4.811  -0.684  0.00  0.00    -0.492 OA
ATOM     36  H   UNL     1      -2.656  -5.541  -0.960  0.00  0.00    +0.294 HD
ENDBRANCH   8  35
TORSDOF 7
