REMARK  Name = ZINC20891285
REMARK  2 active torsions:
REMARK  status: ('A' for Active; 'I' for Inactive)
REMARK    1  A    between atoms: C_1  and  C_2
REMARK    2  A    between atoms: C_21  and  C_23
REMARK                            x       y       z     vdW  Elec       q    Type
REMARK                         _______ _______ _______ _____ _____    ______ ____
ROOT
ATOM      1  C   UNL     1       2.330  -0.497   2.310  0.00  0.00    +0.068 C 
ATOM      2  C   UNL     1       1.758  -1.885   2.449  0.00  0.00    +0.067 A 
ATOM      3  C   UNL     1       1.035  -2.578   1.454  0.00  0.00    +0.033 A 
ATOM      4  C   UNL     1       0.698  -3.786   1.955  0.00  0.00    +0.136 A 
ATOM      5  N   UNL     1       1.198  -3.843   3.239  0.00  0.00    -0.193 N 
ATOM      6  N   UNL     1       1.852  -2.640   3.505  0.00  0.00    -0.168 NA
ATOM      7  C   UNL     1       1.071  -4.914   4.117  0.00  0.00    +0.196 A 
ATOM      8  N   UNL     1       0.467  -6.063   3.931  0.00  0.00    -0.221 NA
ATOM      9  C   UNL     1       0.424  -7.023   4.879  0.00  0.00    +0.081 A 
ATOM     10  C   UNL     1      -0.185  -8.297   4.805  0.00  0.00    +0.029 A 
ATOM     11  C   UNL     1      -0.141  -9.157   5.871  0.00  0.00    +0.002 A 
ATOM     12  C   UNL     1       0.499  -8.815   7.053  0.00  0.00    +0.001 A 
ATOM     13  C   UNL     1       1.106  -7.577   7.161  0.00  0.00    +0.017 A 
ATOM     14  C   UNL     1       1.067  -6.708   6.099  0.00  0.00    +0.041 A 
ATOM     15  S   UNL     1       1.684  -5.071   5.789  0.00  0.00    -0.048 S 
ATOM     16  N   UNL     1       0.006  -4.842   1.415  0.00  0.00    -0.269 N 
ATOM     17  C   UNL     1      -0.605  -5.059   0.289  0.00  0.00    +0.228 C 
ATOM     18  O   UNL     1      -1.201  -6.114   0.228  0.00  0.00    -0.275 OA
ATOM     19  C   UNL     1      -0.690  -4.226  -0.928  0.00  0.00    +0.166 C 
ATOM     20  S   UNL     1      -0.833  -2.470  -0.567  0.00  0.00    -0.138 S 
ATOM     21  C   UNL     1       0.752  -1.974   0.114  0.00  0.00    +0.115 C 
ATOM     22  H   UNL     1      -0.116  -5.771   1.991  0.00  0.00    +0.156 HD
ENDROOT
BRANCH  21  23
ATOM     23  C   UNL     1       0.774  -0.473   0.246  0.00  0.00    +0.005 A 
ATOM     24  C   UNL     1      -0.206   0.171   0.977  0.00  0.00    +0.008 A 
ATOM     25  C   UNL     1      -0.187   1.548   1.098  0.00  0.00    +0.000 A 
ATOM     26  C   UNL     1       0.814   2.282   0.489  0.00  0.00    +0.003 A 
ATOM     27  C   UNL     1       1.794   1.641  -0.243  0.00  0.00    +0.038 A 
ATOM     28  C   UNL     1       1.776   0.261  -0.365  0.00  0.00    +0.128 A 
ATOM     29  F   UNL     1       2.734  -0.367  -1.081  0.00  0.00    -0.205 F 
ENDBRANCH  21  23
TORSDOF 1
