REMARK  Name = ZINC40019673
REMARK  16 active torsions:
REMARK  status: ('A' for Active; 'I' for Inactive)
REMARK    1  A    between atoms: C_1  and  C_2
REMARK    2  A    between atoms: C_2  and  C_3
REMARK    3  A    between atoms: C_3  and  C_4
REMARK    4  A    between atoms: C_4  and  N_5
REMARK    5  A    between atoms: N_5  and  C_6
REMARK    6  A    between atoms: N_5  and  C_10
REMARK    7  A    between atoms: C_6  and  C_7
REMARK    8  A    between atoms: C_7  and  C_8
REMARK    9  A    between atoms: C_8  and  C_9
REMARK   10  A    between atoms: C_10  and  C_11
REMARK   11  A    between atoms: C_11  and  C_12
REMARK   12  A    between atoms: C_12  and  N_13
REMARK   13  A    between atoms: C_14  and  C_33
REMARK   14  A    between atoms: C_16  and  C_21
REMARK   15  A    between atoms: C_21  and  C_23
REMARK   16  A    between atoms: C_36  and  C_38
REMARK                            x       y       z     vdW  Elec       q    Type
REMARK                         _______ _______ _______ _____ _____    ______ ____
ROOT
ATOM      1  N   UNL     1      -2.485  -6.240  -3.265  0.00  0.00    -0.281 N 
ATOM      2  C   UNL     1      -3.337  -6.710  -2.167  0.00  0.00    +0.180 C 
ATOM      3  C   UNL     1      -4.707  -6.934  -2.764  0.00  0.00    +0.079 C 
ATOM      4  C   UNL     1      -4.618  -6.616  -4.077  0.00  0.00    +0.249 C 
ATOM      5  C   UNL     1      -3.238  -6.181  -4.378  0.00  0.00    +0.288 C 
ATOM      6  O   UNL     1      -2.842  -5.826  -5.471  0.00  0.00    -0.266 OA
ATOM      7  O   UNL     1      -5.632  -6.682  -4.970  0.00  0.00    -0.282 OA
ENDROOT
BRANCH   2   8
ATOM      8  C   UNL     1      -2.797  -8.000  -1.607  0.00  0.00    +0.130 A 
ATOM      9  C   UNL     1      -2.817  -8.365  -0.313  0.00  0.00    +0.047 A 
ATOM     10  C   UNL     1      -2.210  -9.640  -0.237  0.00  0.00    +0.045 A 
ATOM     11  C   UNL     1      -1.856  -9.977  -1.490  0.00  0.00    +0.102 A 
ATOM     12  O   UNL     1      -2.219  -8.983  -2.316  0.00  0.00    -0.463 OA
ATOM     13  C   UNL     1      -1.172 -11.257  -1.898  0.00  0.00    +0.086 C 
ENDBRANCH   2   8
BRANCH   3  14
ATOM     14  C   UNL     1      -5.902  -7.406  -2.058  0.00  0.00    +0.195 C 
ATOM     15  O   UNL     1      -6.385  -8.489  -2.334  0.00  0.00    -0.287 OA
BRANCH  14  16
ATOM     16  C   UNL     1      -6.520  -6.568  -1.012  0.00  0.00    +0.026 A 
ATOM     17  C   UNL     1      -6.046  -5.274  -0.779  0.00  0.00    +0.015 A 
ATOM     18  C   UNL     1      -6.624  -4.495   0.198  0.00  0.00    +0.050 A 
ATOM     19  C   UNL     1      -7.680  -4.990   0.956  0.00  0.00    +0.162 A 
ATOM     20  C   UNL     1      -8.159  -6.279   0.727  0.00  0.00    +0.163 A 
ATOM     21  C   UNL     1      -7.585  -7.064  -0.255  0.00  0.00    +0.061 A 
ATOM     22  O   UNL     1      -9.196  -6.775   1.456  0.00  0.00    -0.485 OA
ATOM     23  C   UNL     1      -9.507  -6.096   2.678  0.00  0.00    +0.270 C 
ATOM     24  C   UNL     1      -9.525  -4.587   2.398  0.00  0.00    +0.270 C 
ATOM     25  O   UNL     1      -8.232  -4.205   1.918  0.00  0.00    -0.485 OA
ENDBRANCH  14  16
ENDBRANCH   3  14
BRANCH   1  26
ATOM     26  C   UNL     1      -1.065  -5.891  -3.166  0.00  0.00    +0.107 C 
BRANCH  26  27
ATOM     27  C   UNL     1      -0.928  -4.407  -2.818  0.00  0.00    +0.000 C 
BRANCH  27  28
ATOM     28  C   UNL     1       0.554  -4.042  -2.714  0.00  0.00    -0.077 C 
BRANCH  28  29
ATOM     29  N   UNL     1       0.685  -2.618  -2.381  0.00  0.00    +0.380 N 
ATOM     30  H   UNL     1       0.182  -2.065  -3.058  0.00  0.00    -0.082 HD
BRANCH  29  31
ATOM     31  C   UNL     1       0.131  -2.375  -1.042  0.00  0.00    -0.079 C 
BRANCH  31  32
ATOM     32  C   UNL     1       0.137  -0.873  -0.752  0.00  0.00    -0.019 C 
BRANCH  32  34
ATOM     33  C   UNL     1      -0.559   0.894   0.872  0.00  0.00    +0.004 C 
ATOM     34  C   UNL     1      -0.566  -0.608   0.581  0.00  0.00    -0.005 C 
ENDBRANCH  32  34
ENDBRANCH  31  32
ENDBRANCH  29  31
BRANCH  29  35
ATOM     35  C   UNL     1       2.105  -2.239  -2.398  0.00  0.00    -0.079 C 
BRANCH  35  36
ATOM     36  C   UNL     1       2.646  -2.355  -3.825  0.00  0.00    -0.019 C 
BRANCH  36  37
ATOM     37  C   UNL     1       4.082  -1.831  -3.870  0.00  0.00    -0.005 C 
ATOM     38  C   UNL     1       4.623  -1.947  -5.296  0.00  0.00    +0.004 C 
ENDBRANCH  36  37
ENDBRANCH  35  36
ENDBRANCH  29  35
ENDBRANCH  28  29
ENDBRANCH  27  28
ENDBRANCH  26  27
ENDBRANCH   1  26
TORSDOF 13
