REMARK  Name = ZINC62828896
REMARK  11 active torsions:
REMARK  status: ('A' for Active; 'I' for Inactive)
REMARK    1  A    between atoms: C_1  and  C_2
REMARK    2  A    between atoms: C_2  and  C_3
REMARK    3  A    between atoms: C_3  and  C_4
REMARK    4  A    between atoms: C_3  and  C_6
REMARK    5  A    between atoms: C_3  and  N_8
REMARK    6  A    between atoms: C_4  and  C_5
REMARK    7  A    between atoms: C_6  and  O_7
REMARK    8  A    between atoms: N_11  and  C_12
REMARK    9  A    between atoms: C_13  and  C_19
REMARK   10  A    between atoms: C_14  and  C_18
REMARK   11  A    between atoms: C_15  and  C_17
REMARK                            x       y       z     vdW  Elec       q    Type
REMARK                         _______ _______ _______ _____ _____    ______ ____
ROOT
ATOM      1  N   UNL     1       2.077   0.091   1.294  0.00  0.00    -0.291 N 
ATOM      2  C   UNL     1       2.949  -0.115   0.287  0.00  0.00    +0.305 C 
ATOM      3  O   UNL     1       2.628  -0.800  -0.664  0.00  0.00    -0.252 OA
ATOM      4  N   UNL     1       4.176   0.439   0.335  0.00  0.00    -0.263 N 
ATOM      5  H   UNL     1       2.333   0.638   2.053  0.00  0.00    +0.151 HD
ATOM      6  H   UNL     1       4.433   0.986   1.094  0.00  0.00    +0.157 HD
ENDROOT
BRANCH   4   7
ATOM      7  C   UNL     1       5.072   0.227  -0.699  0.00  0.00    +0.088 A 
ATOM      8  C   UNL     1       6.372   0.709  -0.817  0.00  0.00    +0.095 A 
ATOM      9  C   UNL     1       7.092   0.331  -2.013  0.00  0.00    -0.025 A 
ATOM     10  C   UNL     1       6.422  -0.447  -2.881  0.00  0.00    -0.008 A 
ATOM     11  S   UNL     1       4.843  -0.675  -2.095  0.00  0.00    -0.078 S 
ATOM     12  C   UNL     1       6.898  -0.999  -4.200  0.00  0.00    +0.052 C 
ATOM     13  C   UNL     1       8.507   0.783  -2.271  0.00  0.00    +0.045 C 
BRANCH   8  14
ATOM     14  C   UNL     1       6.958   1.527   0.181  0.00  0.00    +0.389 C 
ATOM     15  O   UNL     1       6.317   1.827   1.181  0.00  0.00    -0.240 OA
ATOM     16  O   UNL     1       8.105   1.934   0.043  0.00  0.00    -0.240 OA
ENDBRANCH   8  14
ENDBRANCH   4   7
BRANCH   1  17
ATOM     17  C   UNL     1       0.742  -0.511   1.242  0.00  0.00    +0.059 C 
BRANCH  17  19
ATOM     18  C   UNL     1      -0.019   1.526   0.010  0.00  0.00    +0.006 C 
ATOM     19  C   UNL     1       0.002  -0.004   0.002  0.00  0.00    +0.025 C 
ENDBRANCH  17  19
BRANCH  17  20
ATOM     20  C   UNL     1      -0.042  -0.124   2.497  0.00  0.00    +0.025 C 
ATOM     21  C   UNL     1      -1.435  -0.752   2.443  0.00  0.00    +0.006 C 
ENDBRANCH  17  20
BRANCH  17  22
ATOM     22  C   UNL     1       0.872  -2.034   1.171  0.00  0.00    +0.181 C 
BRANCH  22  23
ATOM     23  O   UNL     1       1.563  -2.507   2.329  0.00  0.00    -0.393 OA
ATOM     24  H   UNL     1       1.682  -3.466   2.351  0.00  0.00    +0.209 HD
ENDBRANCH  22  23
ENDBRANCH  17  22
ENDBRANCH   1  17
TORSDOF 7
