REMARK  Name = ZINC04597222
REMARK  7 active torsions:
REMARK  status: ('A' for Active; 'I' for Inactive)
REMARK    1  A    between atoms: C_1  and  C_2
REMARK    2  A    between atoms: C_2  and  C_3
REMARK    3  A    between atoms: C_2  and  C_4
REMARK    4  A    between atoms: C_2  and  C_5
REMARK    5  A    between atoms: C_12  and  N_26
REMARK    6  A    between atoms: C_13  and  C_24
REMARK    7  A    between atoms: C_14  and  C_16
REMARK                            x       y       z     vdW  Elec       q    Type
REMARK                         _______ _______ _______ _____ _____    ______ ____
ROOT
ATOM      1  C   UNL     1       0.767  -0.481  -1.994  0.00  0.00    +0.049 A 
ATOM      2  C   UNL     1       0.858  -1.767  -2.367  0.00  0.00    +0.050 A 
ATOM      3  C   UNL     1       1.564  -1.822  -3.588  0.00  0.00    +0.245 A 
ATOM      4  N   UNL     1       1.879  -0.605  -3.926  0.00  0.00    -0.135 NA
ATOM      5  N   UNL     1       1.385   0.264  -2.940  0.00  0.00    -0.277 N 
ATOM      6  H   UNL     1       1.472   1.230  -2.937  0.00  0.00    +0.189 HD
ATOM      7  O   UNL     1       1.821  -2.998  -4.221  0.00  0.00    -0.421 OA
ATOM      8  C   UNL     1       1.622  -4.134  -3.523  0.00  0.00    +0.201 C 
ATOM      9  C   UNL     1       0.953  -4.207  -2.354  0.00  0.00    +0.098 C 
ATOM     10  C   UNL     1       0.337  -3.005  -1.683  0.00  0.00    +0.106 C 
ENDROOT
BRANCH  10  11
ATOM     11  C   UNL     1      -1.164  -3.065  -1.813  0.00  0.00    +0.019 A 
ATOM     12  C   UNL     1      -1.757  -2.926  -3.057  0.00  0.00    +0.129 A 
ATOM     13  C   UNL     1      -3.135  -2.982  -3.175  0.00  0.00    +0.039 A 
ATOM     14  C   UNL     1      -3.918  -3.175  -2.053  0.00  0.00    +0.004 A 
ATOM     15  C   UNL     1      -3.326  -3.314  -0.811  0.00  0.00    +0.020 A 
ATOM     16  C   UNL     1      -1.948  -3.265  -0.692  0.00  0.00    +0.048 A 
ATOM     17 CL   UNL     1      -1.205  -3.446   0.866  0.00  0.00    -0.083 Cl
ATOM     18  F   UNL     1      -0.992  -2.737  -4.154  0.00  0.00    -0.205 F 
ENDBRANCH  10  11
BRANCH   1  20
ATOM     19  C   UNL     1       0.352   1.542  -0.623  0.00  0.00    +0.017 C 
ATOM     20  C   UNL     1       0.095   0.040  -0.751  0.00  0.00    +0.004 C 
ATOM     21  C   UNL     1       0.660  -0.681   0.475  0.00  0.00    +0.017 C 
ATOM     22  C   UNL     1      -1.411  -0.214  -0.841  0.00  0.00    +0.017 C 
ENDBRANCH   1  20
BRANCH   8  23
ATOM     23  N   UNL     1       2.136  -5.298  -4.039  0.00  0.00    -0.328 N 
ATOM     24  H   UNL     1       2.623  -5.284  -4.878  0.00  0.00    +0.145 HD
ATOM     25  H   UNL     1       2.012  -6.135  -3.564  0.00  0.00    +0.145 HD
ENDBRANCH   8  23
BRANCH   9  26
ATOM     26  C   UNL     1       0.823  -5.484  -1.720  0.00  0.00    +0.101 C 
ATOM     27  N   UNL     1       0.720  -6.497  -1.217  0.00  0.00    -0.191 NA
ENDBRANCH   9  26
TORSDOF 4
