REMARK  Name = ZINC58892788
REMARK  12 active torsions:
REMARK  status: ('A' for Active; 'I' for Inactive)
REMARK    1  A    between atoms: C_1  and  C_2
REMARK    2  A    between atoms: C_2  and  O_3
REMARK    3  A    between atoms: O_3  and  C_4
REMARK    4  A    between atoms: C_7  and  C_10
REMARK    5  A    between atoms: C_10  and  C_12
REMARK    6  A    between atoms: C_10  and  O_34
REMARK    7  A    between atoms: C_12  and  C_13
REMARK    8  A    between atoms: C_13  and  C_14
REMARK    9  A    between atoms: N_16  and  N_17
REMARK   10  A    between atoms: C_18  and  C_19
REMARK   11  A    between atoms: C_22  and  C_24
REMARK   12  A    between atoms: C_27  and  N_31
REMARK                            x       y       z     vdW  Elec       q    Type
REMARK                         _______ _______ _______ _____ _____    ______ ____
ROOT
ATOM      1  C   UNL     1      -0.979  -8.522  -3.882  0.00  0.00    +0.232 C 
ATOM      2  O   UNL     1      -1.689  -7.720  -4.443  0.00  0.00    -0.274 OA
ATOM      3  N   UNL     1      -1.132  -9.839  -4.120  0.00  0.00    -0.207 N 
ATOM      4  H   UNL     1      -0.562 -10.483  -3.670  0.00  0.00    +0.177 HD
ENDROOT
BRANCH   3   5
ATOM      5  N   UNL     1      -2.035 -10.245  -4.948  0.00  0.00    -0.185 NA
ATOM      6  C   UNL     1      -2.185 -11.542  -5.182  0.00  0.00    +0.176 C 
BRANCH   6   7
ATOM      7  C   UNL     1      -3.157 -11.979  -6.073  0.00  0.00    +0.148 A 
ATOM      8  C   UNL     1      -3.438 -13.378  -6.423  0.00  0.00    +0.051 A 
ATOM      9  C   UNL     1      -4.457 -13.357  -7.320  0.00  0.00    +0.050 A 
ATOM     10  C   UNL     1      -4.810 -11.954  -7.528  0.00  0.00    +0.137 A 
ATOM     11  O   UNL     1      -4.010 -11.192  -6.761  0.00  0.00    -0.454 OA
BRANCH  10  12
ATOM     12  C   UNL     1      -5.827 -11.476  -8.390  0.00  0.00    +0.031 A 
ATOM     13  C   UNL     1      -5.896 -11.926  -9.723  0.00  0.00    +0.015 A 
ATOM     14  C   UNL     1      -6.879 -11.460 -10.547  0.00  0.00    +0.033 A 
ATOM     15  C   UNL     1      -7.813 -10.546 -10.080  0.00  0.00    +0.127 A 
ATOM     16  C   UNL     1      -7.761 -10.092  -8.772  0.00  0.00    +0.048 A 
ATOM     17  C   UNL     1      -6.782 -10.552  -7.919  0.00  0.00    +0.031 A 
ATOM     18 BR   UNL     1      -6.713  -9.942  -6.130  0.00  0.00    -0.049 Br
BRANCH  15  19
ATOM     19  N   UNL     1      -8.873 -10.051 -10.987  0.00  0.00    +0.056 N 
ATOM     20  O   UNL     1      -8.928 -10.478 -12.232  0.00  0.00    -0.126 OA
ATOM     21  O   UNL     1      -9.762  -9.183 -10.550  0.00  0.00    -0.126 OA
ENDBRANCH  15  19
ENDBRANCH  10  12
ENDBRANCH   6   7
ENDBRANCH   3   5
BRANCH   1  22
ATOM     22  C   UNL     1       0.076  -8.048  -2.916  0.00  0.00    +0.100 C 
BRANCH  22  23
ATOM     23  C   UNL     1       0.038  -6.521  -2.828  0.00  0.00    +0.045 C 
BRANCH  23  24
ATOM     24  C   UNL     1       1.109  -6.040  -1.847  0.00  0.00    +0.145 C 
BRANCH  24  28
ATOM     25  C   UNL     1       0.777  -1.810  -1.336  0.00  0.00    +0.121 A 
ATOM     26  C   UNL     1       0.243  -2.669  -0.386  0.00  0.00    +0.046 A 
ATOM     27  C   UNL     1       0.351  -4.036  -0.554  0.00  0.00    +0.010 A 
ATOM     28  C   UNL     1       0.992  -4.548  -1.667  0.00  0.00    -0.019 A 
ATOM     29  C   UNL     1       1.525  -3.694  -2.615  0.00  0.00    +0.010 A 
ATOM     30  C   UNL     1       1.414  -2.327  -2.455  0.00  0.00    +0.046 A 
BRANCH  25  31
ATOM     31  O   UNL     1       0.671  -0.465  -1.174  0.00  0.00    -0.492 OA
BRANCH  31  33
ATOM     32  C   UNL     1      -0.019   1.526   0.010  0.00  0.00    +0.048 C 
ATOM     33  C   UNL     1       0.002  -0.004   0.002  0.00  0.00    +0.225 C 
ENDBRANCH  31  33
ENDBRANCH  25  31
ENDBRANCH  24  28
BRANCH  24  34
ATOM     34  O   UNL     1       2.404  -6.357  -2.362  0.00  0.00    -0.387 OA
ATOM     35  H   UNL     1       2.597  -5.950  -3.218  0.00  0.00    +0.210 HD
ENDBRANCH  24  34
ENDBRANCH  23  24
ENDBRANCH  22  23
ENDBRANCH   1  22
TORSDOF 11
