REMARK  Name = ZINC01817732
REMARK  13 active torsions:
REMARK  status: ('A' for Active; 'I' for Inactive)
REMARK    1  A    between atoms: C_1  and  C_2
REMARK    2  A    between atoms: C_2  and  N_3
REMARK    3  A    between atoms: N_3  and  C_4
REMARK    4  A    between atoms: N_3  and  C_6
REMARK    5  A    between atoms: C_4  and  C_5
REMARK    6  A    between atoms: C_9  and  C_13
REMARK    7  A    between atoms: C_10  and  O_12
REMARK    8  A    between atoms: N_14  and  N_15
REMARK    9  A    between atoms: C_16  and  C_18
REMARK   10  A    between atoms: C_18  and  S_19
REMARK   11  A    between atoms: S_19  and  C_20
REMARK   12  A    between atoms: C_23  and  C_31
REMARK   13  A    between atoms: N_24  and  C_25
REMARK                            x       y       z     vdW  Elec       q    Type
REMARK                         _______ _______ _______ _____ _____    ______ ____
ROOT
ATOM      1  C   UNL     1      10.441  -2.679   3.006  0.00  0.00    +0.174 C 
ENDROOT
BRANCH   1   3
ATOM      2  N   UNL     1       8.298  -1.998   1.975  0.00  0.00    -0.206 N 
ATOM      3  C   UNL     1       8.952  -2.449   3.063  0.00  0.00    +0.242 C 
ATOM      4  O   UNL     1       8.343  -2.671   4.089  0.00  0.00    -0.273 OA
ATOM      5  H   UNL     1       8.784  -1.821   1.155  0.00  0.00    +0.177 HD
BRANCH   2   7
ATOM      6  C   UNL     1       6.283  -1.350   0.980  0.00  0.00    +0.142 C 
ATOM      7  N   UNL     1       6.914  -1.784   2.028  0.00  0.00    -0.188 NA
BRANCH   6  11
ATOM      8  C   UNL     1       2.088  -0.703   1.140  0.00  0.00    +0.033 A 
ATOM      9  C   UNL     1       2.788  -0.449  -0.036  0.00  0.00    +0.024 A 
ATOM     10  C   UNL     1       4.148  -0.657  -0.091  0.00  0.00    +0.015 A 
ATOM     11  C   UNL     1       4.829  -1.125   1.036  0.00  0.00    +0.036 A 
ATOM     12  C   UNL     1       4.123  -1.381   2.220  0.00  0.00    +0.127 A 
ATOM     13  C   UNL     1       2.757  -1.163   2.267  0.00  0.00    +0.069 A 
BRANCH  12  14
ATOM     14  O   UNL     1       4.778  -1.836   3.319  0.00  0.00    -0.506 OA
ATOM     15  H   UNL     1       5.106  -1.135   3.900  0.00  0.00    +0.292 HD
ENDBRANCH  12  14
BRANCH   8  16
ATOM     16  N   UNL     1       0.711  -0.489   1.189  0.00  0.00    -0.330 N 
BRANCH  16  18
ATOM     17  C   UNL     1      -0.019   1.526   0.010  0.00  0.00    +0.024 C 
ATOM     18  C   UNL     1       0.002  -0.004   0.002  0.00  0.00    +0.102 C 
ENDBRANCH  16  18
BRANCH  16  19
ATOM     19  C   UNL     1      -0.028  -0.750   2.427  0.00  0.00    +0.102 C 
ATOM     20  C   UNL     1      -0.511  -2.202   2.437  0.00  0.00    +0.024 C 
ENDBRANCH  16  19
ENDBRANCH   8  16
ENDBRANCH   6  11
ENDBRANCH   2   7
ENDBRANCH   1   3
BRANCH   1  21
ATOM     21  S   UNL     1      11.022  -3.282   4.615  0.00  0.00    -0.076 S 
BRANCH  21  22
ATOM     22  C   UNL     1      12.755  -3.499   4.388  0.00  0.00    +0.197 A 
ATOM     23  N   UNL     1      13.434  -3.260   3.288  0.00  0.00    -0.122 NA
ATOM     24  N   UNL     1      14.678  -3.526   3.469  0.00  0.00    -0.128 NA
ATOM     25  C   UNL     1      14.873  -3.952   4.696  0.00  0.00    +0.169 A 
ATOM     26  N   UNL     1      13.648  -3.943   5.326  0.00  0.00    -0.270 N 
BRANCH  25  27
ATOM     27  C   UNL     1      16.164  -4.359   5.290  0.00  0.00    +0.020 A 
ATOM     28  C   UNL     1      16.189  -5.084   6.482  0.00  0.00    +0.013 A 
ATOM     29  C   UNL     1      17.396  -5.461   7.032  0.00  0.00    +0.021 A 
ATOM     30  C   UNL     1      18.582  -5.121   6.403  0.00  0.00    +0.041 A 
ATOM     31  C   UNL     1      18.564  -4.402   5.220  0.00  0.00    +0.021 A 
ATOM     32  C   UNL     1      17.363  -4.025   4.658  0.00  0.00    +0.013 A 
ATOM     33 CL   UNL     1      20.098  -5.599   7.101  0.00  0.00    -0.084 Cl
ENDBRANCH  25  27
BRANCH  26  34
ATOM     34  C   UNL     1      13.372  -4.313   6.649  0.00  0.00    +0.051 A 
ATOM     35  C   UNL     1      13.893  -3.572   7.702  0.00  0.00    +0.026 A 
ATOM     36  C   UNL     1      13.620  -3.940   9.005  0.00  0.00    +0.002 A 
ATOM     37  C   UNL     1      12.830  -5.045   9.262  0.00  0.00    +0.000 A 
ATOM     38  C   UNL     1      12.310  -5.785   8.216  0.00  0.00    +0.002 A 
ATOM     39  C   UNL     1      12.574  -5.418   6.911  0.00  0.00    +0.026 A 
ENDBRANCH  26  34
ENDBRANCH  21  22
ENDBRANCH   1  21
TORSDOF 11
