REMARK  Name = ZINC13132410
REMARK  9 active torsions:
REMARK  status: ('A' for Active; 'I' for Inactive)
REMARK    1  A    between atoms: C_1  and  C_2
REMARK    2  A    between atoms: N_5  and  C_7
REMARK    3  A    between atoms: C_12  and  C_14
REMARK    4  A    between atoms: C_12  and  C_15
REMARK    5  A    between atoms: C_21  and  C_23
REMARK    6  A    between atoms: C_26  and  O_29
REMARK    7  A    between atoms: O_29  and  C_30
REMARK    8  A    between atoms: C_30  and  C_31
REMARK    9  A    between atoms: C_30  and  C_32
REMARK                            x       y       z     vdW  Elec       q    Type
REMARK                         _______ _______ _______ _____ _____    ______ ____
ROOT
ATOM      1  C   UNL     1      -0.421   1.677  -0.160  0.00  0.00    +0.068 C 
ATOM      2  C   UNL     1      -0.418   0.174  -0.059  0.00  0.00    +0.066 A 
ATOM      3  C   UNL     1      -0.229  -0.722  -1.133  0.00  0.00    +0.032 A 
ATOM      4  C   UNL     1      -0.295  -1.977  -0.640  0.00  0.00    +0.128 A 
ATOM      5  N   UNL     1      -0.516  -1.869   0.707  0.00  0.00    -0.247 N 
ATOM      6  N   UNL     1      -0.583  -0.515   1.033  0.00  0.00    -0.174 NA
ATOM      7  N   UNL     1      -0.185  -3.207  -1.244  0.00  0.00    -0.270 N 
ATOM      8  C   UNL     1       0.063  -3.618  -2.451  0.00  0.00    +0.228 C 
ATOM      9  O   UNL     1       0.181  -4.819  -2.567  0.00  0.00    -0.275 OA
ATOM     10  C   UNL     1       0.225  -2.854  -3.706  0.00  0.00    +0.166 C 
ATOM     11  S   UNL     1       1.102  -1.301  -3.474  0.00  0.00    -0.138 S 
ATOM     12  C   UNL     1      -0.002  -0.244  -2.534  0.00  0.00    +0.112 C 
ATOM     13  H   UNL     1      -0.326  -3.940  -0.623  0.00  0.00    +0.156 HD
ENDROOT
BRANCH   5  14
ATOM     14  C   UNL     1      -0.653  -2.985   1.647  0.00  0.00    +0.114 C 
ATOM     15  C   UNL     1       0.435  -2.888   2.720  0.00  0.00    +0.055 C 
ATOM     16  C   UNL     1       0.236  -4.012   3.741  0.00  0.00    +0.162 C 
ATOM     17  O   UNL     1      -1.073  -3.913   4.307  0.00  0.00    -0.374 OA
ATOM     18  C   UNL     1      -2.131  -4.044   3.356  0.00  0.00    +0.066 C 
ATOM     19  C   UNL     1      -2.028  -2.923   2.319  0.00  0.00    +0.061 C 
ATOM     20  C   UNL     1      -3.478  -3.951   4.076  0.00  0.00    +0.041 C 
ATOM     21  C   UNL     1      -2.021  -5.399   2.654  0.00  0.00    +0.041 C 
ENDBRANCH   5  14
BRANCH  12  22
ATOM     22  C   UNL     1       0.584   1.143  -2.482  0.00  0.00    -0.030 A 
ATOM     23  C   UNL     1       1.793   1.359  -1.848  0.00  0.00    +0.008 A 
ATOM     24  C   UNL     1       2.332   2.630  -1.799  0.00  0.00    +0.046 A 
ATOM     25  C   UNL     1       1.659   3.691  -2.388  0.00  0.00    +0.121 A 
ATOM     26  C   UNL     1       0.446   3.472  -3.024  0.00  0.00    +0.046 A 
ATOM     27  C   UNL     1      -0.086   2.198  -3.074  0.00  0.00    +0.008 A 
BRANCH  25  28
ATOM     28  O   UNL     1       2.187   4.942  -2.341  0.00  0.00    -0.489 OA
BRANCH  28  29
ATOM     29  C   UNL     1       1.385   6.004  -2.861  0.00  0.00    +0.167 C 
ATOM     30  C   UNL     1       1.797   7.323  -2.203  0.00  0.00    +0.051 C 
ATOM     31  C   UNL     1       1.589   6.104  -4.374  0.00  0.00    +0.051 C 
ENDBRANCH  28  29
ENDBRANCH  25  28
ENDBRANCH  12  22
TORSDOF 4
