REMARK  Name = ZINC43666985
REMARK  7 active torsions:
REMARK  status: ('A' for Active; 'I' for Inactive)
REMARK    1  A    between atoms: C_1  and  C_2
REMARK    2  A    between atoms: C_2  and  C_4
REMARK    3  A    between atoms: C_2  and  N_13
REMARK    4  A    between atoms: C_7  and  C_10
REMARK    5  A    between atoms: C_10  and  C_11
REMARK    6  A    between atoms: C_10  and  C_12
REMARK    7  A    between atoms: C_14  and  N_19
REMARK                            x       y       z     vdW  Elec       q    Type
REMARK                         _______ _______ _______ _____ _____    ______ ____
ROOT
ATOM      1  C   UNL     1      -0.019   1.526   0.010  0.00  0.00    +0.038 C 
ATOM      2  C   UNL     1       0.002  -0.004   0.002  0.00  0.00    +0.136 C 
ENDROOT
BRANCH   2   3
ATOM      3  C   UNL     1      -1.412  -0.526   0.013  0.00  0.00    -0.023 A 
ATOM      4  C   UNL     1      -2.259  -0.204   1.056  0.00  0.00    +0.006 A 
ATOM      5  C   UNL     1      -3.556  -0.683   1.066  0.00  0.00    +0.004 A 
ATOM      6  C   UNL     1      -4.006  -1.482   0.032  0.00  0.00    -0.045 A 
ATOM      7  C   UNL     1      -3.159  -1.803  -1.012  0.00  0.00    +0.004 A 
ATOM      8  C   UNL     1      -1.863  -1.321  -1.024  0.00  0.00    +0.006 A 
BRANCH   6   9
ATOM      9  C   UNL     1      -5.419  -2.005   0.043  0.00  0.00    +0.013 C 
ATOM     10  C   UNL     1      -6.158  -1.503  -1.199  0.00  0.00    +0.012 C 
ATOM     11  C   UNL     1      -5.397  -3.534   0.041  0.00  0.00    +0.012 C 
ENDBRANCH   6   9
ENDBRANCH   2   3
BRANCH   2  12
ATOM     12  N   UNL     1       0.711  -0.489   1.189  0.00  0.00    -0.243 N 
ATOM     13  C   UNL     1       1.833  -1.254   1.194  0.00  0.00    +0.128 A 
ATOM     14  C   UNL     1       2.166  -1.483   2.494  0.00  0.00    +0.072 A 
ATOM     15  C   UNL     1       1.220  -0.841   3.298  0.00  0.00    +0.150 A 
ATOM     16  N   UNL     1       0.354  -0.242   2.521  0.00  0.00    -0.176 NA
ATOM     17  I   UNL     1       3.804  -2.601   3.170  0.00  0.00    -0.039 I 
BRANCH  13  18
ATOM     18  N   UNL     1       2.518  -1.718   0.074  0.00  0.00    -0.342 N 
ATOM     19  H   UNL     1       2.199  -1.499  -0.816  0.00  0.00    +0.144 HD
ATOM     20  H   UNL     1       3.315  -2.261   0.183  0.00  0.00    +0.144 HD
ENDBRANCH  13  18
ENDBRANCH   2  12
TORSDOF 4
