REMARK  Name = ZINC03367328
REMARK  11 active torsions:
REMARK  status: ('A' for Active; 'I' for Inactive)
REMARK    1  A    between atoms: C_1  and  C_2
REMARK    2  A    between atoms: C_2  and  C_3
REMARK    3  A    between atoms: C_3  and  C_4
REMARK    4  A    between atoms: C_4  and  C_6
REMARK    5  A    between atoms: C_4  and  C_28
REMARK    6  A    between atoms: C_6  and  N_7
REMARK    7  A    between atoms: C_8  and  C_10
REMARK    8  A    between atoms: C_10  and  O_11
REMARK    9  A    between atoms: O_11  and  C_12
REMARK   10  A    between atoms: C_12  and  C_14
REMARK   11  A    between atoms: C_14  and  N_15
REMARK                            x       y       z     vdW  Elec       q    Type
REMARK                         _______ _______ _______ _____ _____    ______ ____
ROOT
ATOM      1  C   UNL     1      -3.260   3.076   3.093  0.00  0.00    +0.327 C 
ENDROOT
BRANCH   1   3
ATOM      2  N   UNL     1      -5.119   4.071   4.387  0.00  0.00    -0.312 N 
ATOM      3  C   UNL     1      -4.586   3.788   3.182  0.00  0.00    +0.251 C 
ATOM      4  O   UNL     1      -5.173   4.106   2.169  0.00  0.00    -0.272 OA
ATOM      5  H   UNL     1      -4.650   3.816   5.197  0.00  0.00    +0.149 HD
BRANCH   2   6
ATOM      6  C   UNL     1      -6.408   4.762   4.473  0.00  0.00    +0.112 C 
BRANCH   6   7
ATOM      7  C   UNL     1      -6.783   4.959   5.943  0.00  0.00    +0.038 C 
BRANCH   7   8
ATOM      8  C   UNL     1      -8.163   5.559   6.033  0.00  0.00    -0.024 A 
ATOM      9  C   UNL     1      -8.420   6.791   5.460  0.00  0.00    +0.007 A 
ATOM     10  C   UNL     1      -9.686   7.339   5.537  0.00  0.00    +0.020 A 
ATOM     11  C   UNL     1     -10.695   6.660   6.199  0.00  0.00    +0.042 A 
ATOM     12  C   UNL     1     -10.437   5.431   6.777  0.00  0.00    +0.040 A 
ATOM     13  C   UNL     1      -9.170   4.880   6.695  0.00  0.00    +0.046 A 
ATOM     14 CL   UNL     1      -8.845   3.338   7.422  0.00  0.00    -0.083 Cl
ATOM     15 CL   UNL     1     -12.284   7.352   6.301  0.00  0.00    -0.083 Cl
ENDBRANCH   7   8
BRANCH   7  16
ATOM     16  C   UNL     1      -5.774   5.899   6.605  0.00  0.00    +0.009 C 
BRANCH  16  18
ATOM     17  C   UNL     1      -5.066   6.939   8.764  0.00  0.00    +0.004 C 
ATOM     18  C   UNL     1      -6.075   5.998   8.102  0.00  0.00    -0.003 C 
ENDBRANCH  16  18
ENDBRANCH   7  16
ENDBRANCH   6   7
ENDBRANCH   2   6
ENDBRANCH   1   3
BRANCH   1  19
ATOM     19  O   UNL     1      -2.904   2.889   1.698  0.00  0.00    -0.454 OA
BRANCH  19  20
ATOM     20  C   UNL     1      -1.743   2.266   1.443  0.00  0.00    +0.329 C 
ATOM     21  O   UNL     1      -1.047   1.890   2.357  0.00  0.00    -0.249 OA
BRANCH  20  22
ATOM     22  C   UNL     1      -1.307   2.036   0.019  0.00  0.00    +0.265 C 
BRANCH  22  23
ATOM     23  N   UNL     1      -0.016   1.343   0.009  0.00  0.00    -0.238 N 
ATOM     24  C   UNL     1       0.002  -0.004   0.002  0.00  0.00    +0.274 A 
ATOM     25  O   UNL     1      -1.039  -0.631   0.008  0.00  0.00    -0.266 OA
ATOM     26  C   UNL     1       1.299  -0.714  -0.014  0.00  0.00    +0.053 A 
ATOM     27  C   UNL     1       1.370  -2.100  -0.023  0.00  0.00    +0.014 A 
ATOM     28  C   UNL     1       2.606  -2.722  -0.038  0.00  0.00    +0.001 A 
ATOM     29  C   UNL     1       3.770  -1.974  -0.046  0.00  0.00    +0.001 A 
ATOM     30  C   UNL     1       3.716  -0.591  -0.038  0.00  0.00    +0.014 A 
ATOM     31  C   UNL     1       2.484   0.048  -0.021  0.00  0.00    +0.053 A 
ATOM     32  C   UNL     1       2.376   1.523  -0.013  0.00  0.00    +0.271 A 
ATOM     33  O   UNL     1       3.378   2.211  -0.018  0.00  0.00    -0.266 OA
ATOM     34  N   UNL     1       1.157   2.098   0.002  0.00  0.00    -0.260 N 
ATOM     35  H   UNL     1       1.094   3.066   0.008  0.00  0.00    +0.190 HD
ENDBRANCH  22  23
ENDBRANCH  20  22
ENDBRANCH  19  20
ENDBRANCH   1  19
TORSDOF 10
