REMARK  Name = ZINC19519934
REMARK  14 active torsions:
REMARK  status: ('A' for Active; 'I' for Inactive)
REMARK    1  A    between atoms: C_1  and  C_2
REMARK    2  A    between atoms: C_2  and  O_3
REMARK    3  A    between atoms: O_3  and  C_4
REMARK    4  A    between atoms: C_11  and  C_16
REMARK    5  A    between atoms: C_16  and  N_17
REMARK    6  A    between atoms: N_17  and  C_18
REMARK    7  A    between atoms: N_17  and  C_21
REMARK    8  A    between atoms: C_18  and  C_19
REMARK    9  A    between atoms: C_19  and  O_20
REMARK   10  A    between atoms: C_21  and  C_23
REMARK   11  A    between atoms: C_21  and  C_34
REMARK   12  A    between atoms: N_27  and  C_28
REMARK   13  A    between atoms: C_34  and  C_35
REMARK   14  A    between atoms: C_34  and  C_36
REMARK                            x       y       z     vdW  Elec       q    Type
REMARK                         _______ _______ _______ _____ _____    ______ ____
ROOT
ATOM      1  N   UNL     1      -3.035   4.653   1.665  0.00  0.00    +0.391 N 
ATOM      2  H   UNL     1      -3.354   4.028   2.511  0.00  0.00    -0.080 HD
ENDROOT
BRANCH   1   3
ATOM      3  C   UNL     1      -2.639   3.760   0.568  0.00  0.00    -0.036 C 
BRANCH   3  11
ATOM      4  C   UNL     1       0.099  -1.310   2.856  0.00  0.00    +0.121 A 
ATOM      5  C   UNL     1       1.402  -0.823   2.780  0.00  0.00    +0.047 A 
ATOM      6  C   UNL     1       1.652   0.441   2.294  0.00  0.00    +0.030 A 
ATOM      7  C   UNL     1       0.598   1.245   1.875  0.00  0.00    +0.049 A 
ATOM      8  C   UNL     1      -0.721   0.758   1.950  0.00  0.00    +0.002 A 
ATOM      9  C   UNL     1      -0.962  -0.528   2.445  0.00  0.00    +0.055 A 
ATOM     10  C   UNL     1      -1.822   1.618   1.511  0.00  0.00    +0.017 A 
ATOM     11  C   UNL     1      -1.529   2.853   1.034  0.00  0.00    +0.001 A 
ATOM     12  C   UNL     1      -0.190   3.295   0.979  0.00  0.00    +0.251 A 
ATOM     13  O   UNL     1       0.051   4.411   0.552  0.00  0.00    -0.268 OA
ATOM     14  N   UNL     1       0.828   2.515   1.385  0.00  0.00    -0.322 N 
ATOM     15  H   UNL     1       1.855   2.903   1.323  0.00  0.00    +0.169 HD
BRANCH   4  16
ATOM     16  O   UNL     1      -0.130  -2.560   3.338  0.00  0.00    -0.492 OA
BRANCH  16  18
ATOM     17  C   UNL     1       0.560  -4.687   4.256  0.00  0.00    +0.048 C 
ATOM     18  C   UNL     1       1.012  -3.317   3.746  0.00  0.00    +0.225 C 
ENDBRANCH  16  18
ENDBRANCH   4  16
ENDBRANCH   3  11
ENDBRANCH   1   3
BRANCH   1  19
ATOM     19  C   UNL     1      -1.901   5.473   2.112  0.00  0.00    -0.049 C 
BRANCH  19  20
ATOM     20  C   UNL     1      -2.192   6.029   3.507  0.00  0.00    +0.137 C 
BRANCH  20  21
ATOM     21  O   UNL     1      -2.395   4.946   4.418  0.00  0.00    -0.397 OA
ATOM     22  H   UNL     1      -2.617   5.152   5.476  0.00  0.00    +0.209 HD
ENDBRANCH  20  21
ENDBRANCH  19  20
ENDBRANCH   1  19
BRANCH   1  23
ATOM     23  C   UNL     1      -4.171   5.497   1.272  0.00  0.00    +0.006 C 
BRANCH  23  24
ATOM     24  C   UNL     1      -4.731   6.185   2.490  0.00  0.00    +0.139 A 
ATOM     25  N   UNL     1      -4.921   5.651   3.672  0.00  0.00    -0.115 NA
ATOM     26  N   UNL     1      -5.413   6.558   4.444  0.00  0.00    -0.023 NA
ATOM     27  N   UNL     1      -5.542   7.656   3.785  0.00  0.00    -0.044 NA
ATOM     28  N   UNL     1      -5.127   7.468   2.578  0.00  0.00    -0.228 N 
BRANCH  28  29
ATOM     29  C   UNL     1      -5.096   8.463   1.503  0.00  0.00    +0.111 C 
ATOM     30  C   UNL     1      -4.206   9.636   1.919  0.00  0.00    +0.027 C 
ATOM     31  C   UNL     1      -4.174  10.675   0.797  0.00  0.00    +0.002 C 
ATOM     32  C   UNL     1      -5.593  11.182   0.530  0.00  0.00    +0.000 C 
ATOM     33  C   UNL     1      -6.484  10.009   0.114  0.00  0.00    +0.002 C 
ATOM     34  C   UNL     1      -6.516   8.970   1.236  0.00  0.00    +0.027 C 
ENDBRANCH  28  29
ENDBRANCH  23  24
BRANCH  23  35
ATOM     35  C   UNL     1      -5.256   4.626   0.635  0.00  0.00    -0.024 C 
ATOM     36  C   UNL     1      -4.908   4.371  -0.833  0.00  0.00    +0.006 C 
ATOM     37  C   UNL     1      -5.342   3.292   1.378  0.00  0.00    +0.006 C 
ENDBRANCH  23  35
ENDBRANCH   1  23
TORSDOF 11
