REMARK  Name = ZINC13149756
REMARK  11 active torsions:
REMARK  status: ('A' for Active; 'I' for Inactive)
REMARK    1  A    between atoms: C_1  and  C_2
REMARK    2  A    between atoms: C_4  and  C_33
REMARK    3  A    between atoms: C_5  and  N_9
REMARK    4  A    between atoms: C_10  and  C_12
REMARK    5  A    between atoms: C_12  and  O_13
REMARK    6  A    between atoms: O_13  and  C_14
REMARK    7  A    between atoms: C_14  and  C_16
REMARK    8  A    between atoms: C_16  and  N_17
REMARK    9  A    between atoms: C_22  and  C_29
REMARK   10  A    between atoms: C_25  and  C_27
REMARK   11  A    between atoms: C_25  and  C_28
REMARK                            x       y       z     vdW  Elec       q    Type
REMARK                         _______ _______ _______ _____ _____    ______ ____
ROOT
ATOM      1  C   UNL     1      -3.280   0.102   3.239  0.00  0.00    +0.326 C 
ATOM      2  O   UNL     1      -2.114   0.396   3.356  0.00  0.00    -0.249 OA
ENDROOT
BRANCH   1   3
ATOM      3  O   UNL     1      -4.231   1.022   3.468  0.00  0.00    -0.454 OA
BRANCH   3   4
ATOM      4  C   UNL     1      -3.784   2.349   3.854  0.00  0.00    +0.328 C 
BRANCH   4   6
ATOM      5  N   UNL     1      -4.809   4.524   4.433  0.00  0.00    -0.281 N 
ATOM      6  C   UNL     1      -4.982   3.239   4.067  0.00  0.00    +0.255 C 
ATOM      7  O   UNL     1      -6.101   2.798   3.910  0.00  0.00    -0.272 OA
ATOM      8  H   UNL     1      -3.920   4.857   4.630  0.00  0.00    +0.155 HD
BRANCH   5  13
ATOM      9  C   UNL     1      -9.287   7.988   4.821  0.00  0.00    +0.044 C 
ATOM     10  C   UNL     1      -8.098   7.068   4.717  0.00  0.00    -0.049 A 
ATOM     11  C   UNL     1      -7.642   6.401   5.840  0.00  0.00    +0.008 A 
ATOM     12  C   UNL     1      -6.556   5.553   5.747  0.00  0.00    -0.028 A 
ATOM     13  C   UNL     1      -5.913   5.379   4.529  0.00  0.00    +0.055 A 
ATOM     14  C   UNL     1      -6.373   6.052   3.403  0.00  0.00    +0.063 A 
ATOM     15  C   UNL     1      -7.464   6.895   3.501  0.00  0.00    +0.025 A 
ATOM     16 CL   UNL     1      -5.578   5.834   1.875  0.00  0.00    -0.082 Cl
ATOM     17  C   UNL     1      -6.064   4.821   6.970  0.00  0.00    +0.046 C 
ENDBRANCH   5  13
ENDBRANCH   4   6
ENDBRANCH   3   4
ENDBRANCH   1   3
BRANCH   1  18
ATOM     18  C   UNL     1      -3.667  -1.297   2.834  0.00  0.00    +0.238 C 
BRANCH  18  19
ATOM     19  N   UNL     1      -2.459  -2.102   2.645  0.00  0.00    -0.213 N 
ATOM     20  C   UNL     1      -1.865  -2.822   3.623  0.00  0.00    +0.247 C 
ATOM     21  O   UNL     1      -2.320  -3.028   4.728  0.00  0.00    -0.273 OA
ATOM     22  C   UNL     1      -0.572  -3.324   3.032  0.00  0.00    +0.113 C 
ATOM     23  C   UNL     1      -0.457  -4.835   3.175  0.00  0.00    +0.038 C 
ATOM     24  C   UNL     1      -0.148  -5.206   4.626  0.00  0.00    -0.011 C 
ATOM     25  C   UNL     1       1.188  -4.579   5.022  0.00  0.00    +0.009 C 
ATOM     26  C   UNL     1       1.114  -3.057   4.941  0.00  0.00    -0.032 C 
ATOM     27  C   UNL     1       0.638  -2.587   3.575  0.00  0.00    +0.041 C 
ATOM     28  C   UNL     1       2.540  -2.507   5.162  0.00  0.00    +0.011 C 
ATOM     29  C   UNL     1       0.229  -2.504   6.057  0.00  0.00    +0.011 C 
ATOM     30  C   UNL     1      -0.047  -6.731   4.747  0.00  0.00    +0.007 C 
ATOM     31  N   UNL     1      -0.710  -2.994   1.595  0.00  0.00    -0.285 N 
ATOM     32  C   UNL     1      -1.800  -2.216   1.487  0.00  0.00    +0.310 C 
ATOM     33  O   UNL     1      -2.148  -1.675   0.455  0.00  0.00    -0.252 OA
ATOM     34  H   UNL     1      -0.121  -3.289   0.885  0.00  0.00    +0.151 HD
ENDBRANCH  18  19
ENDBRANCH   1  18
TORSDOF 6
