REMARK  Name = ZINC09833959
REMARK  9 active torsions:
REMARK  status: ('A' for Active; 'I' for Inactive)
REMARK    1  A    between atoms: C_1  and  O_2
REMARK    2  A    between atoms: O_2  and  C_3
REMARK    3  A    between atoms: C_6  and  C_9
REMARK    4  A    between atoms: C_9  and  C_10
REMARK    5  A    between atoms: C_10  and  N_11
REMARK    6  A    between atoms: N_11  and  C_12
REMARK    7  A    between atoms: C_23  and  S_24
REMARK    8  A    between atoms: S_24  and  C_25
REMARK    9  A    between atoms: C_28  and  C_30
REMARK                            x       y       z     vdW  Elec       q    Type
REMARK                         _______ _______ _______ _____ _____    ______ ____
ROOT
ATOM      1  C   UNL     1       1.371   6.237   2.682  0.00  0.00    +0.056 A 
ATOM      2  C   UNL     1       1.356   7.682   2.949  0.00  0.00    +0.020 A 
ATOM      3  C   UNL     1       1.411   8.609   1.906  0.00  0.00    +0.012 A 
ATOM      4  C   UNL     1       1.394   9.947   2.186  0.00  0.00    +0.001 A 
ATOM      5  C   UNL     1       1.322  10.391   3.499  0.00  0.00    +0.002 A 
ATOM      6  C   UNL     1       1.267   9.493   4.543  0.00  0.00    +0.026 A 
ATOM      7  C   UNL     1       1.283   8.127   4.281  0.00  0.00    +0.051 A 
ATOM      8  N   UNL     1       1.228   7.208   5.309  0.00  0.00    -0.321 N 
ATOM      9  H   UNL     1       1.179   7.523   6.225  0.00  0.00    +0.169 HD
ATOM     10  C   UNL     1       1.243   5.886   5.068  0.00  0.00    +0.265 A 
ATOM     11  O   UNL     1       1.193   5.111   6.009  0.00  0.00    -0.267 OA
ATOM     12  C   UNL     1       1.308   5.373   3.760  0.00  0.00    +0.103 A 
ENDROOT
BRANCH   1  13
ATOM     13  N   UNL     1       1.442   5.755   1.387  0.00  0.00    -0.342 N 
ATOM     14  H   UNL     1       2.276   6.083   0.923  0.00  0.00    +0.146 HD
BRANCH  13  15
ATOM     15  C   UNL     1       0.239   6.115   0.624  0.00  0.00    +0.106 C 
BRANCH  15  16
ATOM     16  C   UNL     1       0.296   5.460  -0.757  0.00  0.00    +0.054 C 
BRANCH  16  20
ATOM     17  C   UNL     1      -3.026   6.782  -3.098  0.00  0.00    +0.120 A 
ATOM     18  C   UNL     1      -1.867   7.542  -3.046  0.00  0.00    +0.046 A 
ATOM     19  C   UNL     1      -0.794   7.112  -2.289  0.00  0.00    +0.007 A 
ATOM     20  C   UNL     1      -0.876   5.926  -1.583  0.00  0.00    -0.046 A 
ATOM     21  C   UNL     1      -2.030   5.167  -1.633  0.00  0.00    +0.007 A 
ATOM     22  C   UNL     1      -3.106   5.593  -2.388  0.00  0.00    +0.046 A 
BRANCH  17  24
ATOM     23  C   UNL     1      -5.244   6.370  -3.848  0.00  0.00    +0.277 C 
ATOM     24  O   UNL     1      -4.083   7.203  -3.841  0.00  0.00    -0.495 OA
ENDBRANCH  17  24
ENDBRANCH  16  20
ENDBRANCH  15  16
ENDBRANCH  13  15
ENDBRANCH   1  13
BRANCH  12  25
ATOM     25  S   UNL     1       1.317   3.631   3.495  0.00  0.00    -0.022 S 
BRANCH  25  26
ATOM     26  C   UNL     1      -0.302   3.228   4.060  0.00  0.00    +0.283 A 
ATOM     27  N   UNL     1      -1.224   4.079   4.447  0.00  0.00    -0.100 NA
ATOM     28  N   UNL     1      -2.284   3.436   4.792  0.00  0.00    -0.103 NA
ATOM     29  C   UNL     1      -2.079   2.147   4.646  0.00  0.00    +0.284 A 
ATOM     30  O   UNL     1      -0.820   1.989   4.180  0.00  0.00    -0.408 OA
BRANCH  29  31
ATOM     31  C   UNL     1      -3.041   1.074   4.937  0.00  0.00    +0.191 A 
ATOM     32  C   UNL     1      -4.339   1.243   5.316  0.00  0.00    +0.055 A 
ATOM     33  C   UNL     1      -4.883  -0.044   5.486  0.00  0.00    +0.042 A 
ATOM     34  C   UNL     1      -3.904  -0.928   5.208  0.00  0.00    +0.196 A 
ATOM     35  O   UNL     1      -2.794  -0.250   4.871  0.00  0.00    -0.458 OA
ENDBRANCH  29  31
ENDBRANCH  25  26
ENDBRANCH  12  25
TORSDOF 8
