REMARK  Name = ZINC12010483
REMARK  5 active torsions:
REMARK  status: ('A' for Active; 'I' for Inactive)
REMARK    1  A    between atoms: C_3  and  C_6
REMARK    2  A    between atoms: C_8  and  N_23
REMARK    3  A    between atoms: C_24  and  C_26
REMARK    4  A    between atoms: C_29  and  S_32
REMARK    5  A    between atoms: S_32  and  N_35
REMARK                            x       y       z     vdW  Elec       q    Type
REMARK                         _______ _______ _______ _____ _____    ______ ____
ROOT
ATOM      1  C   UNL     1      -0.017   1.407   0.010  0.00  0.00    +0.130 A 
ATOM      2  C   UNL     1       0.002  -0.004   0.002  0.00  0.00    +0.077 A 
ATOM      3  C   UNL     1       1.300  -0.402  -0.013  0.00  0.00    +0.133 A 
ATOM      4  N   UNL     1       2.078   0.721  -0.014  0.00  0.00    -0.184 N 
ATOM      5  N   UNL     1       1.229   1.835   0.000  0.00  0.00    -0.159 NA
ATOM      6  C   UNL     1       3.458   0.753  -0.026  0.00  0.00    +0.234 A 
ATOM      7  N   UNL     1       4.101   1.951  -0.026  0.00  0.00    -0.291 N 
ATOM      8  H   UNL     1       3.593   2.778  -0.014  0.00  0.00    +0.172 HD
ATOM      9  C   UNL     1       5.448   1.982  -0.043  0.00  0.00    +0.256 A 
ATOM     10  O   UNL     1       6.043   3.047  -0.041  0.00  0.00    -0.267 OA
ATOM     11  C   UNL     1       6.163   0.763  -0.062  0.00  0.00    +0.038 A 
ATOM     12  C   UNL     1       5.469  -0.403  -0.053  0.00  0.00    +0.053 A 
ATOM     13  N   UNL     1       4.130  -0.375  -0.033  0.00  0.00    -0.217 NA
ATOM     14  C   UNL     1       6.143  -1.749  -0.050  0.00  0.00    +0.056 C 
ATOM     15  C   UNL     1       7.595  -1.624  -0.507  0.00  0.00    +0.006 C 
ATOM     16  C   UNL     1       8.268  -0.518   0.315  0.00  0.00    +0.005 C 
ATOM     17  C   UNL     1       7.665   0.823  -0.101  0.00  0.00    +0.042 C 
ENDROOT
BRANCH   1  20
ATOM     18  C   UNL     1      -2.600   4.003   0.038  0.00  0.00    +0.042 A 
ATOM     19  C   UNL     1      -1.245   3.616   0.033  0.00  0.00    +0.051 A 
ATOM     20  C   UNL     1      -1.226   2.257   0.020  0.00  0.00    +0.155 A 
ATOM     21  O   UNL     1      -2.500   1.820   0.025  0.00  0.00    -0.461 OA
ATOM     22  C   UNL     1      -3.333   2.873   0.035  0.00  0.00    +0.196 A 
ENDBRANCH   1  20
BRANCH   3  23
ATOM     23  N   UNL     1       1.756  -1.717  -0.024  0.00  0.00    -0.266 N 
ATOM     24  C   UNL     1       0.874  -2.736  -0.021  0.00  0.00    +0.249 C 
ATOM     25  O   UNL     1      -0.320  -2.507  -0.008  0.00  0.00    -0.270 OA
ATOM     26  H   UNL     1       2.708  -1.900  -0.033  0.00  0.00    +0.157 HD
BRANCH  24  27
ATOM     27  C   UNL     1       1.358  -4.133  -0.032  0.00  0.00    +0.037 A 
ATOM     28  C   UNL     1       2.728  -4.399  -0.052  0.00  0.00    +0.015 A 
ATOM     29  C   UNL     1       3.173  -5.705  -0.058  0.00  0.00    +0.029 A 
ATOM     30  C   UNL     1       2.265  -6.749  -0.055  0.00  0.00    +0.106 A 
ATOM     31  C   UNL     1       0.905  -6.491  -0.041  0.00  0.00    +0.029 A 
ATOM     32  C   UNL     1       0.447  -5.190  -0.029  0.00  0.00    +0.015 A 
BRANCH  30  33
ATOM     33  S   UNL     1       2.842  -8.414  -0.069  0.00  0.00    +0.061 S 
ATOM     34  O   UNL     1       4.157  -8.392   0.470  0.00  0.00    -0.153 OA
ATOM     35  O   UNL     1       1.804  -9.208   0.488  0.00  0.00    -0.153 OA
BRANCH  33  36
ATOM     36  N   UNL     1       2.988  -8.868  -1.654  0.00  0.00    -0.177 NA
ATOM     37  C   UNL     1       1.861  -9.493  -2.361  0.00  0.00    +0.109 C 
ATOM     38  C   UNL     1       1.591  -8.700  -3.648  0.00  0.00    +0.017 C 
ATOM     39  C   UNL     1       2.880  -8.619  -4.470  0.00  0.00    +0.003 C 
ATOM     40  C   UNL     1       3.953  -7.881  -3.666  0.00  0.00    +0.017 C 
ATOM     41  C   UNL     1       4.248  -8.659  -2.380  0.00  0.00    +0.109 C 
ENDBRANCH  33  36
ENDBRANCH  30  33
ENDBRANCH  24  27
ENDBRANCH   3  23
TORSDOF 5
