REMARK  Name = ZINC08687827
REMARK  10 active torsions:
REMARK  status: ('A' for Active; 'I' for Inactive)
REMARK    1  A    between atoms: C_1  and  O_2
REMARK    2  A    between atoms: O_2  and  C_3
REMARK    3  A    between atoms: C_6  and  C_9
REMARK    4  A    between atoms: C_9  and  C_11
REMARK    5  A    between atoms: C_9  and  N_30
REMARK    6  A    between atoms: C_11  and  N_12
REMARK    7  A    between atoms: N_12  and  C_13
REMARK    8  A    between atoms: C_16  and  S_22
REMARK    9  A    between atoms: C_18  and  N_19
REMARK   10  A    between atoms: S_22  and  N_25
REMARK                            x       y       z     vdW  Elec       q    Type
REMARK                         _______ _______ _______ _____ _____    ______ ____
ROOT
ATOM      1  N   UNL     1      -6.528  -4.241  -1.861  0.00  0.00    -0.343 N 
ATOM      2  H   UNL     1      -6.895  -4.363  -0.971  0.00  0.00    +0.146 HD
ENDROOT
BRANCH   1   3
ATOM      3  C   UNL     1      -7.149  -4.838  -2.960  0.00  0.00    +0.058 A 
ATOM      4  C   UNL     1      -6.678  -4.593  -4.244  0.00  0.00    +0.027 A 
ATOM      5  C   UNL     1      -7.294  -5.185  -5.328  0.00  0.00    +0.030 A 
ATOM      6  C   UNL     1      -8.378  -6.022  -5.138  0.00  0.00    +0.108 A 
ATOM      7  C   UNL     1      -8.850  -6.268  -3.861  0.00  0.00    +0.063 A 
ATOM      8  C   UNL     1      -8.235  -5.683  -2.772  0.00  0.00    +0.149 A 
BRANCH   8   9
ATOM      9  N   UNL     1      -8.736  -5.952  -1.405  0.00  0.00    +0.058 N 
ATOM     10  O   UNL     1      -9.122  -7.059  -1.110  0.00  0.00    -0.126 OA
ATOM     11  O   UNL     1      -8.761  -5.064  -0.585  0.00  0.00    -0.126 OA
ENDBRANCH   8   9
BRANCH   6  12
ATOM     12  S   UNL     1      -9.161  -6.776  -6.524  0.00  0.00    +0.061 S 
ATOM     13  O   UNL     1     -10.490  -7.082  -6.124  0.00  0.00    -0.153 OA
ATOM     14  O   UNL     1      -8.873  -5.956  -7.649  0.00  0.00    -0.153 OA
BRANCH  12  15
ATOM     15  N   UNL     1      -8.402  -8.224  -6.788  0.00  0.00    -0.177 NA
ATOM     16  C   UNL     1      -7.229  -8.432  -7.651  0.00  0.00    +0.109 C 
ATOM     17  C   UNL     1      -6.891  -9.937  -7.609  0.00  0.00    +0.018 C 
ATOM     18  C   UNL     1      -8.233 -10.583  -7.173  0.00  0.00    +0.018 C 
ATOM     19  C   UNL     1      -8.785  -9.517  -6.192  0.00  0.00    +0.109 C 
ENDBRANCH  12  15
ENDBRANCH   6  12
ENDBRANCH   1   3
BRANCH   1  20
ATOM     20  C   UNL     1      -5.323  -3.429  -2.051  0.00  0.00    +0.091 C 
BRANCH  20  21
ATOM     21  C   UNL     1      -4.780  -2.994  -0.688  0.00  0.00    -0.020 C 
BRANCH  21  25
ATOM     22  C   UNL     1      -7.623  -0.446   1.232  0.00  0.00    +0.120 A 
ATOM     23  C   UNL     1      -7.540  -1.785   1.586  0.00  0.00    +0.046 A 
ATOM     24  C   UNL     1      -6.620  -2.607   0.964  0.00  0.00    +0.005 A 
ATOM     25  C   UNL     1      -5.783  -2.096  -0.011  0.00  0.00    -0.059 A 
ATOM     26  C   UNL     1      -5.864  -0.762  -0.366  0.00  0.00    +0.005 A 
ATOM     27  C   UNL     1      -6.787   0.062   0.249  0.00  0.00    +0.046 A 
BRANCH  22  29
ATOM     28  C   UNL     1      -9.357  -0.228   2.844  0.00  0.00    +0.277 C 
ATOM     29  O   UNL     1      -8.528   0.364   1.842  0.00  0.00    -0.495 OA
ENDBRANCH  22  29
ENDBRANCH  21  25
BRANCH  21  30
ATOM     30  N   UNL     1      -3.518  -2.267  -0.874  0.00  0.00    +0.385 N 
ATOM     31  C   UNL     1      -2.901  -1.967   0.444  0.00  0.00    -0.078 C 
ATOM     32  C   UNL     1      -1.408  -1.744   0.094  0.00  0.00    -0.020 C 
ATOM     33  C   UNL     1      -1.152  -2.795  -1.010  0.00  0.00    -0.020 C 
ATOM     34  C   UNL     1      -2.541  -3.115  -1.592  0.00  0.00    -0.078 C 
ATOM     35  H   UNL     1      -3.680  -1.413  -1.386  0.00  0.00    -0.081 HD
ENDBRANCH  21  30
ENDBRANCH  20  21
ENDBRANCH   1  20
TORSDOF 9
