REMARK  Name = ZINC39030277
REMARK  10 active torsions:
REMARK  status: ('A' for Active; 'I' for Inactive)
REMARK    1  A    between atoms: C_1  and  O_2
REMARK    2  A    between atoms: O_2  and  C_3
REMARK    3  A    between atoms: C_6  and  C_9
REMARK    4  A    between atoms: C_9  and  C_10
REMARK    5  A    between atoms: N_12  and  C_13
REMARK    6  A    between atoms: C_13  and  C_15
REMARK    7  A    between atoms: C_13  and  C_19
REMARK    8  A    between atoms: C_15  and  C_16
REMARK    9  A    between atoms: C_16  and  S_17
REMARK   10  A    between atoms: S_17  and  C_18
REMARK                            x       y       z     vdW  Elec       q    Type
REMARK                         _______ _______ _______ _____ _____    ______ ____
ROOT
ATOM      1  C   UNL     1       0.978  -3.675   7.638  0.00  0.00    +0.160 C 
ENDROOT
BRANCH   1   2
ATOM      2  C   UNL     1       1.351  -4.782   8.591  0.00  0.00    +0.236 C 
ATOM      3  O   UNL     1       2.518  -5.010   8.829  0.00  0.00    -0.274 OA
ATOM      4  N   UNL     1       0.387  -5.518   9.179  0.00  0.00    -0.300 N 
ATOM      5  C   UNL     1      -1.024  -5.330   8.816  0.00  0.00    +0.106 C 
ATOM      6  C   UNL     1      -1.615  -6.687   8.418  0.00  0.00    +0.009 C 
ATOM      7  C   UNL     1      -1.382  -7.692   9.546  0.00  0.00    -0.037 C 
ATOM      8  C   UNL     1       0.118  -7.867   9.782  0.00  0.00    +0.009 C 
ATOM      9  C   UNL     1       0.729  -6.528  10.190  0.00  0.00    +0.106 C 
ATOM     10  C   UNL     1      -2.005  -9.038   9.172  0.00  0.00    +0.140 C 
ATOM     11  C   UNL     1      -3.508  -8.787   9.090  0.00  0.00    +0.042 C 
ATOM     12  N   UNL     1      -3.866  -9.155   7.922  0.00  0.00    -0.243 NA
ATOM     13  C   UNL     1      -2.803  -9.533   7.169  0.00  0.00    +0.216 C 
ATOM     14  N   UNL     1      -1.659  -9.473   7.818  0.00  0.00    -0.264 NA
ATOM     15  C   UNL     1      -4.253  -8.104  10.209  0.00  0.00    +0.034 C 
ATOM     16  C   UNL     1      -3.429  -6.853  10.565  0.00  0.00    -0.076 C 
ATOM     17  N   UNL     1      -2.024  -7.210  10.777  0.00  0.00    +0.385 N 
ATOM     18  H   UNL     1      -1.972  -7.933  11.479  0.00  0.00    -0.085 HD
ATOM     19  H   UNL     1      -1.526  -6.397  11.109  0.00  0.00    -0.085 HD
ENDBRANCH   1   2
BRANCH   1  22
ATOM     20  C   UNL     1       1.888  -2.852   5.533  0.00  0.00    +0.218 C 
ATOM     21  O   UNL     1       0.758  -2.589   5.181  0.00  0.00    -0.275 OA
ATOM     22  N   UNL     1       2.106  -3.399   6.745  0.00  0.00    -0.304 N 
ATOM     23  H   UNL     1       3.010  -3.609   7.027  0.00  0.00    +0.149 HD
BRANCH  20  24
ATOM     24  C   UNL     1       3.049  -2.568   4.615  0.00  0.00    +0.130 C 
BRANCH  24  28
ATOM     25  C   UNL     1       1.602  -0.851   0.979  0.00  0.00    +0.120 A 
ATOM     26  C   UNL     1       1.944  -0.033   2.045  0.00  0.00    +0.046 A 
ATOM     27  C   UNL     1       2.412  -0.590   3.220  0.00  0.00    +0.007 A 
ATOM     28  C   UNL     1       2.539  -1.962   3.333  0.00  0.00    -0.038 A 
ATOM     29  C   UNL     1       2.199  -2.780   2.271  0.00  0.00    +0.007 A 
ATOM     30  C   UNL     1       1.725  -2.228   1.096  0.00  0.00    +0.046 A 
BRANCH  25  32
ATOM     31  C   UNL     1       1.041   1.119  -0.228  0.00  0.00    +0.277 C 
ATOM     32  O   UNL     1       1.142  -0.305  -0.178  0.00  0.00    -0.495 OA
ENDBRANCH  25  32
ENDBRANCH  24  28
ENDBRANCH  20  24
ENDBRANCH   1  22
BRANCH   1  33
ATOM     33  C   UNL     1       0.634  -2.413   8.431  0.00  0.00    +0.042 C 
BRANCH  33  34
ATOM     34  C   UNL     1       0.110  -1.338   7.477  0.00  0.00    +0.071 C 
BRANCH  34  35
ATOM     35  S   UNL     1      -0.298   0.159   8.418  0.00  0.00    -0.164 S 
ATOM     36  C   UNL     1      -0.895   1.319   7.158  0.00  0.00    +0.084 C 
ENDBRANCH  34  35
ENDBRANCH  33  34
ENDBRANCH   1  33
TORSDOF 8
