REMARK  Name = ZINC36642524
REMARK  11 active torsions:
REMARK  status: ('A' for Active; 'I' for Inactive)
REMARK    1  A    between atoms: C_1  and  C_2
REMARK    2  A    between atoms: C_2  and  N_3
REMARK    3  A    between atoms: N_3  and  C_4
REMARK    4  A    between atoms: N_3  and  C_6
REMARK    5  A    between atoms: C_4  and  C_5
REMARK    6  A    between atoms: C_6  and  C_7
REMARK    7  A    between atoms: C_7  and  N_8
REMARK    8  A    between atoms: C_12  and  O_18
REMARK    9  A    between atoms: O_18  and  C_19
REMARK   10  A    between atoms: C_19  and  C_20
REMARK   11  A    between atoms: C_21  and  C_23
REMARK                            x       y       z     vdW  Elec       q    Type
REMARK                         _______ _______ _______ _____ _____    ______ ____
ROOT
ATOM      1  N   UNL     1      -0.913  -3.300   1.875  0.00  0.00    -0.248 N 
ATOM      2  C   UNL     1       0.181  -4.095   1.577  0.00  0.00    +0.168 A 
ATOM      3  N   UNL     1       0.325  -5.390   1.734  0.00  0.00    -0.221 NA
ATOM      4  C   UNL     1       1.461  -6.040   1.395  0.00  0.00    +0.122 A 
ATOM      5  C   UNL     1       1.745  -7.424   1.512  0.00  0.00    +0.147 A 
ATOM      6  C   UNL     1       2.963  -7.926   1.117  0.00  0.00    +0.048 A 
ATOM      7  C   UNL     1       3.949  -7.102   0.594  0.00  0.00    +0.005 A 
ATOM      8  C   UNL     1       3.703  -5.748   0.466  0.00  0.00    +0.017 A 
ATOM      9  C   UNL     1       2.490  -5.236   0.858  0.00  0.00    +0.044 A 
ATOM     10  S   UNL     1       1.753  -3.619   0.873  0.00  0.00    -0.052 S 
ATOM     11  C   UNL     1      -2.022  -3.852   2.408  0.00  0.00    +0.254 C 
ATOM     12  O   UNL     1      -2.030  -5.030   2.710  0.00  0.00    -0.270 OA
ENDROOT
BRANCH  11  13
ATOM     13  C   UNL     1      -3.220  -3.031   2.623  0.00  0.00    +0.062 A 
ATOM     14  C   UNL     1      -3.291  -1.852   3.306  0.00  0.00    +0.096 A 
ATOM     15  N   UNL     1      -4.564  -1.390   3.291  0.00  0.00    -0.360 N 
ATOM     16  H   UNL     1      -4.859  -0.567   3.712  0.00  0.00    +0.165 HD
ATOM     17  C   UNL     1      -5.382  -2.253   2.593  0.00  0.00    +0.047 A 
ATOM     18  C   UNL     1      -4.583  -3.314   2.137  0.00  0.00    +0.012 A 
ATOM     19  C   UNL     1      -5.149  -4.344   1.389  0.00  0.00    +0.011 A 
ATOM     20  C   UNL     1      -6.495  -4.313   1.096  0.00  0.00    +0.001 A 
ATOM     21  C   UNL     1      -7.285  -3.264   1.542  0.00  0.00    +0.002 A 
ATOM     22  C   UNL     1      -6.740  -2.243   2.291  0.00  0.00    +0.026 A 
ENDBRANCH  11  13
BRANCH   1  23
ATOM     23  C   UNL     1      -0.866  -1.860   1.612  0.00  0.00    +0.097 C 
BRANCH  23  24
ATOM     24  C   UNL     1      -1.507  -1.568   0.254  0.00  0.00    -0.059 C 
BRANCH  24  25
ATOM     25  N   UNL     1      -1.460  -0.124  -0.010  0.00  0.00    +0.380 N 
ATOM     26  H   UNL     1      -1.894   0.372   0.754  0.00  0.00    -0.082 HD
BRANCH  25  28
ATOM     27  C   UNL     1      -0.004   1.827  -0.274  0.00  0.00    -0.017 C 
ATOM     28  C   UNL     1      -0.061   0.304  -0.141  0.00  0.00    -0.082 C 
ENDBRANCH  25  28
BRANCH  25  29
ATOM     29  C   UNL     1      -2.181   0.170  -1.256  0.00  0.00    -0.082 C 
ATOM     30  C   UNL     1      -3.667  -0.143  -1.072  0.00  0.00    -0.017 C 
ENDBRANCH  25  29
ENDBRANCH  24  25
ENDBRANCH  23  24
ENDBRANCH   1  23
BRANCH   5  31
ATOM     31  O   UNL     1       0.804  -8.264   2.021  0.00  0.00    -0.490 OA
BRANCH  31  32
ATOM     32  C   UNL     1       1.151  -9.647   2.113  0.00  0.00    +0.226 C 
ATOM     33  C   UNL     1      -0.024 -10.429   2.704  0.00  0.00    +0.048 C 
ENDBRANCH  31  32
ENDBRANCH   5  31
TORSDOF 8
