REMARK  Name = ZINC09908196
REMARK  10 active torsions:
REMARK  status: ('A' for Active; 'I' for Inactive)
REMARK    1  A    between atoms: C_1  and  C_2
REMARK    2  A    between atoms: C_5  and  N_9
REMARK    3  A    between atoms: C_6  and  C_8
REMARK    4  A    between atoms: C_10  and  C_12
REMARK    5  A    between atoms: C_13  and  C_37
REMARK    6  A    between atoms: C_20  and  C_22
REMARK    7  A    between atoms: C_25  and  O_28
REMARK    8  A    between atoms: O_28  and  C_29
REMARK    9  A    between atoms: C_29  and  C_30
REMARK   10  A    between atoms: C_35  and  C_36
REMARK                            x       y       z     vdW  Elec       q    Type
REMARK                         _______ _______ _______ _____ _____    ______ ____
ROOT
ATOM      1  C   UNL     1      -2.443   3.626   7.058  0.00  0.00    +0.060 C 
ATOM      2  C   UNL     1      -1.627   3.866   8.094  0.00  0.00    +0.018 C 
ATOM      3  N   UNL     1      -2.092   4.331   9.300  0.00  0.00    -0.287 N 
ATOM      4  C   UNL     1      -3.399   4.797   9.344  0.00  0.00    +0.218 A 
ATOM      5  N   UNL     1      -4.019   5.479  10.267  0.00  0.00    -0.201 NA
ATOM      6  C   UNL     1      -5.277   5.715   9.880  0.00  0.00    +0.247 A 
ATOM      7  N   UNL     1      -5.471   5.181   8.700  0.00  0.00    -0.156 NA
ATOM      8  N   UNL     1      -4.271   4.575   8.330  0.00  0.00    -0.221 N 
ATOM      9  C   UNL     1      -3.932   3.835   7.119  0.00  0.00    +0.177 C 
ATOM     10  C   UNL     1      -0.149   3.618   7.931  0.00  0.00    +0.061 C 
ATOM     11  H   UNL     1      -1.529   4.333  10.090  0.00  0.00    +0.155 HD
ENDROOT
BRANCH   9  12
ATOM     12  C   UNL     1      -4.626   2.497   7.143  0.00  0.00    -0.018 A 
ATOM     13  C   UNL     1      -4.367   1.603   8.165  0.00  0.00    +0.009 A 
ATOM     14  C   UNL     1      -5.006   0.379   8.192  0.00  0.00    +0.046 A 
ATOM     15  C   UNL     1      -5.900   0.042   7.186  0.00  0.00    +0.121 A 
ATOM     16  C   UNL     1      -6.155   0.938   6.159  0.00  0.00    +0.046 A 
ATOM     17  C   UNL     1      -5.518   2.164   6.140  0.00  0.00    +0.009 A 
BRANCH  15  18
ATOM     18  O   UNL     1      -6.525  -1.165   7.207  0.00  0.00    -0.487 OA
BRANCH  18  19
ATOM     19  C   UNL     1      -6.215  -2.037   8.296  0.00  0.00    +0.264 C 
BRANCH  19  20
ATOM     20  C   UNL     1      -6.997  -3.318   8.152  0.00  0.00    -0.007 A 
ATOM     21  C   UNL     1      -7.855  -3.487   7.081  0.00  0.00    +0.007 A 
ATOM     22  C   UNL     1      -8.568  -4.663   6.946  0.00  0.00    +0.000 A 
ATOM     23  C   UNL     1      -8.431  -5.666   7.888  0.00  0.00    +0.000 A 
ATOM     24  C   UNL     1      -7.577  -5.495   8.961  0.00  0.00    +0.004 A 
ATOM     25  C   UNL     1      -6.860  -4.321   9.093  0.00  0.00    -0.044 A 
ATOM     26  C   UNL     1      -5.929  -4.134  10.263  0.00  0.00    +0.044 C 
ENDBRANCH  19  20
ENDBRANCH  18  19
ENDBRANCH  15  18
ENDBRANCH   9  12
BRANCH   1  28
ATOM     27  N   UNL     1      -1.642   1.844   5.677  0.00  0.00    -0.281 N 
ATOM     28  C   UNL     1      -1.877   3.160   5.848  0.00  0.00    +0.248 C 
ATOM     29  O   UNL     1      -1.601   3.948   4.962  0.00  0.00    -0.270 OA
ATOM     30  H   UNL     1      -1.936   1.208   6.348  0.00  0.00    +0.155 HD
BRANCH  27  35
ATOM     31  C   UNL     1       1.058   0.025   1.032  0.00  0.00    +0.044 C 
ATOM     32  C   UNL     1       0.340   0.508   2.266  0.00  0.00    -0.050 A 
ATOM     33  C   UNL     1       0.534   1.802   2.714  0.00  0.00    +0.005 A 
ATOM     34  C   UNL     1      -0.121   2.248   3.845  0.00  0.00    +0.024 A 
ATOM     35  C   UNL     1      -0.976   1.395   4.532  0.00  0.00    +0.037 A 
ATOM     36  C   UNL     1      -1.169   0.097   4.079  0.00  0.00    -0.029 A 
ATOM     37  C   UNL     1      -0.514  -0.341   2.944  0.00  0.00    +0.008 A 
ATOM     38  C   UNL     1      -2.095  -0.832   4.821  0.00  0.00    +0.045 C 
ENDBRANCH  27  35
ENDBRANCH   1  28
TORSDOF 6
