REMARK  Name = ZINC21222128
REMARK  9 active torsions:
REMARK  status: ('A' for Active; 'I' for Inactive)
REMARK    1  A    between atoms: C_1  and  C_2
REMARK    2  A    between atoms: C_2  and  O_3
REMARK    3  A    between atoms: O_3  and  C_4
REMARK    4  A    between atoms: C_7  and  C_10
REMARK    5  A    between atoms: C_21  and  C_24
REMARK    6  A    between atoms: C_27  and  O_30
REMARK    7  A    between atoms: O_30  and  C_31
REMARK    8  A    between atoms: C_31  and  C_32
REMARK    9  A    between atoms: C_31  and  C_33
REMARK                            x       y       z     vdW  Elec       q    Type
REMARK                         _______ _______ _______ _____ _____    ______ ____
ROOT
ATOM      1  C   UNL     1      -0.244  -2.070  -0.202  0.00  0.00    +0.063 C 
ATOM      2  C   UNL     1      -1.030  -2.360  -1.481  0.00  0.00    +0.109 C 
ATOM      3  C   UNL     1      -2.231  -1.452  -1.539  0.00  0.00    +0.218 C 
ATOM      4  O   UNL     1      -3.262  -1.845  -2.042  0.00  0.00    -0.275 OA
ATOM      5  N   UNL     1      -2.162  -0.208  -1.035  0.00  0.00    -0.289 N 
ATOM      6  C   UNL     1      -1.002   0.271  -0.482  0.00  0.00    +0.018 C 
ATOM      7  C   UNL     1      -0.041  -0.579  -0.065  0.00  0.00    +0.020 C 
ATOM      8  C   UNL     1       1.158  -0.109   0.496  0.00  0.00    +0.162 C 
ATOM      9  O   UNL     1       1.995  -0.906   0.872  0.00  0.00    -0.292 OA
ATOM     10  C   UNL     1       1.423   1.366   0.638  0.00  0.00    +0.088 C 
ATOM     11  C   UNL     1       0.661   2.116  -0.459  0.00  0.00    +0.032 C 
ATOM     12  C   UNL     1      -0.825   1.763  -0.351  0.00  0.00    +0.059 C 
ATOM     13  H   UNL     1      -3.047   0.446  -1.062  0.00  0.00    +0.155 HD
ENDROOT
BRANCH   1  17
ATOM     14  C   UNL     1      -2.424  -3.527   3.173  0.00  0.00    +0.121 A 
ATOM     15  C   UNL     1      -1.153  -4.014   2.904  0.00  0.00    +0.046 A 
ATOM     16  C   UNL     1      -0.450  -3.541   1.812  0.00  0.00    +0.008 A 
ATOM     17  C   UNL     1      -1.012  -2.584   0.989  0.00  0.00    -0.039 A 
ATOM     18  C   UNL     1      -2.276  -2.093   1.258  0.00  0.00    +0.008 A 
ATOM     19  C   UNL     1      -2.986  -2.566   2.345  0.00  0.00    +0.046 A 
BRANCH  14  20
ATOM     20  O   UNL     1      -3.117  -3.990   4.246  0.00  0.00    -0.492 OA
BRANCH  20  22
ATOM     21  C   UNL     1      -5.040  -4.082   5.706  0.00  0.00    +0.048 C 
ATOM     22  C   UNL     1      -4.420  -3.444   4.462  0.00  0.00    +0.225 C 
ENDBRANCH  20  22
ENDBRANCH  14  20
ENDBRANCH   1  17
BRANCH  11  23
ATOM     23  C   UNL     1       0.843   3.601  -0.277  0.00  0.00    -0.043 A 
ATOM     24  C   UNL     1       0.438   4.207   0.897  0.00  0.00    +0.007 A 
ATOM     25  C   UNL     1       0.609   5.567   1.069  0.00  0.00    +0.046 A 
ATOM     26  C   UNL     1       1.178   6.326   0.057  0.00  0.00    +0.121 A 
ATOM     27  C   UNL     1       1.579   5.716  -1.123  0.00  0.00    +0.046 A 
ATOM     28  C   UNL     1       1.410   4.355  -1.288  0.00  0.00    +0.007 A 
BRANCH  26  29
ATOM     29  O   UNL     1       1.343   7.665   0.221  0.00  0.00    -0.489 OA
BRANCH  29  30
ATOM     30  C   UNL     1       2.042   8.364  -0.811  0.00  0.00    +0.167 C 
ATOM     31  C   UNL     1       1.063   8.739  -1.926  0.00  0.00    +0.051 C 
ATOM     32  C   UNL     1       2.667   9.635  -0.233  0.00  0.00    +0.051 C 
ENDBRANCH  29  30
ENDBRANCH  26  29
ENDBRANCH  11  23
TORSDOF 6
