REMARK  Name = ZINC15821833
REMARK  3 active torsions:
REMARK  status: ('A' for Active; 'I' for Inactive)
REMARK    1  A    between atoms: C_4  and  C_7
REMARK    2  A    between atoms: C_7  and  C_9
REMARK    3  A    between atoms: C_18  and  C_21
REMARK                            x       y       z     vdW  Elec       q    Type
REMARK                         _______ _______ _______ _____ _____    ______ ____
ROOT
ATOM      1  C   UNL     1       3.720   3.547  -0.733  0.00  0.00    +0.024 A 
ATOM      2  C   UNL     1       2.931   3.494   0.422  0.00  0.00    +0.013 A 
ATOM      3  C   UNL     1       1.629   3.050   0.355  0.00  0.00    +0.025 A 
ATOM      4  C   UNL     1       1.098   2.654  -0.868  0.00  0.00    +0.049 A 
ATOM      5  C   UNL     1       1.863   2.750  -2.025  0.00  0.00    +0.053 A 
ATOM      6  C   UNL     1       3.175   3.170  -1.968  0.00  0.00    +0.036 A 
ATOM      7  N   UNL     1       1.241   2.418  -3.224  0.00  0.00    -0.316 N 
ATOM      8  C   UNL     1       0.770   1.182  -3.534  0.00  0.00    +0.017 C 
ATOM      9  C   UNL     1       0.014   0.417  -2.731  0.00  0.00    +0.036 C 
ATOM     10  C   UNL     1      -0.424   0.768  -1.328  0.00  0.00    +0.138 C 
ATOM     11  N   UNL     1      -0.188   2.147  -0.959  0.00  0.00    -0.331 N 
ATOM     12  C   UNL     1      -0.452  -0.843  -3.175  0.00  0.00    +0.163 C 
ATOM     13  O   UNL     1      -1.123  -1.519  -2.420  0.00  0.00    -0.292 OA
ATOM     14  C   UNL     1      -0.149  -1.374  -4.544  0.00  0.00    +0.080 C 
ATOM     15  C   UNL     1       0.054  -0.187  -5.494  0.00  0.00    +0.014 C 
ATOM     16  C   UNL     1       1.166   0.686  -4.916  0.00  0.00    +0.051 C 
ATOM     17  H   UNL     1       1.135   3.119  -3.886  0.00  0.00    +0.152 HD
ATOM     18  H   UNL     1      -0.943   2.728  -0.775  0.00  0.00    +0.147 HD
ENDROOT
BRANCH  10  19
ATOM     19  C   UNL     1       0.315  -0.120  -0.360  0.00  0.00    +0.002 A 
ATOM     20  C   UNL     1       1.462  -0.776  -0.594  0.00  0.00    +0.089 A 
ATOM     21  N   UNL     1       1.832  -1.482   0.519  0.00  0.00    -0.360 N 
ATOM     22  H   UNL     1       2.626  -2.034   0.590  0.00  0.00    +0.165 HD
ATOM     23  C   UNL     1       0.908  -1.291   1.522  0.00  0.00    +0.047 A 
ATOM     24  C   UNL     1      -0.080  -0.425   1.018  0.00  0.00    +0.005 A 
ATOM     25  C   UNL     1      -1.153  -0.047   1.826  0.00  0.00    +0.010 A 
ATOM     26  C   UNL     1      -1.238  -0.518   3.106  0.00  0.00    +0.001 A 
ATOM     27  C   UNL     1      -0.264  -1.370   3.609  0.00  0.00    +0.002 A 
ATOM     28  C   UNL     1       0.800  -1.762   2.826  0.00  0.00    +0.026 A 
ENDBRANCH  10  19
BRANCH   1  29
ATOM     29  C   UNL     1       5.121   3.996  -0.651  0.00  0.00    +0.193 C 
ATOM     30  O   UNL     1       5.430   4.885   0.119  0.00  0.00    -0.287 OA
BRANCH  29  34
ATOM     31  C   UNL     1       8.079   2.187  -3.103  0.00  0.00    +0.000 A 
ATOM     32  C   UNL     1       8.399   3.301  -2.347  0.00  0.00    +0.001 A 
ATOM     33  C   UNL     1       7.443   3.894  -1.549  0.00  0.00    +0.012 A 
ATOM     34  C   UNL     1       6.151   3.367  -1.504  0.00  0.00    +0.022 A 
ATOM     35  C   UNL     1       5.837   2.239  -2.265  0.00  0.00    +0.012 A 
ATOM     36  C   UNL     1       6.801   1.660  -3.064  0.00  0.00    +0.001 A 
ENDBRANCH  29  34
ENDBRANCH   1  29
TORSDOF 3
