REMARK  Name = ZINC13127855
REMARK  9 active torsions:
REMARK  status: ('A' for Active; 'I' for Inactive)
REMARK    1  A    between atoms: C_1  and  O_2
REMARK    2  A    between atoms: O_2  and  C_3
REMARK    3  A    between atoms: C_6  and  C_11
REMARK    4  A    between atoms: C_8  and  O_9
REMARK    5  A    between atoms: O_9  and  C_10
REMARK    6  A    between atoms: C_14  and  C_32
REMARK    7  A    between atoms: C_18  and  C_21
REMARK    8  A    between atoms: N_23  and  C_24
REMARK    9  A    between atoms: C_24  and  C_25
REMARK                            x       y       z     vdW  Elec       q    Type
REMARK                         _______ _______ _______ _____ _____    ______ ____
ROOT
ATOM      1  C   UNL     1       2.590  -2.548   4.315  0.00  0.00    +0.104 C 
ATOM      2  C   UNL     1       1.658  -2.573   5.532  0.00  0.00    +0.063 C 
ATOM      3  C   UNL     1       2.338  -3.309   6.692  0.00  0.00    +0.215 C 
ATOM      4  N   UNL     1       3.688  -2.765   6.872  0.00  0.00    -0.238 N 
ATOM      5  C   UNL     1       4.347  -2.064   5.920  0.00  0.00    +0.130 A 
ATOM      6  C   UNL     1       5.579  -1.712   6.438  0.00  0.00    +0.096 A 
ATOM      7  C   UNL     1       5.634  -2.238   7.754  0.00  0.00    +0.149 A 
ATOM      8  N   UNL     1       4.510  -2.857   7.994  0.00  0.00    -0.177 NA
ATOM      9  N   UNL     1       3.810  -1.797   4.671  0.00  0.00    -0.322 N 
ATOM     10  H   UNL     1       4.210  -1.153   4.067  0.00  0.00    +0.148 HD
ENDROOT
BRANCH   1  14
ATOM     11  C   UNL     1       0.626  -0.619   1.042  0.00  0.00    +0.162 A 
ATOM     12  C   UNL     1       1.202   0.137   2.051  0.00  0.00    +0.050 A 
ATOM     13  C   UNL     1       1.836  -0.490   3.108  0.00  0.00    +0.009 A 
ATOM     14  C   UNL     1       1.897  -1.870   3.161  0.00  0.00    -0.024 A 
ATOM     15  C   UNL     1       1.325  -2.630   2.158  0.00  0.00    +0.054 A 
ATOM     16  C   UNL     1       0.683  -2.008   1.099  0.00  0.00    +0.162 A 
BRANCH  11  18
ATOM     17  C   UNL     1      -0.017   1.425   0.010  0.00  0.00    +0.277 C 
ATOM     18  O   UNL     1       0.002  -0.004   0.002  0.00  0.00    -0.491 OA
ENDBRANCH  11  18
BRANCH  16  19
ATOM     19  O   UNL     1       0.115  -2.754   0.114  0.00  0.00    -0.491 OA
ATOM     20  C   UNL     1       0.211  -4.174   0.238  0.00  0.00    +0.277 C 
ENDBRANCH  16  19
ENDBRANCH   1  14
BRANCH   6  21
ATOM     21  C   UNL     1       6.628  -0.943   5.758  0.00  0.00    +0.249 C 
ATOM     22  O   UNL     1       6.453  -0.548   4.621  0.00  0.00    -0.270 OA
ATOM     23  N   UNL     1       7.786  -0.675   6.394  0.00  0.00    -0.309 N 
ATOM     24  H   UNL     1       7.927  -0.990   7.300  0.00  0.00    +0.149 HD
BRANCH  23  25
ATOM     25  C   UNL     1       8.834   0.093   5.715  0.00  0.00    +0.136 C 
BRANCH  25  26
ATOM     26  C   UNL     1      10.034   0.255   6.650  0.00  0.00    +0.135 C 
ATOM     27  C   UNL     1      11.093   1.164   5.989  0.00  0.00    +0.035 C 
ATOM     28  C   UNL     1      12.422   0.473   6.398  0.00  0.00    +0.031 C 
ATOM     29  C   UNL     1      11.993  -1.016   6.392  0.00  0.00    +0.160 C 
ATOM     30  O   UNL     1      10.642  -1.020   6.885  0.00  0.00    -0.375 OA
ENDBRANCH  25  26
ENDBRANCH  23  25
ENDBRANCH   6  21
BRANCH   3  31
ATOM     31  C   UNL     1       1.526  -3.108   7.973  0.00  0.00    +0.412 C 
ATOM     32  F   UNL     1       0.235  -3.617   7.792  0.00  0.00    -0.168 F 
ATOM     33  F   UNL     1       2.149  -3.781   9.030  0.00  0.00    -0.168 F 
ATOM     34  F   UNL     1       1.452  -1.743   8.269  0.00  0.00    -0.168 F 
ENDBRANCH   3  31
TORSDOF 7
