REMARK  Name = ZINC66859021
REMARK  6 active torsions:
REMARK  status: ('A' for Active; 'I' for Inactive)
REMARK    1  A    between atoms: C_1  and  C_2
REMARK    2  A    between atoms: N_11  and  C_12
REMARK    3  A    between atoms: C_12  and  N_13
REMARK    4  A    between atoms: C_16  and  N_19
REMARK    5  A    between atoms: C_20  and  C_22
REMARK    6  A    between atoms: C_22  and  C_23
REMARK                            x       y       z     vdW  Elec       q    Type
REMARK                         _______ _______ _______ _____ _____    ______ ____
ROOT
ATOM      1  N   UNL     1       2.496  -4.798  -1.865  0.00  0.00    +0.392 N 
ATOM      2  C   UNL     1       2.720  -3.410  -2.289  0.00  0.00    -0.075 C 
ATOM      3  C   UNL     1       4.082  -3.297  -2.978  0.00  0.00    +0.004 C 
ATOM      4  C   UNL     1       4.106  -4.217  -4.202  0.00  0.00    +0.069 C 
ATOM      5  C   UNL     1       3.797  -5.649  -3.759  0.00  0.00    +0.004 C 
ATOM      6  C   UNL     1       2.446  -5.675  -3.041  0.00  0.00    -0.075 C 
ATOM      7  H   UNL     1       3.249  -5.089  -1.261  0.00  0.00    -0.079 HD
ENDROOT
BRANCH   4   8
ATOM      8  N   UNL     1       5.432  -4.171  -4.823  0.00  0.00    -0.313 N 
ATOM      9  C   UNL     1       5.574  -4.460  -6.132  0.00  0.00    +0.213 C 
ATOM     10  O   UNL     1       4.603  -4.758  -6.796  0.00  0.00    -0.276 OA
ATOM     11  H   UNL     1       6.208  -3.933  -4.292  0.00  0.00    +0.149 HD
BRANCH   9  12
ATOM     12  C   UNL     1       6.938  -4.414  -6.771  0.00  0.00    +0.099 C 
BRANCH  12  13
ATOM     13  C   UNL     1       6.821  -4.781  -8.251  0.00  0.00    -0.002 C 
ATOM     14  C   UNL     1       6.428  -6.266  -8.398  0.00  0.00    +0.004 C 
ATOM     15  C   UNL     1       7.221  -6.747  -9.638  0.00  0.00    +0.000 C 
ATOM     16  C   UNL     1       8.573  -6.007  -9.488  0.00  0.00    +0.000 C 
ATOM     17  C   UNL     1       8.185  -4.616  -8.944  0.00  0.00    +0.004 C 
ENDBRANCH  12  13
ENDBRANCH   9  12
ENDBRANCH   4   8
BRANCH   1  18
ATOM     18  C   UNL     1       1.224  -4.886  -1.136  0.00  0.00    +0.051 C 
BRANCH  18  28
ATOM     19  C   UNL     1       3.950  -5.886   4.824  0.00  0.00    +0.008 C 
ATOM     20  C   UNL     1       3.548  -5.360   3.445  0.00  0.00    -0.009 C 
ATOM     21  C   UNL     1       2.808  -6.456   2.673  0.00  0.00    +0.010 C 
ATOM     22  C   UNL     1       2.610  -6.027   1.218  0.00  0.00    +0.054 C 
ATOM     23  C   UNL     1       1.963  -4.648   1.198  0.00  0.00    +0.030 A 
ATOM     24  C   UNL     1       1.992  -3.859   2.280  0.00  0.00    +0.014 A 
ATOM     25  S   UNL     1       1.126  -2.405   1.756  0.00  0.00    -0.031 S 
ATOM     26  C   UNL     1       0.775  -2.885   0.182  0.00  0.00    +0.289 A 
ATOM     27  O   UNL     1       0.176  -2.269  -0.681  0.00  0.00    -0.260 OA
ATOM     28  N   UNL     1       1.319  -4.116   0.107  0.00  0.00    -0.322 N 
ATOM     29  C   UNL     1       2.616  -4.150   3.607  0.00  0.00    +0.047 C 
ENDBRANCH  18  28
ENDBRANCH   1  18
TORSDOF 5
