REMARK  Name = ZINC38744130
REMARK  5 active torsions:
REMARK  status: ('A' for Active; 'I' for Inactive)
REMARK    1  A    between atoms: C_1  and  C_2
REMARK    2  A    between atoms: C_4  and  C_8
REMARK    3  A    between atoms: C_12  and  C_17
REMARK    4  A    between atoms: C_22  and  O_23
REMARK    5  A    between atoms: O_23  and  C_24
REMARK                            x       y       z     vdW  Elec       q    Type
REMARK                         _______ _______ _______ _____ _____    ______ ____
ROOT
ATOM      1  C   UNL     1      -0.964  -2.951   1.248  0.00  0.00    +0.182 C 
ATOM      2  N   UNL     1      -0.425  -4.337   1.261  0.00  0.00    -0.265 N 
ATOM      3  N   UNL     1      -1.262  -5.275   1.786  0.00  0.00    -0.220 N 
ATOM      4  C   UNL     1      -1.155  -6.551   2.333  0.00  0.00    +0.185 A 
ATOM      5  N   UNL     1      -2.363  -6.963   2.623  0.00  0.00    -0.127 NA
ATOM      6  N   UNL     1      -3.222  -6.054   2.322  0.00  0.00    -0.120 NA
ATOM      7  C   UNL     1      -2.609  -5.018   1.836  0.00  0.00    +0.211 A 
ATOM      8  S   UNL     1      -2.764  -3.357   1.208  0.00  0.00    -0.058 S 
ATOM      9  H   UNL     1      -0.106  -4.609   0.343  0.00  0.00    +0.168 HD
ENDROOT
BRANCH   1  13
ATOM     10  C   UNL     1      -0.018   1.503   0.010  0.00  0.00    +0.067 C 
ATOM     11  C   UNL     1       0.002  -0.004   0.002  0.00  0.00    +0.058 C 
ATOM     12  C   UNL     1      -1.086  -0.777   0.003  0.00  0.00    +0.029 C 
ATOM     13  C   UNL     1      -0.531  -2.190  -0.007  0.00  0.00    +0.185 C 
ATOM     14  N   UNL     1       0.926  -1.973  -0.013  0.00  0.00    -0.177 NA
ATOM     15  N   UNL     1       1.125  -0.756  -0.013  0.00  0.00    -0.159 NA
ENDBRANCH   1  13
BRANCH   4  16
ATOM     16  C   UNL     1       0.099  -7.304   2.547  0.00  0.00    +0.062 A 
ATOM     17  C   UNL     1       1.325  -6.740   2.194  0.00  0.00    +0.015 A 
ATOM     18  C   UNL     1       2.491  -7.448   2.396  0.00  0.00    +0.001 A 
ATOM     19  C   UNL     1       2.450  -8.717   2.947  0.00  0.00    +0.004 A 
ATOM     20  C   UNL     1       1.241  -9.287   3.300  0.00  0.00    +0.046 A 
ATOM     21  C   UNL     1       0.062  -8.586   3.109  0.00  0.00    +0.131 A 
BRANCH  21  22
ATOM     22  O   UNL     1      -1.127  -9.142   3.461  0.00  0.00    -0.494 OA
ATOM     23  C   UNL     1      -1.087 -10.453   4.029  0.00  0.00    +0.277 C 
ENDBRANCH  21  22
ENDBRANCH   4  16
TORSDOF 3
