REMARK  Name = ZINC39710236
REMARK  10 active torsions:
REMARK  status: ('A' for Active; 'I' for Inactive)
REMARK    1  A    between atoms: C_1  and  C_2
REMARK    2  A    between atoms: C_9  and  C_14
REMARK    3  A    between atoms: C_14  and  C_16
REMARK    4  A    between atoms: C_14  and  N_25
REMARK    5  A    between atoms: N_20  and  C_21
REMARK    6  A    between atoms: C_21  and  C_22
REMARK    7  A    between atoms: C_22  and  O_23
REMARK    8  A    between atoms: O_23  and  C_24
REMARK    9  A    between atoms: N_28  and  C_31
REMARK   10  A    between atoms: C_31  and  C_32
REMARK                            x       y       z     vdW  Elec       q    Type
REMARK                         _______ _______ _______ _____ _____    ______ ____
ROOT
ATOM      1  C   UNL     1      -1.152  -4.909   2.945  0.00  0.00    +0.142 C 
ENDROOT
BRANCH   1  10
ATOM      2  C   UNL     1       5.005  -4.122   6.479  0.00  0.00    +0.044 C 
ATOM      3  C   UNL     1       3.906  -3.642   5.566  0.00  0.00    -0.050 A 
ATOM      4  C   UNL     1       3.700  -2.272   5.406  0.00  0.00    +0.005 A 
ATOM      5  C   UNL     1       2.731  -1.765   4.601  0.00  0.00    +0.024 A 
ATOM      6  C   UNL     1       1.878  -2.623   3.882  0.00  0.00    +0.040 A 
ATOM      7  N   UNL     1       0.931  -2.115   3.095  0.00  0.00    -0.284 N 
ATOM      8  C   UNL     1       0.096  -2.863   2.393  0.00  0.00    +0.226 C 
ATOM      9  O   UNL     1      -0.749  -2.342   1.691  0.00  0.00    -0.275 OA
ATOM     10  C   UNL     1       0.198  -4.370   2.466  0.00  0.00    +0.123 C 
ATOM     11  C   UNL     1       1.275  -4.954   3.360  0.00  0.00    -0.003 C 
ATOM     12  C   UNL     1       2.072  -4.076   4.032  0.00  0.00    -0.007 A 
ATOM     13  C   UNL     1       3.139  -4.553   4.912  0.00  0.00    +0.012 A 
ATOM     14  H   UNL     1       0.849  -1.150   3.034  0.00  0.00    +0.155 HD
ENDBRANCH   1  10
BRANCH   1  15
ATOM     15  N   UNL     1      -1.133  -6.377   2.910  0.00  0.00    -0.295 NA
ATOM     16  C   UNL     1      -0.952  -6.869   1.537  0.00  0.00    +0.066 C 
ATOM     17  C   UNL     1      -0.879  -8.397   1.551  0.00  0.00    -0.063 C 
ATOM     18  N   UNL     1      -2.116  -8.942   2.125  0.00  0.00    +0.384 N 
ATOM     19  C   UNL     1      -2.271  -8.462   3.505  0.00  0.00    -0.063 C 
ATOM     20  C   UNL     1      -2.356  -6.934   3.507  0.00  0.00    +0.066 C 
ATOM     21  H   UNL     1      -2.905  -8.639   1.573  0.00  0.00    -0.081 HD
BRANCH  18  22
ATOM     22  C   UNL     1      -2.053 -10.409   2.122  0.00  0.00    -0.043 C 
BRANCH  22  23
ATOM     23  C   UNL     1      -3.369 -10.970   2.596  0.00  0.00    -0.060 A 
ATOM     24  C   UNL     1      -3.573 -11.207   3.943  0.00  0.00    +0.005 A 
ATOM     25  C   UNL     1      -4.778 -11.720   4.383  0.00  0.00    +0.050 A 
ATOM     26  C   UNL     1      -5.786 -12.000   3.474  0.00  0.00    +0.166 A 
ATOM     27  C   UNL     1      -5.580 -11.762   2.117  0.00  0.00    +0.166 A 
ATOM     28  C   UNL     1      -4.371 -11.242   1.684  0.00  0.00    +0.051 A 
ATOM     29  O   UNL     1      -6.709 -12.116   1.436  0.00  0.00    -0.453 OA
ATOM     30  C   UNL     1      -7.457 -12.952   2.339  0.00  0.00    +0.466 C 
ATOM     31  O   UNL     1      -7.043 -12.503   3.643  0.00  0.00    -0.453 OA
ENDBRANCH  22  23
ENDBRANCH  18  22
ENDBRANCH   1  15
BRANCH   1  32
ATOM     32  C   UNL     1      -1.406  -4.443   4.356  0.00  0.00    +0.170 A 
ATOM     33  N   UNL     1      -0.837  -4.899   5.445  0.00  0.00    -0.112 NA
ATOM     34  N   UNL     1      -1.318  -4.248   6.447  0.00  0.00    -0.023 NA
ATOM     35  N   UNL     1      -2.179  -3.389   6.026  0.00  0.00    -0.044 NA
ATOM     36  N   UNL     1      -2.258  -3.475   4.741  0.00  0.00    -0.225 N 
BRANCH  36  37
ATOM     37  C   UNL     1      -3.116  -2.672   3.866  0.00  0.00    +0.175 C 
BRANCH  37  38
ATOM     38  C   UNL     1      -4.467  -3.372   3.695  0.00  0.00    +0.183 C 
BRANCH  38  39
ATOM     39  O   UNL     1      -5.304  -2.589   2.842  0.00  0.00    -0.381 OA
ATOM     40  C   UNL     1      -6.596  -3.156   2.616  0.00  0.00    +0.194 C 
ENDBRANCH  38  39
ENDBRANCH  37  38
ENDBRANCH  36  37
ENDBRANCH   1  32
TORSDOF 8
