REMARK  Name = ZINC43560526
REMARK  2 active torsions:
REMARK  status: ('A' for Active; 'I' for Inactive)
REMARK    1  A    between atoms: C_8  and  C_11
REMARK    2  A    between atoms: C_13  and  C_16
REMARK                            x       y       z     vdW  Elec       q    Type
REMARK                         _______ _______ _______ _____ _____    ______ ____
ROOT
ATOM      1  C   UNL     1       3.545  -2.959   1.189  0.00  0.00    +0.248 A 
ATOM      2  N   UNL     1       4.009  -4.175   1.224  0.00  0.00    -0.190 NA
ATOM      3  C   UNL     1       4.365  -4.497   2.480  0.00  0.00    +0.203 A 
ATOM      4  N   UNL     1       4.125  -3.471   3.259  0.00  0.00    -0.056 NA
ATOM      5  O   UNL     1       3.591  -2.451   2.428  0.00  0.00    -0.336 OA
ENDROOT
BRANCH   1  13
ATOM      6  C   UNL     1      -0.017   1.378   0.010  0.00  0.00    +0.000 A 
ATOM      7  C   UNL     1       1.174   2.082   0.002  0.00  0.00    +0.002 A 
ATOM      8  C   UNL     1       2.377   1.411  -0.013  0.00  0.00    +0.023 A 
ATOM      9  C   UNL     1       2.405   0.014  -0.021  0.00  0.00    +0.031 A 
ATOM     10  C   UNL     1       1.206  -0.682  -0.013  0.00  0.00    -0.024 A 
ATOM     11  C   UNL     1       0.002  -0.004   0.002  0.00  0.00    +0.005 A 
ATOM     12  C   UNL     1       1.510  -2.163  -0.023  0.00  0.00    +0.069 C 
ATOM     13  C   UNL     1       3.046  -2.241  -0.038  0.00  0.00    +0.164 C 
ATOM     14  N   UNL     1       3.501  -0.849  -0.036  0.00  0.00    -0.332 N 
ATOM     15  H   UNL     1       4.430  -0.568  -0.044  0.00  0.00    +0.147 HD
ENDBRANCH   1  13
BRANCH   3  16
ATOM     16  C   UNL     1       4.936  -5.797   2.913  0.00  0.00    +0.036 A 
ATOM     17  C   UNL     1       5.149  -6.811   1.982  0.00  0.00    +0.013 A 
ATOM     18  C   UNL     1       5.680  -8.018   2.389  0.00  0.00    +0.001 A 
ATOM     19  C   UNL     1       6.001  -8.223   3.719  0.00  0.00    +0.001 A 
ATOM     20  C   UNL     1       5.791  -7.220   4.648  0.00  0.00    +0.016 A 
ATOM     21  C   UNL     1       5.265  -6.006   4.251  0.00  0.00    +0.029 A 
ATOM     22 BR   UNL     1       4.985  -4.633   5.521  0.00  0.00    -0.050 Br
ENDBRANCH   3  16
TORSDOF 2
