REMARK  Name = ZINC24483710
REMARK  8 active torsions:
REMARK  status: ('A' for Active; 'I' for Inactive)
REMARK    1  A    between atoms: C_1  and  C_2
REMARK    2  A    between atoms: C_5  and  N_9
REMARK    3  A    between atoms: C_6  and  C_8
REMARK    4  A    between atoms: C_13  and  S_14
REMARK    5  A    between atoms: S_14  and  C_15
REMARK    6  A    between atoms: C_15  and  C_17
REMARK    7  A    between atoms: C_15  and  C_18
REMARK    8  A    between atoms: N_20  and  C_21
REMARK                            x       y       z     vdW  Elec       q    Type
REMARK                         _______ _______ _______ _____ _____    ______ ____
ROOT
ATOM      1  C   UNL     1      -4.868   3.439   3.313  0.00  0.00    +0.137 C 
ATOM      2  C   UNL     1      -6.018   2.894   2.463  0.00  0.00    +0.029 C 
ENDROOT
BRANCH   1   3
ATOM      3  C   UNL     1      -4.966   2.880   4.708  0.00  0.00    +0.230 C 
ATOM      4  O   UNL     1      -4.268   1.944   5.037  0.00  0.00    -0.274 OA
ATOM      5  N   UNL     1      -5.830   3.419   5.592  0.00  0.00    -0.283 N 
ATOM      6  H   UNL     1      -6.410   4.313   5.318  0.00  0.00    +0.155 HD
BRANCH   5   7
ATOM      7  C   UNL     1      -5.989   2.841   6.857  0.00  0.00    +0.053 A 
ATOM      8  C   UNL     1      -4.903   2.261   7.498  0.00  0.00    +0.046 A 
ATOM      9  C   UNL     1      -5.062   1.692   8.748  0.00  0.00    +0.061 A 
ATOM     10  C   UNL     1      -6.305   1.701   9.360  0.00  0.00    +0.061 A 
ATOM     11  C   UNL     1      -7.389   2.278   8.723  0.00  0.00    +0.043 A 
ATOM     12  C   UNL     1      -7.233   2.853   7.476  0.00  0.00    +0.064 A 
ATOM     13 CL   UNL     1      -8.592   3.583   6.680  0.00  0.00    -0.082 Cl
ATOM     14 CL   UNL     1      -6.502   0.986  10.930  0.00  0.00    -0.082 Cl
ATOM     15 CL   UNL     1      -3.705   0.966   9.550  0.00  0.00    -0.082 Cl
ENDBRANCH   5   7
ENDBRANCH   1   3
BRANCH   1  16
ATOM     16  S   UNL     1      -3.289   2.950   2.576  0.00  0.00    -0.073 S 
BRANCH  16  21
ATOM     17  N   UNL     1      -2.426   3.849   0.068  0.00  0.00    -0.277 N 
ATOM     18  C   UNL     1      -2.925   4.667  -0.911  0.00  0.00    +0.230 A 
ATOM     19  N   UNL     1      -4.083   5.101  -0.500  0.00  0.00    -0.137 NA
ATOM     20  N   UNL     1      -4.350   4.619   0.660  0.00  0.00    -0.122 NA
ATOM     21  C   UNL     1      -3.371   3.838   1.057  0.00  0.00    +0.197 A 
BRANCH  17  26
ATOM     22  C   UNL     1       2.520   1.066   0.022  0.00  0.00    +0.044 C 
ATOM     23  C   UNL     1       1.207   1.805   0.034  0.00  0.00    -0.050 A 
ATOM     24  C   UNL     1       1.193   3.188   0.048  0.00  0.00    +0.005 A 
ATOM     25  C   UNL     1      -0.009   3.868   0.059  0.00  0.00    +0.027 A 
ATOM     26  C   UNL     1      -1.204   3.162   0.056  0.00  0.00    +0.053 A 
ATOM     27  C   UNL     1      -1.187   1.774   0.036  0.00  0.00    -0.026 A 
ATOM     28  C   UNL     1       0.018   1.099   0.030  0.00  0.00    +0.008 A 
ATOM     29  C   UNL     1      -2.483   1.004   0.027  0.00  0.00    +0.046 C 
ENDBRANCH  17  26
ENDBRANCH  16  21
ENDBRANCH   1  16
TORSDOF 5
