REMARK  Name = ZINC06144747
REMARK  8 active torsions:
REMARK  status: ('A' for Active; 'I' for Inactive)
REMARK    1  A    between atoms: C_1  and  C_2
REMARK    2  A    between atoms: C_3  and  C_30
REMARK    3  A    between atoms: C_4  and  C_21
REMARK    4  A    between atoms: C_9  and  S_11
REMARK    5  A    between atoms: S_11  and  C_12
REMARK    6  A    between atoms: C_12  and  C_13
REMARK    7  A    between atoms: C_24  and  N_27
REMARK    8  A    between atoms: N_32  and  C_33
REMARK                            x       y       z     vdW  Elec       q    Type
REMARK                         _______ _______ _______ _____ _____    ______ ____
ROOT
ATOM      1  C   UNL     1      -0.019   1.503   0.008  0.00  0.00    +0.061 C 
ATOM      2  C   UNL     1       0.002  -0.004  -0.008  0.00  0.00    +0.018 C 
ATOM      3  C   UNL     1      -1.163  -0.668  -0.005  0.00  0.00    +0.060 C 
ATOM      4  C   UNL     1      -1.253  -2.170  -0.032  0.00  0.00    +0.177 C 
ATOM      5  N   UNL     1       0.066  -2.741   0.231  0.00  0.00    -0.220 N 
ATOM      6  C   UNL     1       1.212  -2.016   0.225  0.00  0.00    +0.219 A 
ATOM      7  N   UNL     1       2.204  -2.823   0.488  0.00  0.00    -0.187 NA
ATOM      8  C   UNL     1       1.733  -4.066   0.672  0.00  0.00    +0.211 A 
ATOM      9  N   UNL     1       0.426  -4.055   0.524  0.00  0.00    -0.141 NA
ATOM     10  N   UNL     1       1.213  -0.651  -0.031  0.00  0.00    -0.287 N 
ATOM     11  H   UNL     1       2.037  -0.173  -0.215  0.00  0.00    +0.155 HD
ENDROOT
BRANCH   4  12
ATOM     12  C   UNL     1      -1.733  -2.620  -1.388  0.00  0.00    -0.018 A 
ATOM     13  C   UNL     1      -0.999  -2.314  -2.518  0.00  0.00    +0.008 A 
ATOM     14  C   UNL     1      -1.440  -2.727  -3.762  0.00  0.00    +0.033 A 
ATOM     15  C   UNL     1      -2.615  -3.447  -3.875  0.00  0.00    +0.126 A 
ATOM     16  C   UNL     1      -3.348  -3.754  -2.744  0.00  0.00    +0.033 A 
ATOM     17  C   UNL     1      -2.905  -3.345  -1.500  0.00  0.00    +0.008 A 
BRANCH  15  18
ATOM     18  N   UNL     1      -3.087  -3.888  -5.206  0.00  0.00    +0.056 N 
ATOM     19  O   UNL     1      -2.446  -3.619  -6.195  0.00  0.00    -0.126 OA
ATOM     20  O   UNL     1      -4.114  -4.518  -5.305  0.00  0.00    -0.126 OA
ENDBRANCH  15  18
ENDBRANCH   4  12
BRANCH   3  21
ATOM     21  C   UNL     1      -2.365   0.079   0.025  0.00  0.00    +0.248 C 
ATOM     22  O   UNL     1      -2.325   1.296   0.048  0.00  0.00    -0.270 OA
ATOM     23  N   UNL     1      -3.553  -0.557   0.029  0.00  0.00    -0.280 N 
ATOM     24  H   UNL     1      -3.587  -1.523  -0.057  0.00  0.00    +0.155 HD
BRANCH  23  25
ATOM     25  C   UNL     1      -4.738   0.176   0.156  0.00  0.00    +0.052 A 
ATOM     26  C   UNL     1      -4.853   1.439  -0.419  0.00  0.00    +0.026 A 
ATOM     27  C   UNL     1      -6.046   2.125  -0.266  0.00  0.00    +0.021 A 
ATOM     28  C   UNL     1      -7.075   1.540   0.447  0.00  0.00    +0.111 A 
ATOM     29  N   UNL     1      -6.935   0.342   0.980  0.00  0.00    -0.261 NA
ATOM     30  C   UNL     1      -5.818  -0.348   0.854  0.00  0.00    +0.134 A 
ENDBRANCH  23  25
ENDBRANCH   3  21
BRANCH   8  31
ATOM     31  S   UNL     1       2.709  -5.483   1.051  0.00  0.00    -0.080 S 
BRANCH  31  32
ATOM     32  C   UNL     1       4.405  -4.843   1.118  0.00  0.00    +0.115 C 
BRANCH  32  33
ATOM     33  C   UNL     1       5.354  -5.969   1.438  0.00  0.00    -0.002 A 
ATOM     34  C   UNL     1       5.655  -6.266   2.754  0.00  0.00    +0.007 A 
ATOM     35  C   UNL     1       6.526  -7.299   3.048  0.00  0.00    +0.000 A 
ATOM     36  C   UNL     1       7.097  -8.035   2.027  0.00  0.00    +0.003 A 
ATOM     37  C   UNL     1       6.797  -7.740   0.711  0.00  0.00    +0.038 A 
ATOM     38  C   UNL     1       5.921  -6.709   0.415  0.00  0.00    +0.127 A 
ATOM     39  F   UNL     1       5.624  -6.422  -0.871  0.00  0.00    -0.205 F 
ENDBRANCH  32  33
ENDBRANCH  31  32
ENDBRANCH   8  31
TORSDOF 7
