REMARK  Name = ZINC00461803
REMARK  2 active torsions:
REMARK  status: ('A' for Active; 'I' for Inactive)
REMARK    1  A    between atoms: C_3  and  C_11
REMARK    2  A    between atoms: C_4  and  N_8
REMARK                            x       y       z     vdW  Elec       q    Type
REMARK                         _______ _______ _______ _____ _____    ______ ____
ROOT
ATOM      1  C   UNL     1       3.564   2.199   0.573  0.00  0.00    +0.252 C 
ATOM      2  O   UNL     1       4.636   1.631   0.658  0.00  0.00    -0.270 OA
ATOM      3  N   UNL     1       3.492   3.533   0.750  0.00  0.00    -0.261 N 
ATOM      4  C   UNL     1       4.643   4.259   1.030  0.00  0.00    +0.165 A 
ATOM      5  N   UNL     1       5.876   3.821   1.152  0.00  0.00    -0.229 NA
ATOM      6  C   UNL     1       6.889   4.638   1.425  0.00  0.00    +0.054 A 
ATOM      7  C   UNL     1       6.547   5.945   1.564  0.00  0.00    +0.014 A 
ATOM      8  S   UNL     1       4.798   5.917   1.288  0.00  0.00    -0.057 S 
ATOM      9  C   UNL     1       7.445   7.095   1.870  0.00  0.00    +0.044 C 
ATOM     10  C   UNL     1       8.787   6.535   2.371  0.00  0.00    +0.006 C 
ATOM     11  C   UNL     1       9.242   5.422   1.423  0.00  0.00    +0.006 C 
ATOM     12  C   UNL     1       8.338   4.197   1.577  0.00  0.00    +0.056 C 
ATOM     13  H   UNL     1       2.637   3.986   0.682  0.00  0.00    +0.157 HD
ENDROOT
BRANCH   1  16
ATOM     14  C   UNL     1      -0.005   1.361  -0.238  0.00  0.00    +0.021 A 
ATOM     15  C   UNL     1       1.134   2.088   0.040  0.00  0.00    +0.017 A 
ATOM     16  C   UNL     1       2.340   1.426   0.275  0.00  0.00    +0.067 A 
ATOM     17  C   UNL     1       2.386   0.031   0.228  0.00  0.00    +0.140 A 
ATOM     18  C   UNL     1       1.241  -0.684  -0.050  0.00  0.00    +0.053 A 
ATOM     19  C   UNL     1       0.046  -0.022  -0.283  0.00  0.00    +0.043 A 
ATOM     20 CL   UNL     1      -1.391  -0.930  -0.633  0.00  0.00    -0.083 Cl
BRANCH  17  21
ATOM     21  N   UNL     1       3.661  -0.678   0.476  0.00  0.00    +0.057 N 
ATOM     22  O   UNL     1       4.051  -1.512  -0.307  0.00  0.00    -0.126 OA
ATOM     23  O   UNL     1       4.313  -0.423   1.462  0.00  0.00    -0.126 OA
ENDBRANCH  17  21
ENDBRANCH   1  16
TORSDOF 2
