REMARK  Name = ZINC64061442
REMARK  9 active torsions:
REMARK  status: ('A' for Active; 'I' for Inactive)
REMARK    1  A    between atoms: C_1  and  C_2
REMARK    2  A    between atoms: C_2  and  C_4
REMARK    3  A    between atoms: C_2  and  N_13
REMARK    4  A    between atoms: C_14  and  C_16
REMARK    5  A    between atoms: C_16  and  C_17
REMARK    6  A    between atoms: C_17  and  C_18
REMARK    7  A    between atoms: C_18  and  C_24
REMARK    8  A    between atoms: C_24  and  C_25
REMARK    9  A    between atoms: C_28  and  C_31
REMARK                            x       y       z     vdW  Elec       q    Type
REMARK                         _______ _______ _______ _____ _____    ______ ____
ROOT
ATOM      1  C   UNL     1       0.526  -1.680  -6.206  0.00  0.00    +0.039 C 
ATOM      2  C   UNL     1      -0.279  -1.467  -7.508  0.00  0.00    +0.035 C 
ATOM      3  C   UNL     1       0.848  -1.368  -8.562  0.00  0.00    +0.098 C 
ATOM      4  C   UNL     1       2.054  -0.905  -7.774  0.00  0.00    +0.214 C 
ATOM      5  O   UNL     1       3.062  -0.437  -8.259  0.00  0.00    -0.276 OA
ATOM      6  N   UNL     1       1.844  -1.086  -6.459  0.00  0.00    -0.309 N 
ATOM      7  H   UNL     1       2.482  -0.853  -5.766  0.00  0.00    +0.149 HD
ENDROOT
BRANCH   1   8
ATOM      8  C   UNL     1      -0.160  -0.969  -5.038  0.00  0.00    +0.035 C 
BRANCH   8   9
ATOM      9  C   UNL     1      -0.238   0.531  -5.328  0.00  0.00    +0.098 C 
BRANCH   9  11
ATOM     10  N   UNL     1      -0.957   2.585  -4.152  0.00  0.00    -0.309 N 
ATOM     11  C   UNL     1      -0.797   1.247  -4.126  0.00  0.00    +0.213 C 
ATOM     12  O   UNL     1      -1.103   0.619  -3.134  0.00  0.00    -0.276 OA
ATOM     13  H   UNL     1      -0.713   3.087  -4.945  0.00  0.00    +0.149 HD
BRANCH  10  15
ATOM     14  C   UNL     1      -3.030   3.244  -3.034  0.00  0.00    +0.032 C 
ATOM     15  C   UNL     1      -1.501   3.281  -2.983  0.00  0.00    +0.112 C 
BRANCH  15  16
ATOM     16  C   UNL     1      -1.025   4.735  -2.989  0.00  0.00    +0.194 C 
ATOM     17  N   UNL     1       0.437   4.787  -2.868  0.00  0.00    -0.362 N 
ATOM     18  C   UNL     1       0.716   5.441  -1.777  0.00  0.00    +0.060 A 
ATOM     19  C   UNL     1       1.982   5.812  -1.131  0.00  0.00    +0.027 A 
ATOM     20  C   UNL     1       1.960   6.508   0.024  0.00  0.00    +0.002 A 
ATOM     21  C   UNL     1       0.764   6.901   0.650  0.00  0.00    +0.002 A 
ATOM     22  C   UNL     1      -0.451   6.612   0.142  0.00  0.00    +0.027 A 
ATOM     23  C   UNL     1      -0.551   5.857  -1.115  0.00  0.00    +0.060 A 
ATOM     24  N   UNL     1      -1.563   5.446  -1.822  0.00  0.00    -0.362 N 
ATOM     25  H   UNL     1      -2.501   5.583  -1.616  0.00  0.00    +0.162 HD
ATOM     26  H   UNL     1       1.078   4.405  -3.487  0.00  0.00    +0.162 HD
ENDBRANCH  15  16
ENDBRANCH  10  15
ENDBRANCH   9  11
ENDBRANCH   8   9
ENDBRANCH   1   8
BRANCH   1  27
ATOM     27  C   UNL     1       0.667  -3.174  -5.907  0.00  0.00    +0.061 C 
BRANCH  27  28
ATOM     28  C   UNL     1       1.554  -3.363  -4.703  0.00  0.00    -0.045 A 
ATOM     29  C   UNL     1       2.928  -3.393  -4.857  0.00  0.00    +0.004 A 
ATOM     30  C   UNL     1       3.744  -3.567  -3.757  0.00  0.00    +0.009 A 
ATOM     31  C   UNL     1       3.182  -3.711  -2.491  0.00  0.00    -0.018 A 
ATOM     32  C   UNL     1       1.796  -3.680  -2.342  0.00  0.00    +0.009 A 
ATOM     33  C   UNL     1       0.990  -3.501  -3.447  0.00  0.00    +0.004 A 
BRANCH  31  34
ATOM     34  C   UNL     1       4.054  -3.898  -1.305  0.00  0.00    -0.018 A 
ATOM     35  C   UNL     1       5.439  -3.924  -1.454  0.00  0.00    +0.008 A 
ATOM     36  C   UNL     1       6.246  -4.098  -0.348  0.00  0.00    +0.001 A 
ATOM     37  C   UNL     1       5.682  -4.247   0.906  0.00  0.00    +0.000 A 
ATOM     38  C   UNL     1       4.308  -4.222   1.060  0.00  0.00    +0.001 A 
ATOM     39  C   UNL     1       3.491  -4.043  -0.039  0.00  0.00    +0.008 A 
ENDBRANCH  31  34
ENDBRANCH  27  28
ENDBRANCH   1  27
TORSDOF 8
