REMARK  Name = ZINC42100878
REMARK  4 active torsions:
REMARK  status: ('A' for Active; 'I' for Inactive)
REMARK    1  A    between atoms: C_1  and  C_2
REMARK    2  A    between atoms: C_4  and  C_22
REMARK    3  A    between atoms: C_11  and  N_13
REMARK    4  A    between atoms: N_13  and  C_14
REMARK                            x       y       z     vdW  Elec       q    Type
REMARK                         _______ _______ _______ _____ _____    ______ ____
ROOT
ATOM      1  C   UNL     1      -0.018   1.503   0.010  0.00  0.00    +0.044 C 
ATOM      2  C   UNL     1       0.002  -0.004   0.002  0.00  0.00    -0.048 A 
ATOM      3  C   UNL     1       0.006  -0.685  -1.202  0.00  0.00    +0.007 A 
ATOM      4  C   UNL     1       0.024  -2.069  -1.210  0.00  0.00    -0.043 A 
ATOM      5  C   UNL     1       0.039  -2.762  -0.020  0.00  0.00    +0.006 A 
ATOM      6  C   UNL     1       0.036  -2.090   1.195  0.00  0.00    +0.039 A 
ATOM      7  C   UNL     1       0.023  -0.696   1.195  0.00  0.00    +0.027 A 
ATOM      8  N   UNL     1       0.053  -3.002   2.251  0.00  0.00    -0.283 N 
ATOM      9  C   UNL     1       0.069  -4.275   1.823  0.00  0.00    +0.242 C 
ATOM     10  O   UNL     1       0.086  -5.269   2.518  0.00  0.00    -0.273 OA
ATOM     11  C   UNL     1       0.061  -4.237   0.310  0.00  0.00    +0.190 C 
ATOM     12  C   UNL     1       0.028  -2.816  -2.518  0.00  0.00    +0.044 C 
ATOM     13  H   UNL     1       0.055  -2.746   3.187  0.00  0.00    +0.155 HD
ENDROOT
BRANCH  11  14
ATOM     14  N   UNL     1       1.271  -4.865  -0.226  0.00  0.00    -0.328 N 
ATOM     15  H   UNL     1       2.066  -4.332  -0.382  0.00  0.00    +0.147 HD
BRANCH  14  16
ATOM     16  C   UNL     1       1.280  -6.233  -0.513  0.00  0.00    +0.047 A 
ATOM     17  C   UNL     1       0.141  -6.997  -0.296  0.00  0.00    +0.025 A 
ATOM     18  C   UNL     1       0.153  -8.349  -0.581  0.00  0.00    +0.017 A 
ATOM     19  C   UNL     1       1.298  -8.942  -1.081  0.00  0.00    +0.019 A 
ATOM     20  C   UNL     1       2.435  -8.185  -1.298  0.00  0.00    +0.037 A 
ATOM     21  C   UNL     1       2.428  -6.831  -1.021  0.00  0.00    +0.063 A 
ATOM     22 CL   UNL     1       3.852  -5.879  -1.301  0.00  0.00    -0.082 Cl
ATOM     23 BR   UNL     1       1.309 -10.793  -1.470  0.00  0.00    -0.050 Br
ENDBRANCH  14  16
ENDBRANCH  11  14
TORSDOF 2
