REMARK  Name = ZINC18410922
REMARK  7 active torsions:
REMARK  status: ('A' for Active; 'I' for Inactive)
REMARK    1  A    between atoms: C_1  and  C_2
REMARK    2  A    between atoms: C_2  and  C_4
REMARK    3  A    between atoms: C_2  and  N_13
REMARK    4  A    between atoms: C_14  and  C_16
REMARK    5  A    between atoms: C_16  and  N_17
REMARK    6  A    between atoms: C_20  and  C_24
REMARK    7  A    between atoms: C_20  and  C_25
REMARK                            x       y       z     vdW  Elec       q    Type
REMARK                         _______ _______ _______ _____ _____    ______ ____
ROOT
ATOM      1  C   UNL     1      -0.356   7.824   2.406  0.00  0.00    +0.213 C 
ENDROOT
BRANCH   1   2
ATOM      2  N   UNL     1      -1.278   8.852   2.894  0.00  0.00    -0.215 N 
ATOM      3  C   UNL     1      -2.008   8.740   4.022  0.00  0.00    +0.251 C 
ATOM      4  O   UNL     1      -2.026   7.804   4.792  0.00  0.00    -0.272 OA
ATOM      5  C   UNL     1      -2.803  10.027   4.125  0.00  0.00    +0.135 C 
ATOM      6  N   UNL     1      -2.389  10.786   2.932  0.00  0.00    -0.281 N 
ATOM      7  C   UNL     1      -1.494  10.021   2.280  0.00  0.00    +0.310 C 
ATOM      8  O   UNL     1      -0.947  10.353   1.247  0.00  0.00    -0.252 OA
ATOM      9  C   UNL     1      -4.304   9.737   4.084  0.00  0.00    +0.047 C 
ATOM     10  H   UNL     1      -2.698  11.667   2.670  0.00  0.00    +0.152 HD
BRANCH   5  11
ATOM     11  C   UNL     1      -2.439  10.775   5.382  0.00  0.00    -0.015 A 
ATOM     12  C   UNL     1      -2.035  10.081   6.506  0.00  0.00    +0.007 A 
ATOM     13  C   UNL     1      -1.696  10.767   7.658  0.00  0.00    +0.020 A 
ATOM     14  C   UNL     1      -1.773  12.148   7.688  0.00  0.00    +0.041 A 
ATOM     15  C   UNL     1      -2.183  12.841   6.563  0.00  0.00    +0.020 A 
ATOM     16  C   UNL     1      -2.516  12.155   5.411  0.00  0.00    +0.007 A 
ATOM     17 CL   UNL     1      -1.355  13.009   9.136  0.00  0.00    -0.084 Cl
ENDBRANCH   5  11
ENDBRANCH   1   2
BRANCH   1  19
ATOM     18  N   UNL     1      -0.444   5.846   0.924  0.00  0.00    -0.304 N 
ATOM     19  C   UNL     1      -1.095   6.878   1.495  0.00  0.00    +0.232 C 
ATOM     20  O   UNL     1      -2.276   7.046   1.276  0.00  0.00    -0.274 OA
ATOM     21  H   UNL     1       0.500   5.711   1.099  0.00  0.00    +0.149 HD
BRANCH  18  23
ATOM     22  C   UNL     1      -1.192   5.501  -1.379  0.00  0.00    +0.036 C 
ATOM     23  C   UNL     1      -1.163   4.926   0.038  0.00  0.00    +0.136 C 
BRANCH  23  24
ATOM     24  C   UNL     1      -0.463   3.591   0.025  0.00  0.00    +0.126 A 
ATOM     25  C   UNL     1      -1.080   2.402   0.019  0.00  0.00    +0.055 A 
ATOM     26  C   UNL     1      -0.017   1.390   0.010  0.00  0.00    +0.020 A 
ATOM     27  C   UNL     1       0.002  -0.004   0.002  0.00  0.00    +0.011 A 
ATOM     28  C   UNL     1       1.199  -0.666  -0.013  0.00  0.00    +0.001 A 
ATOM     29  C   UNL     1       2.392   0.042  -0.021  0.00  0.00    +0.004 A 
ATOM     30  C   UNL     1       2.393   1.420  -0.014  0.00  0.00    +0.047 A 
ATOM     31  C   UNL     1       1.188   2.112   0.002  0.00  0.00    +0.135 A 
ATOM     32  O   UNL     1       0.871   3.422   0.012  0.00  0.00    -0.458 OA
ENDBRANCH  23  24
ENDBRANCH  18  23
ENDBRANCH   1  19
TORSDOF 5
