REMARK  Name = ZINC10271802
REMARK  16 active torsions:
REMARK  status: ('A' for Active; 'I' for Inactive)
REMARK    1  A    between atoms: C_1  and  C_2
REMARK    2  A    between atoms: C_2  and  N_3
REMARK    3  A    between atoms: N_11  and  O_12
REMARK    4  A    between atoms: O_12  and  C_13
REMARK    5  A    between atoms: C_15  and  N_37
REMARK    6  A    between atoms: C_17  and  O_33
REMARK    7  A    between atoms: C_19  and  O_29
REMARK    8  A    between atoms: C_21  and  C_24
REMARK    9  A    between atoms: C_24  and  O_25
REMARK   10  A    between atoms: O_25  and  C_26
REMARK   11  A    between atoms: C_26  and  C_28
REMARK   12  A    between atoms: O_29  and  C_30
REMARK   13  A    between atoms: C_30  and  C_32
REMARK   14  A    between atoms: O_33  and  C_34
REMARK   15  A    between atoms: C_34  and  C_36
REMARK   16  A    between atoms: C_38  and  C_40
REMARK                            x       y       z     vdW  Elec       q    Type
REMARK                         _______ _______ _______ _____ _____    ______ ____
ROOT
ATOM      1  C   UNL     1       2.733   0.722  -1.441  0.00  0.00    +0.361 C 
ATOM      2  C   UNL     1       2.422   1.183  -0.015  0.00  0.00    +0.188 C 
ATOM      3  C   UNL     1       3.537   2.117   0.466  0.00  0.00    +0.246 C 
ATOM      4  C   UNL     1       3.661   3.291  -0.510  0.00  0.00    +0.251 C 
ATOM      5  C   UNL     1       3.924   2.749  -1.917  0.00  0.00    +0.204 C 
ATOM      6  O   UNL     1       2.866   1.864  -2.291  0.00  0.00    -0.328 OA
ENDROOT
BRANCH   2   7
ATOM      7  N   UNL     1       1.143   1.898   0.001  0.00  0.00    -0.303 N 
ATOM      8  C   UNL     1       0.384   1.895   1.115  0.00  0.00    +0.210 C 
ATOM      9  O   UNL     1       0.758   1.301   2.103  0.00  0.00    -0.276 OA
ATOM     10  C   UNL     1      -0.934   2.626   1.129  0.00  0.00    +0.109 C 
ATOM     11  H   UNL     1       0.844   2.374  -0.789  0.00  0.00    +0.149 HD
ENDBRANCH   2   7
BRANCH   1  12
ATOM     12  O   UNL     1       1.669  -0.104  -1.917  0.00  0.00    -0.359 OA
BRANCH  12  21
ATOM     13  N   UNL     1       0.262  -3.586  -4.593  0.00  0.00    -0.266 N 
ATOM     14  C   UNL     1      -0.769  -3.000  -3.865  0.00  0.00    +0.046 A 
ATOM     15  C   UNL     1      -2.130  -3.279  -3.807  0.00  0.00    +0.024 A 
ATOM     16  C   UNL     1      -2.956  -2.534  -2.988  0.00  0.00    +0.002 A 
ATOM     17  C   UNL     1      -2.443  -1.505  -2.218  0.00  0.00    +0.001 A 
ATOM     18  C   UNL     1      -1.094  -1.213  -2.263  0.00  0.00    +0.012 A 
ATOM     19  C   UNL     1      -0.254  -1.961  -3.080  0.00  0.00    +0.030 A 
ATOM     20  C   UNL     1       1.201  -1.906  -3.359  0.00  0.00    +0.174 C 
ATOM     21  N   UNL     1       2.077  -1.088  -2.850  0.00  0.00    -0.076 NA
ATOM     22  C   UNL     1       1.441  -2.993  -4.343  0.00  0.00    +0.273 C 
ATOM     23  O   UNL     1       2.512  -3.292  -4.834  0.00  0.00    -0.268 OA
BRANCH  13  25
ATOM     24  C   UNL     1       0.257  -6.027  -4.758  0.00  0.00    +0.025 C 
ATOM     25  C   UNL     1       0.083  -4.710  -5.517  0.00  0.00    +0.111 C 
ENDBRANCH  13  25
ENDBRANCH  12  21
ENDBRANCH   1  12
BRANCH   5  26
ATOM     26  C   UNL     1       3.989   3.913  -2.909  0.00  0.00    +0.267 C 
BRANCH  26  27
ATOM     27  O   UNL     1       4.354   3.410  -4.221  0.00  0.00    -0.462 OA
BRANCH  27  28
ATOM     28  C   UNL     1       4.455   4.311  -5.212  0.00  0.00    +0.304 C 
ATOM     29  O   UNL     1       4.245   5.480  -4.989  0.00  0.00    -0.251 OA
ATOM     30  C   UNL     1       4.829   3.863  -6.601  0.00  0.00    +0.136 C 
ENDBRANCH  27  28
ENDBRANCH  26  27
ENDBRANCH   5  26
BRANCH   4  31
ATOM     31  O   UNL     1       2.428   4.058  -0.508  0.00  0.00    -0.455 OA
BRANCH  31  32
ATOM     32  C   UNL     1       2.526   5.370  -0.773  0.00  0.00    +0.304 C 
ATOM     33  O   UNL     1       3.606   5.861  -1.000  0.00  0.00    -0.251 OA
ATOM     34  C   UNL     1       1.288   6.230  -0.789  0.00  0.00    +0.136 C 
ENDBRANCH  31  32
ENDBRANCH   4  31
BRANCH   3  35
ATOM     35  O   UNL     1       3.214   2.618   1.790  0.00  0.00    -0.456 OA
BRANCH  35  36
ATOM     36  C   UNL     1       4.244   2.906   2.601  0.00  0.00    +0.304 C 
ATOM     37  O   UNL     1       5.378   2.745   2.217  0.00  0.00    -0.251 OA
ATOM     38  C   UNL     1       3.986   3.431   3.990  0.00  0.00    +0.136 C 
ENDBRANCH  35  36
ENDBRANCH   3  35
TORSDOF 11
