REMARK  Name = ZINC16363225
REMARK  6 active torsions:
REMARK  status: ('A' for Active; 'I' for Inactive)
REMARK    1  A    between atoms: C_1  and  C_2
REMARK    2  A    between atoms: C_9  and  S_13
REMARK    3  A    between atoms: C_10  and  C_12
REMARK    4  A    between atoms: S_13  and  N_16
REMARK    5  A    between atoms: N_16  and  C_17
REMARK    6  A    between atoms: C_23  and  C_25
REMARK                            x       y       z     vdW  Elec       q    Type
REMARK                         _______ _______ _______ _____ _____    ______ ____
ROOT
ATOM      1  C   UNL     1       3.583   1.260  -0.599  0.00  0.00    +0.064 C 
ATOM      2  C   UNL     1       2.114   1.009  -0.371  0.00  0.00    +0.033 A 
ATOM      3  C   UNL     1       1.658  -0.243  -0.353  0.00  0.00    +0.070 A 
ATOM      4  S   UNL     1      -0.085   0.006  -0.058  0.00  0.00    -0.057 S 
ATOM      5  C   UNL     1      -0.056   1.784   0.016  0.00  0.00    +0.181 A 
ATOM      6  N   UNL     1       1.267   2.075  -0.186  0.00  0.00    -0.258 N 
ATOM      7  C   UNL     1       1.607   3.399  -0.183  0.00  0.00    +0.286 A 
ATOM      8  O   UNL     1       2.769   3.732  -0.357  0.00  0.00    -0.265 OA
ATOM      9  C   UNL     1       0.625   4.369   0.020  0.00  0.00    +0.191 A 
ATOM     10  C   UNL     1      -0.685   3.987   0.216  0.00  0.00    +0.073 A 
ATOM     11  N   UNL     1      -0.982   2.690   0.211  0.00  0.00    -0.226 NA
ATOM     12  C   UNL     1      -1.760   5.019   0.436  0.00  0.00    +0.068 C 
ENDROOT
BRANCH   9  13
ATOM     13  S   UNL     1       1.058   6.077   0.026  0.00  0.00    +0.066 S 
ATOM     14  O   UNL     1       2.181   6.214  -0.835  0.00  0.00    -0.153 OA
ATOM     15  O   UNL     1      -0.147   6.802  -0.173  0.00  0.00    -0.153 OA
BRANCH  13  16
ATOM     16  N   UNL     1       1.585   6.443   1.552  0.00  0.00    -0.186 NA
ATOM     17  H   UNL     1       1.084   7.066   2.102  0.00  0.00    +0.148 HD
BRANCH  16  18
ATOM     18  C   UNL     1       2.808   5.826   2.073  0.00  0.00    +0.079 C 
ATOM     19  C   UNL     1       2.444   4.585   2.891  0.00  0.00    +0.020 C 
ATOM     20  C   UNL     1       1.540   4.990   4.057  0.00  0.00    +0.002 C 
ATOM     21  C   UNL     1       2.277   5.991   4.950  0.00  0.00    +0.000 C 
ATOM     22  C   UNL     1       2.640   7.232   4.132  0.00  0.00    +0.005 C 
ATOM     23  C   UNL     1       3.544   6.828   2.966  0.00  0.00    +0.005 C 
ATOM     24  C   UNL     1       3.907   8.069   2.148  0.00  0.00    +0.009 C 
ENDBRANCH  16  18
ENDBRANCH  13  16
ENDBRANCH   9  13
TORSDOF 3
