REMARK  Name = ZINC36204925
REMARK  13 active torsions:
REMARK  status: ('A' for Active; 'I' for Inactive)
REMARK    1  A    between atoms: C_1  and  C_2
REMARK    2  A    between atoms: C_2  and  O_3
REMARK    3  A    between atoms: O_3  and  C_4
REMARK    4  A    between atoms: C_4  and  C_5
REMARK    5  A    between atoms: C_5  and  C_7
REMARK    6  A    between atoms: C_5  and  O_35
REMARK    7  A    between atoms: C_7  and  N_8
REMARK    8  A    between atoms: N_8  and  C_9
REMARK    9  A    between atoms: N_8  and  C_17
REMARK   10  A    between atoms: C_9  and  C_10
REMARK   11  A    between atoms: C_10  and  N_11
REMARK   12  A    between atoms: C_17  and  C_18
REMARK   13  A    between atoms: C_30  and  C_34
REMARK                            x       y       z     vdW  Elec       q    Type
REMARK                         _______ _______ _______ _____ _____    ______ ____
ROOT
ATOM      1  N   UNL     1      -4.583  -4.341   0.098  0.00  0.00    +0.387 N 
ATOM      2  H   UNL     1      -4.685  -3.590   0.764  0.00  0.00    -0.081 HD
ENDROOT
BRANCH   1   3
ATOM      3  C   UNL     1      -3.237  -4.296  -0.488  0.00  0.00    -0.044 C 
BRANCH   3   4
ATOM      4  C   UNL     1      -2.982  -2.906  -1.075  0.00  0.00    +0.124 C 
BRANCH   4   5
ATOM      5  O   UNL     1      -3.834  -2.702  -2.204  0.00  0.00    -0.391 OA
ATOM      6  H   UNL     1      -3.701  -3.341  -2.917  0.00  0.00    +0.210 HD
ENDBRANCH   4   5
BRANCH   4   7
ATOM      7  C   UNL     1      -1.520  -2.797  -1.513  0.00  0.00    +0.189 C 
BRANCH   7   8
ATOM      8  O   UNL     1      -1.253  -1.464  -1.952  0.00  0.00    -0.378 OA
BRANCH   8  10
ATOM      9  C   UNL     1       0.264   0.200  -2.831  0.00  0.00    +0.034 C 
ATOM     10  C   UNL     1       0.092  -1.253  -2.385  0.00  0.00    +0.156 C 
ENDBRANCH   8  10
ENDBRANCH   7   8
ENDBRANCH   4   7
ENDBRANCH   3   4
ENDBRANCH   1   3
BRANCH   1  11
ATOM     11  C   UNL     1      -5.586  -4.191  -0.966  0.00  0.00    -0.063 C 
BRANCH  11  12
ATOM     12  C   UNL     1      -5.333  -5.235  -2.055  0.00  0.00    +0.066 C 
BRANCH  12  13
ATOM     13  N   UNL     1      -6.266  -5.016  -3.169  0.00  0.00    -0.300 NA
ATOM     14  C   UNL     1      -7.652  -5.280  -2.755  0.00  0.00    +0.112 C 
ATOM     15  C   UNL     1      -8.594  -4.983  -3.925  0.00  0.00    +0.175 C 
ATOM     16  O   UNL     1      -8.206  -5.771  -5.054  0.00  0.00    -0.377 OA
ATOM     17  C   UNL     1      -6.862  -5.538  -5.484  0.00  0.00    +0.175 C 
ATOM     18  C   UNL     1      -5.903  -5.841  -4.330  0.00  0.00    +0.112 C 
ENDBRANCH  12  13
ENDBRANCH  11  12
ENDBRANCH   1  11
BRANCH   1  19
ATOM     19  C   UNL     1      -4.779  -5.629   0.777  0.00  0.00    -0.003 C 
BRANCH  19  20
ATOM     20  C   UNL     1      -6.092  -5.613   1.515  0.00  0.00    +0.094 A 
ATOM     21  N   UNL     1      -6.501  -6.728   2.174  0.00  0.00    -0.312 N 
ATOM     22  H   UNL     1      -5.941  -7.520   2.159  0.00  0.00    +0.170 HD
ATOM     23  C   UNL     1      -7.667  -6.757   2.846  0.00  0.00    +0.260 A 
ATOM     24  O   UNL     1      -8.019  -7.766   3.432  0.00  0.00    -0.267 OA
ATOM     25  C   UNL     1      -8.487  -5.582   2.861  0.00  0.00    +0.075 A 
ATOM     26  C   UNL     1      -9.779  -5.384   3.516  0.00  0.00    -0.023 A 
ATOM     27  C   UNL     1     -10.356  -4.171   3.379  0.00  0.00    -0.004 A 
ATOM     28  S   UNL     1      -9.226  -3.236   2.384  0.00  0.00    -0.073 S 
ATOM     29  C   UNL     1      -7.982  -4.480   2.153  0.00  0.00    +0.116 A 
ATOM     30  N   UNL     1      -6.815  -4.525   1.515  0.00  0.00    -0.229 NA
ATOM     31  C   UNL     1     -11.667  -3.720   3.947  0.00  0.00    +0.046 C 
ATOM     32  C   UNL     1     -12.448  -4.960   4.406  0.00  0.00    -0.009 C 
ATOM     33  C   UNL     1     -11.515  -5.850   5.232  0.00  0.00    +0.008 C 
ATOM     34  C   UNL     1     -10.462  -6.485   4.322  0.00  0.00    +0.037 C 
ATOM     35  C   UNL     1     -13.640  -4.527   5.261  0.00  0.00    +0.008 C 
ENDBRANCH  19  20
ENDBRANCH   1  19
TORSDOF 11
