REMARK  Name = ZINC36490435
REMARK  12 active torsions:
REMARK  status: ('A' for Active; 'I' for Inactive)
REMARK    1  A    between atoms: C_1  and  C_2
REMARK    2  A    between atoms: C_2  and  C_3
REMARK    3  A    between atoms: C_2  and  C_4
REMARK    4  A    between atoms: C_2  and  N_5
REMARK    5  A    between atoms: C_6  and  C_8
REMARK    6  A    between atoms: C_8  and  C_10
REMARK    7  A    between atoms: C_8  and  N_20
REMARK    8  A    between atoms: C_13  and  C_16
REMARK    9  A    between atoms: N_20  and  C_21
REMARK   10  A    between atoms: C_27  and  C_29
REMARK   11  A    between atoms: C_29  and  N_30
REMARK   12  A    between atoms: C_31  and  C_33
REMARK                            x       y       z     vdW  Elec       q    Type
REMARK                         _______ _______ _______ _____ _____    ______ ____
ROOT
ATOM      1  N   UNL     1       4.168  -0.498  -2.791  0.00  0.00    -0.282 N 
ATOM      2  C   UNL     1       4.892  -1.634  -2.732  0.00  0.00    +0.234 C 
ATOM      3  O   UNL     1       4.332  -2.709  -2.699  0.00  0.00    -0.274 OA
ENDROOT
BRANCH   1   4
ATOM      4  C   UNL     1       4.843   0.794  -2.930  0.00  0.00    +0.077 C 
ATOM      5  C   UNL     1       5.573   1.131  -1.628  0.00  0.00    +0.022 C 
ATOM      6  C   UNL     1       6.278   2.482  -1.774  0.00  0.00    +0.002 C 
ATOM      7  C   UNL     1       5.243   3.568  -2.074  0.00  0.00    +0.000 C 
ATOM      8  C   UNL     1       4.513   3.231  -3.375  0.00  0.00    +0.002 C 
ATOM      9  C   UNL     1       3.808   1.881  -3.230  0.00  0.00    +0.022 C 
ENDBRANCH   1   4
BRANCH   1  10
ATOM     10  C   UNL     1       2.706  -0.557  -2.715  0.00  0.00    +0.192 C 
BRANCH  10  11
ATOM     11  C   UNL     1       2.113   0.092  -3.939  0.00  0.00    -0.018 A 
ATOM     12  C   UNL     1       2.610  -0.213  -5.192  0.00  0.00    +0.006 A 
ATOM     13  C   UNL     1       2.066   0.382  -6.315  0.00  0.00    +0.013 A 
ATOM     14  C   UNL     1       1.025   1.282  -6.185  0.00  0.00    +0.055 A 
ATOM     15  C   UNL     1       0.527   1.586  -4.931  0.00  0.00    +0.013 A 
ATOM     16  C   UNL     1       1.068   0.988  -3.809  0.00  0.00    +0.006 A 
BRANCH  14  17
ATOM     17  C   UNL     1       0.432   1.931  -7.409  0.00  0.00    +0.417 C 
ATOM     18  F   UNL     1      -0.618   1.144  -7.892  0.00  0.00    -0.166 F 
ATOM     19  F   UNL     1      -0.052   3.201  -7.075  0.00  0.00    -0.166 F 
ATOM     20  F   UNL     1       1.417   2.053  -8.395  0.00  0.00    -0.166 F 
ENDBRANCH  14  17
ENDBRANCH  10  11
BRANCH  10  22
ATOM     21  N   UNL     1       0.935   0.145  -1.137  0.00  0.00    -0.309 N 
ATOM     22  C   UNL     1       2.237   0.173  -1.482  0.00  0.00    +0.238 C 
ATOM     23  O   UNL     1       3.032   0.786  -0.801  0.00  0.00    -0.273 OA
ATOM     24  H   UNL     1       0.299  -0.345  -1.682  0.00  0.00    +0.149 HD
BRANCH  21  26
ATOM     25  C   UNL     1       0.792   2.346  -0.079  0.00  0.00    +0.031 C 
ATOM     26  C   UNL     1       0.479   0.855   0.061  0.00  0.00    +0.026 C 
ATOM     27  C   UNL     1       1.200   0.296   1.290  0.00  0.00    +0.031 C 
ATOM     28  C   UNL     1      -1.030   0.664   0.224  0.00  0.00    +0.031 C 
ENDBRANCH  21  26
ENDBRANCH  10  22
ENDBRANCH   1  10
BRANCH   2  29
ATOM     29  C   UNL     1       6.397  -1.567  -2.708  0.00  0.00    +0.200 C 
BRANCH  29  30
ATOM     30  N   UNL     1       6.947  -2.921  -2.815  0.00  0.00    -0.303 N 
ATOM     31  C   UNL     1       8.282  -3.107  -2.815  0.00  0.00    +0.244 C 
ATOM     32  O   UNL     1       9.029  -2.152  -2.725  0.00  0.00    -0.270 OA
ATOM     33  H   UNL     1       6.351  -3.682  -2.887  0.00  0.00    +0.150 HD
BRANCH  31  34
ATOM     34  C   UNL     1       8.838  -4.473  -2.923  0.00  0.00    +0.037 A 
ATOM     35  C   UNL     1       7.983  -5.571  -3.031  0.00  0.00    +0.013 A 
ATOM     36  C   UNL     1       8.507  -6.843  -3.132  0.00  0.00    +0.001 A 
ATOM     37  C   UNL     1       9.878  -7.031  -3.125  0.00  0.00    +0.000 A 
ATOM     38  C   UNL     1      10.731  -5.947  -3.018  0.00  0.00    +0.001 A 
ATOM     39  C   UNL     1      10.220  -4.670  -2.922  0.00  0.00    +0.013 A 
ENDBRANCH  31  34
ENDBRANCH  29  30
ENDBRANCH   2  29
TORSDOF 9
