REMARK  Name = ZINC21860846
REMARK  11 active torsions:
REMARK  status: ('A' for Active; 'I' for Inactive)
REMARK    1  A    between atoms: C_1  and  C_2
REMARK    2  A    between atoms: C_2  and  N_3
REMARK    3  A    between atoms: N_3  and  C_4
REMARK    4  A    between atoms: N_3  and  C_6
REMARK    5  A    between atoms: C_4  and  C_5
REMARK    6  A    between atoms: C_6  and  C_7
REMARK    7  A    between atoms: C_7  and  N_8
REMARK    8  A    between atoms: C_21  and  C_22
REMARK    9  A    between atoms: C_21  and  C_23
REMARK   10  A    between atoms: N_25  and  C_26
REMARK   11  A    between atoms: C_29  and  C_32
REMARK                            x       y       z     vdW  Elec       q    Type
REMARK                         _______ _______ _______ _____ _____    ______ ____
ROOT
ATOM      1  N   UNL     1       2.503  -0.395   0.533  0.00  0.00    -0.281 N 
ATOM      2  C   UNL     1       2.417   0.895   0.934  0.00  0.00    +0.283 C 
ATOM      3  O   UNL     1       3.394   1.616   0.980  0.00  0.00    -0.267 OA
ATOM      4  C   UNL     1       1.068   1.382   1.316  0.00  0.00    +0.198 A 
ATOM      5  N   UNL     1       0.658   2.592   1.559  0.00  0.00    -0.223 NA
ATOM      6  C   UNL     1      -0.647   2.571   1.842  0.00  0.00    +0.090 A 
ATOM      7  C   UNL     1      -1.549   3.596   2.165  0.00  0.00    +0.030 A 
ATOM      8  C   UNL     1      -2.850   3.232   2.398  0.00  0.00    +0.002 A 
ATOM      9  C   UNL     1      -3.274   1.914   2.324  0.00  0.00    +0.002 A 
ATOM     10  C   UNL     1      -2.410   0.880   2.012  0.00  0.00    +0.028 A 
ATOM     11  C   UNL     1      -1.080   1.218   1.770  0.00  0.00    +0.069 A 
ATOM     12  N   UNL     1       0.015   0.491   1.450  0.00  0.00    -0.317 N 
ATOM     13  C   UNL     1       0.194  -0.950   1.260  0.00  0.00    +0.159 C 
ATOM     14  C   UNL     1       1.315  -1.193   0.251  0.00  0.00    +0.128 C 
ATOM     15  C   UNL     1       1.698  -2.674   0.284  0.00  0.00    +0.043 C 
ENDROOT
BRANCH  14  16
ATOM     16  C   UNL     1       0.813  -0.850  -1.128  0.00  0.00    +0.238 C 
ATOM     17  O   UNL     1       0.365  -1.721  -1.844  0.00  0.00    -0.273 OA
ATOM     18  N   UNL     1       0.862   0.424  -1.565  0.00  0.00    -0.311 N 
ATOM     19  H   UNL     1       1.268   1.213  -0.916  0.00  0.00    +0.149 HD
BRANCH  18  20
ATOM     20  C   UNL     1       0.374   0.757  -2.906  0.00  0.00    +0.073 C 
ATOM     21  C   UNL     1       1.487   0.518  -3.928  0.00  0.00    +0.022 C 
ATOM     22  C   UNL     1       2.689   1.401  -3.589  0.00  0.00    +0.005 C 
ATOM     23  C   UNL     1       2.269   2.872  -3.627  0.00  0.00    -0.014 C 
ATOM     24  C   UNL     1       1.156   3.111  -2.605  0.00  0.00    +0.005 C 
ATOM     25  C   UNL     1      -0.046   2.228  -2.945  0.00  0.00    +0.022 C 
ATOM     26  C   UNL     1       3.471   3.755  -3.288  0.00  0.00    +0.007 C 
ENDBRANCH  18  20
ENDBRANCH  14  16
BRANCH   1  27
ATOM     27  C   UNL     1       3.825  -1.005   0.376  0.00  0.00    +0.091 C 
BRANCH  27  28
ATOM     28  C   UNL     1       4.322  -0.786  -1.054  0.00  0.00    -0.060 C 
BRANCH  28  29
ATOM     29  N   UNL     1       5.648  -1.399  -1.211  0.00  0.00    +0.380 N 
ATOM     30  H   UNL     1       5.583  -2.440  -0.864  0.00  0.00    -0.082 HD
BRANCH  29  32
ATOM     31  C   UNL     1       5.294  -2.524  -3.357  0.00  0.00    -0.017 C 
ATOM     32  C   UNL     1       6.055  -1.419  -2.623  0.00  0.00    -0.082 C 
ENDBRANCH  29  32
BRANCH  29  33
ATOM     33  C   UNL     1       6.648  -0.709  -0.385  0.00  0.00    -0.082 C 
ATOM     34  C   UNL     1       7.895  -1.586  -0.255  0.00  0.00    -0.017 C 
ENDBRANCH  29  33
ENDBRANCH  28  29
ENDBRANCH  27  28
ENDBRANCH   1  27
TORSDOF 7
