REMARK  Name = ZINC20860276
REMARK  5 active torsions:
REMARK  status: ('A' for Active; 'I' for Inactive)
REMARK    1  A    between atoms: C_1  and  O_2
REMARK    2  A    between atoms: O_2  and  C_3
REMARK    3  A    between atoms: C_3  and  C_5
REMARK    4  A    between atoms: C_6  and  N_10
REMARK    5  A    between atoms: C_26  and  C_28
REMARK                            x       y       z     vdW  Elec       q    Type
REMARK                         _______ _______ _______ _____ _____    ______ ____
ROOT
ATOM      1  N   UNL     1       5.643   6.880  -1.499  0.00  0.00    -0.268 N 
ATOM      2  C   UNL     1       4.392   7.226  -1.135  0.00  0.00    +0.307 C 
ATOM      3  O   UNL     1       3.872   8.215  -1.614  0.00  0.00    -0.252 OA
ATOM      4  N   UNL     1       3.718   6.476  -0.242  0.00  0.00    -0.273 N 
ATOM      5  C   UNL     1       4.371   5.348   0.441  0.00  0.00    +0.115 C 
ATOM      6  C   UNL     1       3.678   4.045   0.024  0.00  0.00    +0.056 C 
ATOM      7  C   UNL     1       2.186   4.248   0.075  0.00  0.00    -0.015 A 
ATOM      8  C   UNL     1       1.146   3.224   0.108  0.00  0.00    +0.003 A 
ATOM      9  C   UNL     1       1.151   1.827   0.111  0.00  0.00    +0.010 A 
ATOM     10  C   UNL     1      -0.030   1.143   0.144  0.00  0.00    +0.001 A 
ATOM     11  C   UNL     1      -1.240   1.825   0.169  0.00  0.00    +0.002 A 
ATOM     12  C   UNL     1      -1.269   3.201   0.173  0.00  0.00    +0.026 A 
ATOM     13  C   UNL     1      -0.078   3.919   0.140  0.00  0.00    +0.047 A 
ATOM     14  N   UNL     1       0.216   5.266   0.131  0.00  0.00    -0.356 N 
ATOM     15  H   UNL     1      -0.597   6.006   0.153  0.00  0.00    +0.166 HD
ATOM     16  C   UNL     1       1.569   5.445   0.092  0.00  0.00    +0.046 A 
ATOM     17  C   UNL     1       2.309   6.765   0.076  0.00  0.00    +0.155 C 
ATOM     18  H   UNL     1       6.080   5.936  -1.138  0.00  0.00    +0.156 HD
ENDROOT
BRANCH  17  19
ATOM     19  C   UNL     1       2.213   7.423   1.428  0.00  0.00    -0.021 A 
ATOM     20  C   UNL     1       2.610   6.735   2.560  0.00  0.00    +0.008 A 
ATOM     21  C   UNL     1       2.528   7.339   3.800  0.00  0.00    +0.038 A 
ATOM     22  C   UNL     1       2.038   8.630   3.910  0.00  0.00    +0.123 A 
ATOM     23  C   UNL     1       1.636   9.315   2.776  0.00  0.00    +0.038 A 
ATOM     24  C   UNL     1       1.724   8.711   1.537  0.00  0.00    +0.008 A 
ATOM     25  F   UNL     1       1.951   9.219   5.123  0.00  0.00    -0.205 F 
ENDBRANCH  17  19
BRANCH   1  27
ATOM     26  C   UNL     1       7.727   7.465  -2.616  0.00  0.00    +0.117 A 
ATOM     27  C   UNL     1       6.385   7.717  -2.332  0.00  0.00    +0.056 A 
ATOM     28  C   UNL     1       5.825   8.832  -2.921  0.00  0.00    +0.032 A 
ATOM     29  C   UNL     1       6.592   9.616  -3.719  0.00  0.00    +0.048 A 
ATOM     30  S   UNL     1       8.134   8.824  -3.698  0.00  0.00    -0.088 S 
BRANCH  26  31
ATOM     31  C   UNL     1       8.550   6.407  -2.165  0.00  0.00    +0.347 C 
ATOM     32  O   UNL     1       8.096   5.557  -1.422  0.00  0.00    -0.244 OA
BRANCH  31  34
ATOM     33  C   UNL     1      10.612   5.245  -2.065  0.00  0.00    +0.280 C 
ATOM     34  O   UNL     1       9.839   6.340  -2.559  0.00  0.00    -0.464 OA
ENDBRANCH  31  34
ENDBRANCH  26  31
ENDBRANCH   1  27
TORSDOF 4
