REMARK  Name = ZINC01459840
REMARK  11 active torsions:
REMARK  status: ('A' for Active; 'I' for Inactive)
REMARK    1  A    between atoms: C_1  and  C_2
REMARK    2  A    between atoms: C_2  and  C_39
REMARK    3  A    between atoms: C_6  and  C_26
REMARK    4  A    between atoms: N_8  and  C_16
REMARK    5  A    between atoms: C_16  and  N_18
REMARK    6  A    between atoms: N_18  and  C_19
REMARK    7  A    between atoms: C_19  and  C_20
REMARK    8  A    between atoms: C_29  and  O_34
REMARK    9  A    between atoms: C_30  and  O_32
REMARK   10  A    between atoms: O_32  and  C_33
REMARK   11  A    between atoms: O_34  and  C_35
REMARK                            x       y       z     vdW  Elec       q    Type
REMARK                         _______ _______ _______ _____ _____    ______ ____
ROOT
ATOM      1  C   UNL     1      -2.046  -2.568   5.806  0.00  0.00    +0.011 C 
ATOM      2  C   UNL     1      -2.702  -1.663   6.852  0.00  0.00    -0.023 C 
ATOM      3  C   UNL     1      -3.515  -0.573   6.155  0.00  0.00    +0.058 C 
ATOM      4  C   UNL     1      -2.606   0.256   5.261  0.00  0.00    +0.017 C 
ATOM      5  C   UNL     1      -1.330   0.481   5.614  0.00  0.00    +0.037 C 
ATOM      6  C   UNL     1      -0.334   1.305   4.842  0.00  0.00    +0.146 C 
ATOM      7  N   UNL     1      -0.755   1.667   3.505  0.00  0.00    -0.269 N 
ATOM      8  C   UNL     1      -1.858   2.496   3.297  0.00  0.00    +0.057 A 
ATOM      9  C   UNL     1      -1.723   3.751   2.725  0.00  0.00    +0.025 A 
ATOM     10  C   UNL     1      -2.840   4.555   2.579  0.00  0.00    +0.002 A 
ATOM     11  C   UNL     1      -4.081   4.114   3.002  0.00  0.00    +0.002 A 
ATOM     12  C   UNL     1      -4.222   2.854   3.558  0.00  0.00    +0.025 A 
ATOM     13  C   UNL     1      -3.109   2.041   3.685  0.00  0.00    +0.053 A 
ATOM     14  N   UNL     1      -3.197   0.729   4.135  0.00  0.00    -0.316 N 
ATOM     15  C   UNL     1      -0.806  -0.090   6.798  0.00  0.00    +0.163 C 
ATOM     16  O   UNL     1       0.347   0.146   7.101  0.00  0.00    -0.292 OA
ATOM     17  C   UNL     1      -1.621  -0.974   7.693  0.00  0.00    +0.086 C 
ATOM     18  C   UNL     1      -3.613  -2.493   7.757  0.00  0.00    +0.011 C 
ATOM     19  H   UNL     1      -3.720   0.106   3.605  0.00  0.00    +0.152 HD
ENDROOT
BRANCH   6  20
ATOM     20  C   UNL     1      -0.063   2.569   5.617  0.00  0.00    -0.018 A 
ATOM     21  C   UNL     1      -1.070   3.500   5.791  0.00  0.00    +0.009 A 
ATOM     22  C   UNL     1      -0.829   4.658   6.506  0.00  0.00    +0.050 A 
ATOM     23  C   UNL     1       0.428   4.893   7.041  0.00  0.00    +0.162 A 
ATOM     24  C   UNL     1       1.443   3.958   6.861  0.00  0.00    +0.162 A 
ATOM     25  C   UNL     1       1.192   2.797   6.148  0.00  0.00    +0.055 A 
BRANCH  24  26
ATOM     26  O   UNL     1       2.678   4.184   7.384  0.00  0.00    -0.491 OA
ATOM     27  C   UNL     1       3.671   3.181   7.159  0.00  0.00    +0.277 C 
ENDBRANCH  24  26
BRANCH  23  28
ATOM     28  O   UNL     1       0.669   6.035   7.739  0.00  0.00    -0.491 OA
ATOM     29  C   UNL     1      -0.420   6.949   7.884  0.00  0.00    +0.277 C 
ENDBRANCH  23  28
ENDBRANCH   6  20
BRANCH   7  30
ATOM     30  C   UNL     1      -0.073   1.192   2.444  0.00  0.00    +0.138 C 
ATOM     31  S   UNL     1       1.283   0.175   2.684  0.00  0.00    -0.018 S 
BRANCH  30  32
ATOM     32  N   UNL     1      -0.458   1.518   1.195  0.00  0.00    -0.324 N 
ATOM     33  H   UNL     1      -1.226   2.095   1.059  0.00  0.00    +0.148 HD
BRANCH  32  34
ATOM     34  C   UNL     1       0.283   1.002   0.041  0.00  0.00    +0.134 C 
BRANCH  34  35
ATOM     35  C   UNL     1      -0.356   1.518  -1.249  0.00  0.00    +0.135 C 
ATOM     36  C   UNL     1       0.417   0.981  -2.469  0.00  0.00    +0.035 C 
ATOM     37  C   UNL     1      -0.647   0.202  -3.279  0.00  0.00    +0.031 C 
ATOM     38  C   UNL     1      -1.970   0.818  -2.755  0.00  0.00    +0.160 C 
ATOM     39  O   UNL     1      -1.706   1.036  -1.352  0.00  0.00    -0.375 OA
ENDBRANCH  34  35
ENDBRANCH  32  34
ENDBRANCH  30  32
ENDBRANCH   7  30
TORSDOF 7
