REMARK  Name = ZINC44174492
REMARK  12 active torsions:
REMARK  status: ('A' for Active; 'I' for Inactive)
REMARK    1  A    between atoms: C_1  and  C_2
REMARK    2  A    between atoms: C_2  and  C_3
REMARK    3  A    between atoms: C_2  and  C_4
REMARK    4  A    between atoms: C_2  and  N_5
REMARK    5  A    between atoms: C_10  and  C_28
REMARK    6  A    between atoms: C_13  and  C_18
REMARK    7  A    between atoms: C_13  and  C_25
REMARK    8  A    between atoms: C_18  and  C_19
REMARK    9  A    between atoms: C_19  and  C_20
REMARK   10  A    between atoms: C_20  and  N_21
REMARK   11  A    between atoms: C_31  and  C_34
REMARK   12  A    between atoms: C_35  and  C_36
REMARK                            x       y       z     vdW  Elec       q    Type
REMARK                         _______ _______ _______ _____ _____    ______ ____
ROOT
ATOM      1  N   UNL     1       1.004  -0.068  -1.026  0.00  0.00    -0.236 N 
ATOM      2  C   UNL     1       0.242  -0.830  -1.877  0.00  0.00    +0.225 C 
ATOM      3  O   UNL     1      -0.965  -0.945  -1.889  0.00  0.00    -0.275 OA
ATOM      4  C   UNL     1       1.198  -1.464  -2.754  0.00  0.00    +0.077 C 
ATOM      5  C   UNL     1       1.258  -2.140  -4.058  0.00  0.00    -0.027 C 
ATOM      6  N   UNL     1       2.708  -2.086  -4.437  0.00  0.00    +0.395 N 
ATOM      7  C   UNL     1       3.417  -1.272  -3.396  0.00  0.00    +0.048 C 
ATOM      8  C   UNL     1       2.294  -0.335  -2.901  0.00  0.00    +0.086 C 
ATOM      9  C   UNL     1       2.293   0.071  -1.453  0.00  0.00    +0.225 C 
ATOM     10  O   UNL     1       3.244   0.443  -0.799  0.00  0.00    -0.275 OA
ATOM     11  H   UNL     1       3.091  -3.020  -4.460  0.00  0.00    -0.083 HD
ATOM     12  H   UNL     1       2.810  -1.650  -5.341  0.00  0.00    -0.083 HD
ENDROOT
BRANCH   5  13
ATOM     13  C   UNL     1       0.418  -1.406  -5.071  0.00  0.00    -0.061 A 
ATOM     14  C   UNL     1       0.920  -0.275  -5.691  0.00  0.00    +0.002 A 
ATOM     15  C   UNL     1       0.157   0.402  -6.619  0.00  0.00    +0.008 A 
ATOM     16  C   UNL     1      -1.125  -0.057  -6.933  0.00  0.00    -0.025 A 
ATOM     17  C   UNL     1      -1.625  -1.199  -6.303  0.00  0.00    +0.008 A 
ATOM     18  C   UNL     1      -0.849  -1.869  -5.380  0.00  0.00    +0.002 A 
BRANCH  16  19
ATOM     19  C   UNL     1      -1.946   0.662  -7.924  0.00  0.00    +0.008 C 
ATOM     20  C   UNL     1      -3.178   0.218  -8.223  0.00  0.00    +0.008 C 
BRANCH  20  21
ATOM     21  C   UNL     1      -3.999   0.937  -9.214  0.00  0.00    -0.025 A 
ATOM     22  C   UNL     1      -3.497   2.076  -9.848  0.00  0.00    +0.008 A 
ATOM     23  C   UNL     1      -4.271   2.743 -10.775  0.00  0.00    +0.001 A 
ATOM     24  C   UNL     1      -5.542   2.286 -11.077  0.00  0.00    +0.000 A 
ATOM     25  C   UNL     1      -6.046   1.158 -10.453  0.00  0.00    +0.001 A 
ATOM     26  C   UNL     1      -5.281   0.478  -9.528  0.00  0.00    +0.008 A 
ENDBRANCH  20  21
ENDBRANCH  16  19
ENDBRANCH   5  13
BRANCH   1  28
ATOM     27  C   UNL     1       0.634   2.057   0.127  0.00  0.00    +0.031 C 
ATOM     28  C   UNL     1       0.487   0.536   0.204  0.00  0.00    +0.036 C 
ATOM     29  C   UNL     1       1.278   0.007   1.403  0.00  0.00    +0.031 C 
ATOM     30  C   UNL     1      -0.990   0.174   0.369  0.00  0.00    +0.031 C 
ENDBRANCH   1  28
BRANCH   7  31
ATOM     31  C   UNL     1       4.535  -0.472  -4.014  0.00  0.00    +0.346 C 
ATOM     32  O   UNL     1       4.768  -0.571  -5.207  0.00  0.00    -0.248 OA
ATOM     33  O   UNL     1       5.207   0.273  -3.321  0.00  0.00    -0.248 OA
ENDBRANCH   7  31
BRANCH   7  34
ATOM     34  C   UNL     1       3.944  -2.167  -2.273  0.00  0.00    +0.001 C 
BRANCH  34  35
ATOM     35  C   UNL     1       4.994  -3.126  -2.837  0.00  0.00    +0.018 C 
BRANCH  35  36
ATOM     36  C   UNL     1       5.522  -4.021  -1.713  0.00  0.00    +0.105 C 
BRANCH  36  37
ATOM     37  N   UNL     1       6.527  -4.940  -2.253  0.00  0.00    -0.300 N 
ATOM     38  C   UNL     1       7.134  -5.828  -1.440  0.00  0.00    +0.297 C 
ATOM     39  O   UNL     1       6.846  -5.867  -0.259  0.00  0.00    -0.253 OA
ATOM     40  N   UNL     1       8.059  -6.674  -1.936  0.00  0.00    -0.313 N 
ATOM     41  H   UNL     1       6.757  -4.910  -3.195  0.00  0.00    +0.150 HD
ATOM     42  H   UNL     1       8.288  -6.643  -2.878  0.00  0.00    +0.146 HD
ATOM     43  H   UNL     1       8.495  -7.313  -1.351  0.00  0.00    +0.146 HD
ENDBRANCH  36  37
ENDBRANCH  35  36
ENDBRANCH  34  35
ENDBRANCH   7  34
TORSDOF 9
