REMARK  Name = ZINC00857338
REMARK  7 active torsions:
REMARK  status: ('A' for Active; 'I' for Inactive)
REMARK    1  A    between atoms: C_1  and  O_2
REMARK    2  A    between atoms: O_2  and  C_3
REMARK    3  A    between atoms: C_6  and  C_9
REMARK    4  A    between atoms: C_9  and  N_10
REMARK    5  A    between atoms: C_16  and  S_17
REMARK    6  A    between atoms: S_17  and  C_18
REMARK    7  A    between atoms: C_18  and  C_19
REMARK                            x       y       z     vdW  Elec       q    Type
REMARK                         _______ _______ _______ _____ _____    ______ ____
ROOT
ATOM      1  N   UNL     1       4.691   5.425  -0.048  0.00  0.00    -0.283 N 
ATOM      2  C   UNL     1       3.546   6.047   0.308  0.00  0.00    +0.259 A 
ATOM      3  O   UNL     1       3.544   7.235   0.590  0.00  0.00    -0.267 OA
ATOM      4  C   UNL     1       2.362   5.301   0.346  0.00  0.00    +0.050 A 
ATOM      5  C   UNL     1       2.405   3.958   0.007  0.00  0.00    +0.083 A 
ATOM      6  N   UNL     1       3.572   3.389  -0.318  0.00  0.00    -0.223 NA
ATOM      7  C   UNL     1       4.684   4.096  -0.347  0.00  0.00    +0.173 A 
ATOM      8  C   UNL     1       1.150   3.173   0.007  0.00  0.00    +0.004 A 
ATOM      9  C   UNL     1       1.174   1.782   0.000  0.00  0.00    +0.010 A 
ATOM     10  C   UNL     1      -0.013   1.076   0.008  0.00  0.00    +0.001 A 
ATOM     11  C   UNL     1      -1.220   1.751   0.017  0.00  0.00    +0.000 A 
ATOM     12  C   UNL     1      -1.249   3.134   0.019  0.00  0.00    +0.004 A 
ATOM     13  C   UNL     1      -0.070   3.850   0.001  0.00  0.00    -0.037 A 
ATOM     14  C   UNL     1      -0.096   5.354  -0.056  0.00  0.00    +0.047 C 
ATOM     15  C   UNL     1       1.062   5.944   0.748  0.00  0.00    +0.007 C 
ATOM     16  C   UNL     1       0.819   5.700   2.241  0.00  0.00    +0.012 C 
ATOM     17  C   UNL     1      -0.498   6.358   2.656  0.00  0.00    +0.001 C 
ATOM     18  C   UNL     1      -0.421   7.864   2.396  0.00  0.00    +0.000 C 
ATOM     19  C   UNL     1      -0.174   8.110   0.906  0.00  0.00    +0.001 C 
ATOM     20  C   UNL     1       1.142   7.451   0.491  0.00  0.00    +0.012 C 
ENDROOT
BRANCH   1  21
ATOM     21  C   UNL     1       5.944   6.181  -0.112  0.00  0.00    +0.162 C 
BRANCH  21  25
ATOM     22  C   UNL     1       7.887   6.040   3.692  0.00  0.00    +0.120 A 
ATOM     23  C   UNL     1       8.155   5.068   2.739  0.00  0.00    +0.046 A 
ATOM     24  C   UNL     1       7.525   5.116   1.510  0.00  0.00    +0.009 A 
ATOM     25  C   UNL     1       6.630   6.131   1.230  0.00  0.00    -0.027 A 
ATOM     26  C   UNL     1       6.366   7.104   2.176  0.00  0.00    +0.009 A 
ATOM     27  C   UNL     1       6.988   7.058   3.408  0.00  0.00    +0.046 A 
BRANCH  22  29
ATOM     28  C   UNL     1       8.182   7.029   5.834  0.00  0.00    +0.277 C 
ATOM     29  O   UNL     1       8.505   5.996   4.902  0.00  0.00    -0.495 OA
ENDBRANCH  22  29
ENDBRANCH  21  25
ENDBRANCH   1  21
BRANCH   7  30
ATOM     30  S   UNL     1       6.196   3.304  -0.783  0.00  0.00    -0.078 S 
BRANCH  30  31
ATOM     31  C   UNL     1       5.598   1.618  -1.063  0.00  0.00    +0.172 C 
BRANCH  31  32
ATOM     32  C   UNL     1       6.754   0.735  -1.458  0.00  0.00    +0.221 C 
ATOM     33  O   UNL     1       7.871   1.199  -1.543  0.00  0.00    -0.275 OA
ATOM     34  N   UNL     1       6.545  -0.571  -1.718  0.00  0.00    -0.329 N 
ATOM     35  H   UNL     1       5.651  -0.943  -1.651  0.00  0.00    +0.145 HD
ATOM     36  H   UNL     1       7.288  -1.140  -1.973  0.00  0.00    +0.145 HD
ENDBRANCH  31  32
ENDBRANCH  30  31
ENDBRANCH   7  30
TORSDOF 6
