REMARK  Name = ZINC36066169
REMARK  14 active torsions:
REMARK  status: ('A' for Active; 'I' for Inactive)
REMARK    1  A    between atoms: C_1  and  C_2
REMARK    2  A    between atoms: C_2  and  O_3
REMARK    3  A    between atoms: O_3  and  C_4
REMARK    4  A    between atoms: C_4  and  C_5
REMARK    5  A    between atoms: C_5  and  C_6
REMARK    6  A    between atoms: C_6  and  N_7
REMARK    7  A    between atoms: C_8  and  C_33
REMARK    8  A    between atoms: C_16  and  C_22
REMARK    9  A    between atoms: N_24  and  C_25
REMARK   10  A    between atoms: C_28  and  O_31
REMARK   11  A    between atoms: O_31  and  C_32
REMARK   12  A    between atoms: N_35  and  C_36
REMARK   13  A    between atoms: C_41  and  C_46
REMARK   14  A    between atoms: C_43  and  C_45
REMARK                            x       y       z     vdW  Elec       q    Type
REMARK                         _______ _______ _______ _____ _____    ______ ____
ROOT
ATOM      1  N   UNL     1       1.874  -4.706  -4.045  0.00  0.00    -0.286 N 
ATOM      2  C   UNL     1       1.346  -4.877  -5.435  0.00  0.00    +0.198 C 
ATOM      3  C   UNL     1       2.465  -5.614  -6.102  0.00  0.00    +0.127 C 
ATOM      4  C   UNL     1       2.583  -7.054  -5.635  0.00  0.00    +0.009 C 
ATOM      5  C   UNL     1       3.597  -7.570  -6.313  0.00  0.00    +0.004 C 
ATOM      6  C   UNL     1       4.141  -6.410  -7.157  0.00  0.00    +0.155 C 
ATOM      7  O   UNL     1       2.895  -5.648  -7.442  0.00  0.00    -0.358 OA
ATOM      8  C   UNL     1       4.859  -5.518  -6.072  0.00  0.00    +0.123 C 
ATOM      9  C   UNL     1       3.657  -4.782  -5.479  0.00  0.00    +0.128 C 
ATOM     10  C   UNL     1       3.247  -4.751  -4.064  0.00  0.00    +0.223 C 
ATOM     11  O   UNL     1       3.983  -4.764  -3.099  0.00  0.00    -0.275 OA
ENDROOT
BRANCH   8  12
ATOM     12  C   UNL     1       5.556  -6.371  -5.044  0.00  0.00    +0.224 C 
ATOM     13  O   UNL     1       5.225  -6.309  -3.879  0.00  0.00    -0.275 OA
ATOM     14  N   UNL     1       6.547  -7.203  -5.419  0.00  0.00    -0.285 N 
ATOM     15  H   UNL     1       6.761  -7.310  -6.359  0.00  0.00    +0.155 HD
BRANCH  14  16
ATOM     16  C   UNL     1       7.269  -7.914  -4.452  0.00  0.00    +0.034 A 
ATOM     17  C   UNL     1       7.754  -9.183  -4.740  0.00  0.00    +0.027 A 
ATOM     18  C   UNL     1       8.466  -9.883  -3.786  0.00  0.00    +0.047 A 
ATOM     19  C   UNL     1       8.697  -9.319  -2.540  0.00  0.00    +0.120 A 
ATOM     20  C   UNL     1       8.213  -8.051  -2.251  0.00  0.00    +0.047 A 
ATOM     21  C   UNL     1       7.506  -7.348  -3.206  0.00  0.00    +0.027 A 
BRANCH  19  22
ATOM     22  O   UNL     1       9.398 -10.008  -1.601  0.00  0.00    -0.495 OA
ATOM     23  C   UNL     1       9.598  -9.367  -0.340  0.00  0.00    +0.277 C 
ENDBRANCH  19  22
ENDBRANCH  14  16
ENDBRANCH   8  12
BRANCH   2  24
ATOM     24  C   UNL     1       0.083  -5.698  -5.434  0.00  0.00    +0.237 C 
ATOM     25  O   UNL     1      -0.188  -6.394  -4.478  0.00  0.00    -0.274 OA
ATOM     26  N   UNL     1      -0.746  -5.660  -6.496  0.00  0.00    -0.311 N 
ATOM     27  H   UNL     1      -0.530  -5.104  -7.260  0.00  0.00    +0.149 HD
BRANCH  26  28
ATOM     28  C   UNL     1      -1.974  -6.459  -6.495  0.00  0.00    +0.076 C 
ATOM     29  C   UNL     1      -1.661  -7.877  -6.977  0.00  0.00    +0.022 C 
ATOM     30  C   UNL     1      -2.943  -8.711  -6.976  0.00  0.00    +0.002 C 
ATOM     31  C   UNL     1      -3.969  -8.070  -7.913  0.00  0.00    +0.003 C 
ATOM     32  C   UNL     1      -4.283  -6.652  -7.431  0.00  0.00    -0.009 C 
ATOM     33  C   UNL     1      -3.001  -5.817  -7.432  0.00  0.00    +0.009 C 
ATOM     34  C   UNL     1      -2.430  -5.760  -8.850  0.00  0.00    +0.009 C 
ATOM     35  C   UNL     1      -5.309  -6.011  -8.368  0.00  0.00    +0.008 C 
ENDBRANCH  26  28
ENDBRANCH   2  24
BRANCH   1  36
ATOM     36  C   UNL     1       1.052  -4.515  -2.847  0.00  0.00    +0.111 C 
BRANCH  36  37
ATOM     37  C   UNL     1       0.810  -3.020  -2.628  0.00  0.00    +0.047 C 
BRANCH  37  38
ATOM     38  C   UNL     1      -0.048  -2.821  -1.377  0.00  0.00    +0.161 C 
BRANCH  38  39
ATOM     39  O   UNL     1      -0.274  -1.425  -1.172  0.00  0.00    -0.380 OA
BRANCH  39  41
ATOM     40  C   UNL     1      -1.246   0.388   0.097  0.00  0.00    +0.034 C 
ATOM     41  C   UNL     1      -1.070  -1.127  -0.023  0.00  0.00    +0.156 C 
ENDBRANCH  39  41
ENDBRANCH  38  39
ENDBRANCH  37  38
ENDBRANCH  36  37
ENDBRANCH   1  36
TORSDOF 10
