REMARK  Name = ZINC40121878
REMARK  9 active torsions:
REMARK  status: ('A' for Active; 'I' for Inactive)
REMARK    1  A    between atoms: C_1  and  C_2
REMARK    2  A    between atoms: C_2  and  C_4
REMARK    3  A    between atoms: C_2  and  N_7
REMARK    4  A    between atoms: N_7  and  C_8
REMARK    5  A    between atoms: C_8  and  C_9
REMARK    6  A    between atoms: C_15  and  C_17
REMARK    7  A    between atoms: C_17  and  S_18
REMARK    8  A    between atoms: S_18  and  C_21
REMARK    9  A    between atoms: C_21  and  C_22
REMARK                            x       y       z     vdW  Elec       q    Type
REMARK                         _______ _______ _______ _____ _____    ______ ____
ROOT
ATOM      1  N   UNL     1       1.139  -0.579  -1.409  0.00  0.00    -0.293 N 
ATOM      2  C   UNL     1       2.385  -0.468  -1.911  0.00  0.00    +0.237 C 
ATOM      3  O   UNL     1       2.634  -0.900  -3.016  0.00  0.00    -0.274 OA
ENDROOT
BRANCH   1   5
ATOM      4  C   UNL     1       0.184  -1.015   0.801  0.00  0.00    +0.028 C 
ATOM      5  C   UNL     1       0.811   0.035  -0.119  0.00  0.00    +0.076 C 
BRANCH   5   6
ATOM      6  C   UNL     1      -0.180   1.180  -0.337  0.00  0.00    +0.009 C 
ATOM      7  C   UNL     1       0.346   2.608  -0.185  0.00  0.00    +0.005 C 
ATOM      8  C   UNL     1      -0.574   2.014   0.884  0.00  0.00    +0.005 C 
ENDBRANCH   5   6
ENDBRANCH   1   5
BRANCH   1   9
ATOM      9  C   UNL     1       0.112  -1.313  -2.152  0.00  0.00    +0.143 C 
BRANCH   9  10
ATOM     10  C   UNL     1      -0.520  -0.400  -3.171  0.00  0.00    -0.030 A 
ATOM     11  C   UNL     1      -1.769   0.143  -2.932  0.00  0.00    +0.005 A 
ATOM     12  C   UNL     1      -2.349   0.981  -3.866  0.00  0.00    +0.000 A 
ATOM     13  C   UNL     1      -1.680   1.276  -5.039  0.00  0.00    +0.000 A 
ATOM     14  C   UNL     1      -0.431   0.734  -5.278  0.00  0.00    +0.000 A 
ATOM     15  C   UNL     1       0.151  -0.101  -4.342  0.00  0.00    +0.005 A 
ENDBRANCH   9  10
ENDBRANCH   1   9
BRANCH   2  16
ATOM     16  C   UNL     1       3.468   0.193  -1.099  0.00  0.00    +0.261 C 
BRANCH  16  17
ATOM     17  S   UNL     1       4.982   0.309  -2.091  0.00  0.00    -0.019 S 
ATOM     18  O   UNL     1       5.451  -1.006  -2.351  0.00  0.00    -0.174 OA
ATOM     19  O   UNL     1       4.737   1.185  -3.183  0.00  0.00    -0.174 OA
BRANCH  17  20
ATOM     20  C   UNL     1       6.144   1.119  -0.957  0.00  0.00    +0.201 C 
BRANCH  20  21
ATOM     21  C   UNL     1       7.475   1.292  -1.641  0.00  0.00    -0.025 A 
ATOM     22  C   UNL     1       8.432   0.299  -1.552  0.00  0.00    +0.005 A 
ATOM     23  C   UNL     1       9.654   0.458  -2.180  0.00  0.00    +0.002 A 
ATOM     24  C   UNL     1       9.919   1.610  -2.895  0.00  0.00    +0.020 A 
ATOM     25  C   UNL     1       8.962   2.605  -2.984  0.00  0.00    +0.041 A 
ATOM     26  C   UNL     1       7.737   2.442  -2.361  0.00  0.00    +0.025 A 
ATOM     27 CL   UNL     1       9.294   4.052  -3.882  0.00  0.00    -0.084 Cl
ENDBRANCH  20  21
ENDBRANCH  17  20
ENDBRANCH  16  17
ENDBRANCH   2  16
TORSDOF 8
