REMARK  Name = ZINC67610515
REMARK  7 active torsions:
REMARK  status: ('A' for Active; 'I' for Inactive)
REMARK    1  A    between atoms: C_4  and  C_7
REMARK    2  A    between atoms: C_7  and  C_9
REMARK    3  A    between atoms: C_7  and  N_14
REMARK    4  A    between atoms: N_17  and  C_18
REMARK    5  A    between atoms: C_18  and  C_19
REMARK    6  A    between atoms: C_19  and  C_21
REMARK    7  A    between atoms: C_19  and  O_31
REMARK                            x       y       z     vdW  Elec       q    Type
REMARK                         _______ _______ _______ _____ _____    ______ ____
ROOT
ATOM      1  N   UNL     1       3.611  -1.865  -0.930  0.00  0.00    -0.286 N 
ATOM      2  C   UNL     1       4.721  -2.370  -1.504  0.00  0.00    +0.301 C 
ATOM      3  O   UNL     1       5.805  -1.866  -1.281  0.00  0.00    -0.253 OA
ATOM      4  N   UNL     1       4.629  -3.435  -2.325  0.00  0.00    -0.297 N 
ATOM      5  H   UNL     1       2.747  -2.267  -1.108  0.00  0.00    +0.151 HD
ATOM      6  H   UNL     1       3.765  -3.837  -2.503  0.00  0.00    +0.150 HD
ENDROOT
BRANCH   1   7
ATOM      7  C   UNL     1       3.711  -0.707  -0.038  0.00  0.00    +0.171 C 
BRANCH   7  11
ATOM      8  C   UNL     1      -0.017   1.378   0.010  0.00  0.00    +0.000 A 
ATOM      9  C   UNL     1       1.171   2.086   0.002  0.00  0.00    +0.000 A 
ATOM     10  C   UNL     1       2.377   1.411  -0.013  0.00  0.00    +0.006 A 
ATOM     11  C   UNL     1       2.396   0.029  -0.020  0.00  0.00    -0.020 A 
ATOM     12  C   UNL     1       1.208  -0.679  -0.012  0.00  0.00    +0.006 A 
ATOM     13  C   UNL     1       0.002  -0.004   0.002  0.00  0.00    +0.000 A 
ENDBRANCH   7  11
BRANCH   7  14
ATOM     14  C   UNL     1       4.044  -1.175   1.356  0.00  0.00    +0.129 A 
ATOM     15  C   UNL     1       4.893  -0.570   2.207  0.00  0.00    +0.047 A 
ATOM     16  C   UNL     1       4.904  -1.342   3.391  0.00  0.00    +0.041 A 
ATOM     17  C   UNL     1       4.061  -2.372   3.193  0.00  0.00    +0.195 A 
ATOM     18  O   UNL     1       3.539  -2.262   1.961  0.00  0.00    -0.466 OA
ENDBRANCH   7  14
ENDBRANCH   1   7
BRANCH   4  19
ATOM     19  C   UNL     1       5.835  -3.985  -2.949  0.00  0.00    +0.141 C 
BRANCH  19  20
ATOM     20  C   UNL     1       5.456  -5.180  -3.826  0.00  0.00    +0.162 C 
BRANCH  20  21
ATOM     21  C   UNL     1       6.697  -5.746  -4.468  0.00  0.00    -0.017 A 
ATOM     22  C   UNL     1       7.468  -6.675  -3.771  0.00  0.00    +0.007 A 
ATOM     23  C   UNL     1       8.594  -7.205  -4.321  0.00  0.00    +0.009 A 
ATOM     24  C   UNL     1       8.988  -6.812  -5.612  0.00  0.00    -0.018 A 
ATOM     25  C   UNL     1      10.145  -7.338  -6.213  0.00  0.00    +0.008 A 
ATOM     26  C   UNL     1      10.496  -6.934  -7.465  0.00  0.00    +0.001 A 
ATOM     27  C   UNL     1       9.725  -6.006  -8.162  0.00  0.00    +0.001 A 
ATOM     28  C   UNL     1       8.599  -5.476  -7.611  0.00  0.00    +0.008 A 
ATOM     29  C   UNL     1       8.204  -5.868  -6.321  0.00  0.00    -0.018 A 
ATOM     30  C   UNL     1       7.045  -5.346  -5.721  0.00  0.00    +0.014 A 
ENDBRANCH  20  21
BRANCH  20  31
ATOM     31  O   UNL     1       4.836  -6.184  -3.021  0.00  0.00    -0.386 OA
ATOM     32  H   UNL     1       5.398  -6.520  -2.309  0.00  0.00    +0.210 HD
ENDBRANCH  20  31
ENDBRANCH  19  20
ENDBRANCH   4  19
TORSDOF 7
