REMARK  Name = ZINC64363472
REMARK  6 active torsions:
REMARK  status: ('A' for Active; 'I' for Inactive)
REMARK    1  A    between atoms: C_1  and  C_2
REMARK    2  A    between atoms: C_3  and  C_21
REMARK    3  A    between atoms: C_5  and  S_7
REMARK    4  A    between atoms: S_7  and  C_8
REMARK    5  A    between atoms: C_8  and  C_9
REMARK    6  A    between atoms: C_12  and  C_14
REMARK                            x       y       z     vdW  Elec       q    Type
REMARK                         _______ _______ _______ _____ _____    ______ ____
ROOT
ATOM      1  C   UNL     1       0.074  -3.896   4.416  0.00  0.00    +0.090 A 
ATOM      2  C   UNL     1      -1.003  -4.503   4.946  0.00  0.00    +0.221 A 
ATOM      3  O   UNL     1      -0.552  -5.445   5.799  0.00  0.00    -0.443 OA
ATOM      4  C   UNL     1       0.791  -5.403   5.780  0.00  0.00    +0.229 A 
ATOM      5  N   UNL     1       1.169  -4.470   4.939  0.00  0.00    -0.213 NA
ENDROOT
BRANCH   4   6
ATOM      6  C   UNL     1       1.693  -6.268   6.571  0.00  0.00    +0.055 A 
ATOM      7  C   UNL     1       3.077  -6.120   6.465  0.00  0.00    +0.014 A 
ATOM      8  C   UNL     1       3.912  -6.930   7.206  0.00  0.00    +0.001 A 
ATOM      9  C   UNL     1       3.382  -7.889   8.051  0.00  0.00    +0.001 A 
ATOM     10  C   UNL     1       2.012  -8.042   8.161  0.00  0.00    +0.021 A 
ATOM     11  C   UNL     1       1.163  -7.233   7.430  0.00  0.00    +0.053 A 
ATOM     12 CL   UNL     1      -0.557  -7.421   7.574  0.00  0.00    -0.083 Cl
ENDBRANCH   4   6
BRANCH   1  13
ATOM     13  C   UNL     1       0.055  -2.775   3.409  0.00  0.00    +0.137 C 
BRANCH  13  14
ATOM     14  S   UNL     1       0.056  -3.469   1.732  0.00  0.00    -0.061 S 
BRANCH  14  19
ATOM     15  C   UNL     1      -0.018   1.503   0.010  0.00  0.00    +0.069 C 
ATOM     16  C   UNL     1       0.002  -0.004   0.002  0.00  0.00    +0.080 A 
ATOM     17  C   UNL     1       0.008  -0.788  -1.086  0.00  0.00    +0.126 A 
ATOM     18  O   UNL     1       0.027  -2.069  -0.657  0.00  0.00    -0.436 OA
ATOM     19  C   UNL     1       0.033  -2.052   0.685  0.00  0.00    +0.258 A 
ATOM     20  N   UNL     1       0.024  -0.803   1.086  0.00  0.00    -0.208 NA
ATOM     21  C   UNL     1      -0.005  -0.326  -2.520  0.00  0.00    +0.088 C 
ENDBRANCH  14  19
ENDBRANCH  13  14
ENDBRANCH   1  13
TORSDOF 4
