REMARK  Name = ZINC40267900
REMARK  1 active torsions:
REMARK  status: ('A' for Active; 'I' for Inactive)
REMARK    1  A    between atoms: C_11  and  C_13
REMARK                            x       y       z     vdW  Elec       q    Type
REMARK                         _______ _______ _______ _____ _____    ______ ____
ROOT
ATOM      1  C   UNL     1       0.724   1.590   0.447  0.00  0.00    +0.000 A 
ATOM      2  C   UNL     1       1.980   2.112   0.701  0.00  0.00    +0.002 A 
ATOM      3  C   UNL     1       3.079   1.282   0.767  0.00  0.00    +0.023 A 
ATOM      4  C   UNL     1       2.933  -0.090   0.578  0.00  0.00    +0.038 A 
ATOM      5  C   UNL     1       1.665  -0.605   0.325  0.00  0.00    -0.013 A 
ATOM      6  C   UNL     1       0.571   0.228   0.260  0.00  0.00    +0.006 A 
ATOM      7  C   UNL     1       1.847  -2.089   0.176  0.00  0.00    +0.064 C 
ATOM      8  C   UNL     1       1.379  -2.573  -1.205  0.00  0.00    +0.000 C 
ATOM      9  C   UNL     1       0.740  -3.950  -0.885  0.00  0.00    -0.080 C 
ATOM     10  N   UNL     1       0.089  -3.728   0.432  0.00  0.00    +0.385 N 
ATOM     11  C   UNL     1       1.016  -2.865   1.201  0.00  0.00    -0.021 C 
ATOM     12  C   UNL     1       3.321  -2.324   0.366  0.00  0.00    +0.226 C 
ATOM     13  O   UNL     1       3.895  -3.391   0.321  0.00  0.00    -0.275 OA
ATOM     14  N   UNL     1       3.878  -1.119   0.595  0.00  0.00    -0.285 N 
ATOM     15  H   UNL     1      -0.797  -3.262   0.309  0.00  0.00    -0.085 HD
ATOM     16  H   UNL     1       4.825  -0.982   0.752  0.00  0.00    +0.155 HD
ATOM     17  H   UNL     1      -0.042  -4.608   0.908  0.00  0.00    -0.085 HD
ENDROOT
BRANCH  11  18
ATOM     18  C   UNL     1       0.235  -1.908   2.063  0.00  0.00    -0.060 A 
ATOM     19  C   UNL     1      -1.026  -1.498   1.673  0.00  0.00    +0.003 A 
ATOM     20  C   UNL     1      -1.744  -0.620   2.463  0.00  0.00    +0.020 A 
ATOM     21  C   UNL     1      -1.200  -0.151   3.645  0.00  0.00    +0.041 A 
ATOM     22  C   UNL     1       0.062  -0.562   4.036  0.00  0.00    +0.020 A 
ATOM     23  C   UNL     1       0.777  -1.444   3.248  0.00  0.00    +0.003 A 
ATOM     24 CL   UNL     1      -2.100   0.952   4.638  0.00  0.00    -0.084 Cl
ENDBRANCH  11  18
TORSDOF 1
