REMARK  Name = ZINC08662080
REMARK  9 active torsions:
REMARK  status: ('A' for Active; 'I' for Inactive)
REMARK    1  A    between atoms: C_1  and  N_64
REMARK    2  A    between atoms: C_2  and  C_3
REMARK    3  A    between atoms: C_2  and  N_64
REMARK    4  A    between atoms: C_3  and  N_4
REMARK    5  A    between atoms: C_5  and  C_7
REMARK    6  A    between atoms: C_16  and  S_19
REMARK    7  A    between atoms: S_19  and  N_22
REMARK    8  A    between atoms: C_28  and  C_29
REMARK    9  A    between atoms: C_28  and  N_64
REMARK                            x       y       z     vdW  Elec       q    Type
REMARK                         _______ _______ _______ _____ _____    ______ ____
ROOT
ATOM      1  C   UNL     1       2.480   1.092  -0.017  0.00  0.00    +0.051 A 
ATOM      2  C   UNL     1       3.625   1.837   0.000  0.00  0.00    +0.083 A 
ATOM      3  C   UNL     1       3.534   3.295   0.006  0.00  0.00    +0.250 A 
ATOM      4  O   UNL     1       4.554   3.960   0.021  0.00  0.00    -0.268 OA
ATOM      5  N   UNL     1       2.340   3.914  -0.004  0.00  0.00    -0.322 N 
ATOM      6  H   UNL     1       2.308   4.884  -0.001  0.00  0.00    +0.169 HD
ATOM      7  C   UNL     1       1.162   3.199  -0.021  0.00  0.00    +0.050 A 
ATOM      8  C   UNL     1       1.187   1.793  -0.027  0.00  0.00    +0.012 A 
ATOM      9  C   UNL     1      -0.013   1.076  -0.043  0.00  0.00    +0.039 A 
ATOM     10  C   UNL     1      -1.204   1.744  -0.058  0.00  0.00    +0.106 A 
ATOM     11  C   UNL     1      -1.234   3.132  -0.047  0.00  0.00    +0.030 A 
ATOM     12  C   UNL     1      -0.064   3.859  -0.031  0.00  0.00    +0.028 A 
ENDROOT
BRANCH   1  14
ATOM     13  N   UNL     1       3.728  -1.016  -0.137  0.00  0.00    -0.313 N 
ATOM     14  C   UNL     1       2.540  -0.390  -0.023  0.00  0.00    +0.245 C 
ATOM     15  O   UNL     1       1.518  -1.039   0.075  0.00  0.00    -0.270 OA
ATOM     16  H   UNL     1       4.550  -0.500  -0.141  0.00  0.00    +0.149 HD
BRANCH  13  17
ATOM     17  C   UNL     1       3.778  -2.475  -0.255  0.00  0.00    +0.086 C 
BRANCH  17  18
ATOM     18  C   UNL     1       5.235  -2.927  -0.371  0.00  0.00    -0.060 C 
BRANCH  18  20
ATOM     19  C   UNL     1       4.680  -4.838  -1.750  0.00  0.00    -0.096 C 
ATOM     20  N   UNL     1       5.271  -4.402  -0.468  0.00  0.00    +0.382 N 
ATOM     21  H   UNL     1       4.723  -4.800   0.304  0.00  0.00    -0.082 HD
BRANCH  20  22
ATOM     22  C   UNL     1       6.665  -4.882  -0.364  0.00  0.00    -0.043 C 
BRANCH  22  23
ATOM     23  C   UNL     1       6.654  -6.384  -0.244  0.00  0.00    -0.064 A 
ATOM     24  C   UNL     1       6.581  -6.977   1.002  0.00  0.00    +0.002 A 
ATOM     25  C   UNL     1       6.567  -8.355   1.113  0.00  0.00    +0.000 A 
ATOM     26  C   UNL     1       6.635  -9.140  -0.023  0.00  0.00    +0.000 A 
ATOM     27  C   UNL     1       6.714  -8.547  -1.270  0.00  0.00    +0.000 A 
ATOM     28  C   UNL     1       6.723  -7.169  -1.380  0.00  0.00    +0.002 A 
ENDBRANCH  22  23
ENDBRANCH  20  22
ENDBRANCH  18  20
ENDBRANCH  17  18
ENDBRANCH  13  17
ENDBRANCH   1  14
BRANCH  10  29
ATOM     29  S   UNL     1      -2.715   0.838  -0.085  0.00  0.00    +0.061 S 
ATOM     30  O   UNL     1      -3.695   1.700  -0.646  0.00  0.00    -0.153 OA
ATOM     31  O   UNL     1      -2.414  -0.436  -0.637  0.00  0.00    -0.153 OA
BRANCH  29  32
ATOM     32  N   UNL     1      -3.158   0.579   1.490  0.00  0.00    -0.177 NA
ATOM     33  C   UNL     1      -2.713  -0.626   2.204  0.00  0.00    +0.109 C 
ATOM     34  C   UNL     1      -2.030  -0.194   3.511  0.00  0.00    +0.017 C 
ATOM     35  C   UNL     1      -2.987   0.693   4.311  0.00  0.00    +0.003 C 
ATOM     36  C   UNL     1      -3.316   1.950   3.502  0.00  0.00    +0.017 C 
ATOM     37  C   UNL     1      -4.009   1.546   2.197  0.00  0.00    +0.109 C 
ENDBRANCH  29  32
ENDBRANCH  10  29
TORSDOF 8
