REMARK  Name = ZINC13313041
REMARK  11 active torsions:
REMARK  status: ('A' for Active; 'I' for Inactive)
REMARK    1  A    between atoms: C_1  and  O_2
REMARK    2  A    between atoms: O_2  and  C_3
REMARK    3  A    between atoms: C_5  and  C_29
REMARK    4  A    between atoms: C_7  and  S_11
REMARK    5  A    between atoms: C_8  and  O_9
REMARK    6  A    between atoms: O_9  and  C_10
REMARK    7  A    between atoms: S_11  and  O_14
REMARK    8  A    between atoms: O_14  and  C_15
REMARK    9  A    between atoms: C_18  and  N_26
REMARK   10  A    between atoms: C_20  and  C_21
REMARK   11  A    between atoms: C_30  and  C_31
REMARK                            x       y       z     vdW  Elec       q    Type
REMARK                         _______ _______ _______ _____ _____    ______ ____
ROOT
ATOM      1  S   UNL     1       3.892   3.476   1.043  0.00  0.00    +0.155 S 
ATOM      2  O   UNL     1       2.728   3.941   0.373  0.00  0.00    -0.131 OA
ATOM      3  O   UNL     1       3.832   2.788   2.285  0.00  0.00    -0.131 OA
ENDROOT
BRANCH   1   8
ATOM      4  C   UNL     1       5.702   7.053   0.587  0.00  0.00    +0.164 A 
ATOM      5  C   UNL     1       6.548   7.110   1.676  0.00  0.00    +0.057 A 
ATOM      6  C   UNL     1       6.586   6.046   2.585  0.00  0.00    -0.019 A 
ATOM      7  C   UNL     1       5.765   4.930   2.384  0.00  0.00    +0.042 A 
ATOM      8  C   UNL     1       4.924   4.882   1.294  0.00  0.00    +0.174 A 
ATOM      9  C   UNL     1       4.891   5.936   0.391  0.00  0.00    +0.190 A 
BRANCH   4  11
ATOM     10  C   UNL     1       6.524   9.195  -0.038  0.00  0.00    +0.277 C 
ATOM     11  O   UNL     1       5.663   8.085  -0.298  0.00  0.00    -0.491 OA
ENDBRANCH   4  11
BRANCH   9  12
ATOM     12  O   UNL     1       4.064   5.880  -0.685  0.00  0.00    -0.490 OA
ATOM     13  C   UNL     1       2.808   6.553  -0.573  0.00  0.00    +0.277 C 
ENDBRANCH   9  12
BRANCH   6  14
ATOM     14  C   UNL     1       7.485   6.100   3.746  0.00  0.00    +0.015 C 
ATOM     15  C   UNL     1       8.277   7.178   3.938  0.00  0.00    +0.096 C 
BRANCH  15  16
ATOM     16  C   UNL     1       9.144   7.230   5.059  0.00  0.00    +0.380 C 
ATOM     17  O   UNL     1       9.175   6.304   5.847  0.00  0.00    -0.241 OA
ATOM     18  O   UNL     1       9.934   8.306   5.250  0.00  0.00    -0.241 OA
ENDBRANCH  15  16
ENDBRANCH   6  14
ENDBRANCH   1   8
BRANCH   1  19
ATOM     19  O   UNL     1       4.615   2.555   0.070  0.00  0.00    -0.342 OA
BRANCH  19  20
ATOM     20  C   UNL     1       5.631   1.848   0.630  0.00  0.00    +0.165 A 
ATOM     21  C   UNL     1       6.873   2.435   0.805  0.00  0.00    +0.051 A 
ATOM     22  C   UNL     1       7.908   1.713   1.370  0.00  0.00    +0.036 A 
ATOM     23  C   UNL     1       7.709   0.403   1.770  0.00  0.00    +0.127 A 
ATOM     24  C   UNL     1       6.476  -0.194   1.607  0.00  0.00    +0.045 A 
ATOM     25  C   UNL     1       5.425   0.525   1.038  0.00  0.00    +0.035 A 
BRANCH  25  26
ATOM     26  C   UNL     1       4.102  -0.110   0.861  0.00  0.00    +0.023 A 
ATOM     27  C   UNL     1       3.793  -1.317   0.292  0.00  0.00    +0.016 A 
ATOM     28  C   UNL     1       2.472  -1.706   0.242  0.00  0.00    +0.008 A 
ATOM     29  C   UNL     1       1.519  -0.880   0.745  0.00  0.00    +0.046 A 
ATOM     30  S   UNL     1       2.490   0.498   1.330  0.00  0.00    -0.097 S 
ENDBRANCH  25  26
BRANCH  23  31
ATOM     31  N   UNL     1       8.824  -0.360   2.374  0.00  0.00    +0.056 N 
ATOM     32  O   UNL     1       8.652  -1.513   2.726  0.00  0.00    -0.126 OA
ATOM     33  O   UNL     1       9.914   0.165   2.519  0.00  0.00    -0.126 OA
ENDBRANCH  23  31
ENDBRANCH  19  20
ENDBRANCH   1  19
TORSDOF 9
