REMARK  Name = ZINC39371003
REMARK  8 active torsions:
REMARK  status: ('A' for Active; 'I' for Inactive)
REMARK    1  A    between atoms: C_7  and  C_10
REMARK    2  A    between atoms: C_10  and  C_11
REMARK    3  A    between atoms: C_11  and  N_12
REMARK    4  A    between atoms: C_13  and  C_15
REMARK    5  A    between atoms: C_15  and  C_16
REMARK    6  A    between atoms: C_16  and  C_17
REMARK    7  A    between atoms: N_32  and  C_33
REMARK    8  A    between atoms: C_33  and  C_34
REMARK                            x       y       z     vdW  Elec       q    Type
REMARK                         _______ _______ _______ _____ _____    ______ ____
ROOT
ATOM      1  C   UNL     1      -6.288   9.083  -3.928  0.00  0.00    +0.217 C 
ATOM      2  N   UNL     1      -5.322   9.992  -3.296  0.00  0.00    -0.166 NA
ATOM      3  N   UNL     1      -4.856  10.799  -4.106  0.00  0.00    -0.147 NA
ATOM      4  C   UNL     1      -5.387  10.584  -5.448  0.00  0.00    +0.311 C 
ATOM      5  N   UNL     1      -6.455   9.570  -5.290  0.00  0.00    -0.267 N 
ATOM      6  C   UNL     1      -7.382   9.304  -6.273  0.00  0.00    +0.047 A 
ATOM      7  C   UNL     1      -7.976   8.077  -6.481  0.00  0.00    +0.024 A 
ATOM      8  C   UNL     1      -8.882   7.923  -7.514  0.00  0.00    +0.002 A 
ATOM      9  C   UNL     1      -9.195   8.992  -8.339  0.00  0.00    +0.001 A 
ATOM     10  C   UNL     1      -8.616  10.228  -8.141  0.00  0.00    +0.015 A 
ATOM     11  C   UNL     1      -7.708  10.402  -7.102  0.00  0.00    +0.058 A 
ATOM     12  C   UNL     1      -7.084  11.704  -6.810  0.00  0.00    +0.251 C 
ATOM     13  O   UNL     1      -7.556  12.717  -7.290  0.00  0.00    -0.270 OA
ATOM     14  N   UNL     1      -5.971  11.795  -6.021  0.00  0.00    -0.254 N 
ENDROOT
BRANCH   1  15
ATOM     15  C   UNL     1      -5.739   7.655  -3.941  0.00  0.00    +0.058 C 
BRANCH  15  16
ATOM     16  C   UNL     1      -5.660   7.126  -2.507  0.00  0.00    +0.099 C 
BRANCH  16  18
ATOM     17  N   UNL     1      -4.962   5.047  -1.362  0.00  0.00    -0.315 N 
ATOM     18  C   UNL     1      -5.120   5.719  -2.519  0.00  0.00    +0.213 C 
ATOM     19  O   UNL     1      -4.826   5.191  -3.571  0.00  0.00    -0.276 OA
ATOM     20  H   UNL     1      -5.197   5.469  -0.520  0.00  0.00    +0.149 HD
BRANCH  17  21
ATOM     21  C   UNL     1      -4.437   3.680  -1.374  0.00  0.00    +0.109 C 
BRANCH  21  22
ATOM     22  C   UNL     1      -4.358   3.151   0.060  0.00  0.00    +0.056 C 
BRANCH  22  29
ATOM     23  C   UNL     1      -0.017   1.384   0.010  0.00  0.00    +0.001 A 
ATOM     24  C   UNL     1       0.002  -0.004   0.002  0.00  0.00    +0.002 A 
ATOM     25  C   UNL     1      -1.173  -0.723   0.009  0.00  0.00    +0.026 A 
ATOM     26  C   UNL     1      -2.392  -0.053   0.024  0.00  0.00    +0.047 A 
ATOM     27  N   UNL     1      -3.704  -0.472   0.034  0.00  0.00    -0.360 N 
ATOM     28  C   UNL     1      -4.539   0.612   0.047  0.00  0.00    +0.087 A 
ATOM     29  C   UNL     1      -3.818   1.744   0.047  0.00  0.00    -0.021 A 
ATOM     30  C   UNL     1      -2.406   1.353   0.032  0.00  0.00    +0.003 A 
ATOM     31  C   UNL     1      -1.203   2.062   0.030  0.00  0.00    +0.010 A 
ATOM     32  H   UNL     1      -3.993  -1.398   0.030  0.00  0.00    +0.165 HD
ENDBRANCH  22  29
ENDBRANCH  21  22
ENDBRANCH  17  21
ENDBRANCH  16  18
ENDBRANCH  15  16
ENDBRANCH   1  15
BRANCH  14  33
ATOM     33  C   UNL     1      -5.372  13.099  -5.727  0.00  0.00    +0.147 C 
BRANCH  33  34
ATOM     34  C   UNL     1      -4.324  13.415  -6.763  0.00  0.00    -0.030 A 
ATOM     35  C   UNL     1      -3.014  13.021  -6.563  0.00  0.00    +0.008 A 
ATOM     36  C   UNL     1      -2.052  13.310  -7.512  0.00  0.00    +0.038 A 
ATOM     37  C   UNL     1      -2.401  13.995  -8.664  0.00  0.00    +0.123 A 
ATOM     38  C   UNL     1      -3.713  14.389  -8.864  0.00  0.00    +0.038 A 
ATOM     39  C   UNL     1      -4.674  14.094  -7.915  0.00  0.00    +0.008 A 
ATOM     40  F   UNL     1      -1.461  14.278  -9.593  0.00  0.00    -0.205 F 
ENDBRANCH  33  34
ENDBRANCH  14  33
TORSDOF 8
