REMARK  Name = ZINC09329995
REMARK  10 active torsions:
REMARK  status: ('A' for Active; 'I' for Inactive)
REMARK    1  A    between atoms: C_1  and  C_2
REMARK    2  A    between atoms: C_5  and  C_34
REMARK    3  A    between atoms: C_6  and  N_8
REMARK    4  A    between atoms: C_9  and  C_11
REMARK    5  A    between atoms: C_11  and  S_12
REMARK    6  A    between atoms: S_12  and  C_13
REMARK    7  A    between atoms: C_14  and  C_32
REMARK    8  A    between atoms: C_15  and  C_27
REMARK    9  A    between atoms: C_20  and  C_24
REMARK   10  A    between atoms: C_20  and  C_25
REMARK                            x       y       z     vdW  Elec       q    Type
REMARK                         _______ _______ _______ _____ _____    ______ ____
ROOT
ATOM      1  C   UNL     1      -3.296  -0.376  -1.163  0.00  0.00    +0.111 C 
ATOM      2  C   UNL     1      -1.967  -0.725  -1.229  0.00  0.00    +0.070 C 
ATOM      3  C   UNL     1      -1.144  -0.922   0.009  0.00  0.00    +0.084 C 
ATOM      4  C   UNL     1      -1.967  -0.694   1.251  0.00  0.00    +0.113 C 
ATOM      5  C   UNL     1      -1.361  -0.846   2.449  0.00  0.00    +0.143 C 
ATOM      6  C   UNL     1      -2.096  -0.639   3.743  0.00  0.00    +0.081 C 
ATOM      7  C   UNL     1      -3.576  -0.978   3.546  0.00  0.00    -0.023 C 
ATOM      8  C   UNL     1      -4.129  -0.102   2.420  0.00  0.00    +0.058 C 
ATOM      9  C   UNL     1      -3.320  -0.337   1.164  0.00  0.00    +0.032 C 
ATOM     10  N   UNL     1      -3.920  -0.195   0.005  0.00  0.00    -0.248 NA
ATOM     11  C   UNL     1      -3.719  -2.454   3.168  0.00  0.00    +0.011 C 
ATOM     12  C   UNL     1      -4.343  -0.703   4.841  0.00  0.00    +0.011 C 
ATOM     13  O   UNL     1      -0.058  -1.192   2.485  0.00  0.00    -0.297 OA
ENDROOT
BRANCH   3  14
ATOM     14  C   UNL     1       0.010   0.047  -0.005  0.00  0.00    -0.001 A 
ATOM     15  C   UNL     1       1.341  -0.210  -0.020  0.00  0.00    +0.012 A 
ATOM     16  C   UNL     1       2.228   0.849  -0.032  0.00  0.00    +0.008 A 
ATOM     17  C   UNL     1       1.742   2.114  -0.028  0.00  0.00    +0.045 A 
ATOM     18  S   UNL     1      -0.021   1.832  -0.008  0.00  0.00    -0.101 S 
ENDBRANCH   3  14
BRANCH   2  19
ATOM     19  C   UNL     1      -1.355  -0.902  -2.511  0.00  0.00    +0.098 C 
ATOM     20  N   UNL     1      -0.869  -1.044  -3.528  0.00  0.00    -0.191 NA
ENDBRANCH   2  19
BRANCH   1  21
ATOM     21  S   UNL     1      -4.201  -0.162  -2.659  0.00  0.00    -0.096 S 
BRANCH  21  22
ATOM     22  C   UNL     1      -5.824   0.272  -1.986  0.00  0.00    +0.172 C 
BRANCH  22  24
ATOM     23  N   UNL     1      -8.068   0.846  -2.854  0.00  0.00    -0.285 N 
ATOM     24  C   UNL     1      -6.790   0.507  -3.118  0.00  0.00    +0.227 C 
ATOM     25  O   UNL     1      -6.418   0.393  -4.267  0.00  0.00    -0.275 OA
ATOM     26  H   UNL     1      -8.387   0.859  -1.938  0.00  0.00    +0.155 HD
BRANCH  23  32
ATOM     27  C   UNL     1      -8.732   2.495  -7.438  0.00  0.00    +0.044 C 
ATOM     28  C   UNL     1      -9.284   1.979  -6.134  0.00  0.00    -0.049 A 
ATOM     29  C   UNL     1     -10.649   1.831  -5.973  0.00  0.00    +0.004 A 
ATOM     30  C   UNL     1     -11.160   1.357  -4.778  0.00  0.00    +0.005 A 
ATOM     31  C   UNL     1     -10.306   1.029  -3.742  0.00  0.00    -0.029 A 
ATOM     32  C   UNL     1      -8.935   1.177  -3.901  0.00  0.00    +0.037 A 
ATOM     33  C   UNL     1      -8.426   1.659  -5.100  0.00  0.00    +0.027 A 
ATOM     34  C   UNL     1     -10.864   0.511  -2.441  0.00  0.00    +0.045 C 
ENDBRANCH  23  32
ENDBRANCH  22  24
ENDBRANCH  21  22
ENDBRANCH   1  21
TORSDOF 6
