REMARK  Name = ZINC04854707
REMARK  5 active torsions:
REMARK  status: ('A' for Active; 'I' for Inactive)
REMARK    1  A    between atoms: C_1  and  C_2
REMARK    2  A    between atoms: C_2  and  C_3
REMARK    3  A    between atoms: C_3  and  N_4
REMARK    4  A    between atoms: C_10  and  C_16
REMARK    5  A    between atoms: C_19  and  C_22
REMARK                            x       y       z     vdW  Elec       q    Type
REMARK                         _______ _______ _______ _____ _____    ______ ____
ROOT
ATOM      1  N   UNL     1      -3.228   4.341   3.715  0.00  0.00    -0.292 N 
ATOM      2  C   UNL     1      -4.438   3.640   3.262  0.00  0.00    +0.159 C 
ATOM      3  C   UNL     1      -4.228   3.418   1.781  0.00  0.00    +0.039 C 
ATOM      4  C   UNL     1      -3.025   3.949   1.485  0.00  0.00    +0.058 C 
ATOM      5  C   UNL     1      -2.433   4.499   2.641  0.00  0.00    +0.247 C 
ATOM      6  O   UNL     1      -1.345   5.045   2.664  0.00  0.00    -0.270 OA
ATOM      7  C   UNL     1      -2.553   3.869   0.047  0.00  0.00    +0.142 C 
ATOM      8  N   UNL     1      -3.454   3.210  -0.914  0.00  0.00    -0.288 N 
ATOM      9  C   UNL     1      -4.628   2.725  -0.465  0.00  0.00    +0.304 C 
ATOM     10  O   UNL     1      -5.379   2.180  -1.250  0.00  0.00    -0.252 OA
ATOM     11  N   UNL     1      -4.995   2.825   0.820  0.00  0.00    -0.271 N 
ATOM     12  H   UNL     1      -3.207   3.127  -1.848  0.00  0.00    +0.151 HD
ATOM     13  H   UNL     1      -5.854   2.456   1.081  0.00  0.00    +0.156 HD
ENDROOT
BRANCH   7  14
ATOM     14  C   UNL     1      -1.238   3.133   0.030  0.00  0.00    -0.023 A 
ATOM     15  C   UNL     1      -1.219   1.751   0.017  0.00  0.00    +0.006 A 
ATOM     16  C   UNL     1      -0.013   1.076   0.008  0.00  0.00    +0.004 A 
ATOM     17  C   UNL     1       1.175   1.783   0.000  0.00  0.00    -0.050 A 
ATOM     18  C   UNL     1       1.156   3.165   0.008  0.00  0.00    +0.004 A 
ATOM     19  C   UNL     1      -0.050   3.840   0.022  0.00  0.00    +0.006 A 
ATOM     20  C   UNL     1       2.490   1.048  -0.016  0.00  0.00    +0.044 C 
ENDBRANCH   7  14
BRANCH   1  21
ATOM     21  C   UNL     1      -2.941   4.785   5.081  0.00  0.00    +0.108 C 
BRANCH  21  23
ATOM     22  C   UNL     1      -1.911   4.136   7.263  0.00  0.00    +0.005 C 
ATOM     23  C   UNL     1      -2.211   3.672   5.836  0.00  0.00    +0.016 C 
ENDBRANCH  21  23
ENDBRANCH   1  21
TORSDOF 3
