REMARK  Name = ZINC39662265
REMARK  5 active torsions:
REMARK  status: ('A' for Active; 'I' for Inactive)
REMARK    1  A    between atoms: C_4  and  C_7
REMARK    2  A    between atoms: C_7  and  C_9
REMARK    3  A    between atoms: C_7  and  N_11
REMARK    4  A    between atoms: C_12  and  C_14
REMARK    5  A    between atoms: C_25  and  C_27
REMARK                            x       y       z     vdW  Elec       q    Type
REMARK                         _______ _______ _______ _____ _____    ______ ____
ROOT
ATOM      1  C   UNL     1       4.390  -4.061   2.651  0.00  0.00    +0.100 C 
ATOM      2  C   UNL     1       3.816  -5.074   1.635  0.00  0.00    +0.121 C 
ATOM      3  N   UNL     1       5.003  -5.788   1.109  0.00  0.00    -0.296 N 
ATOM      4  C   UNL     1       5.878  -5.972   2.292  0.00  0.00    +0.115 C 
ATOM      5  C   UNL     1       5.741  -4.655   3.082  0.00  0.00    -0.004 C 
ATOM      6  C   UNL     1       5.739  -4.938   4.582  0.00  0.00    -0.010 C 
ATOM      7  C   UNL     1       7.112  -5.473   4.997  0.00  0.00    -0.082 C 
ATOM      8  N   UNL     1       8.146  -4.486   4.665  0.00  0.00    +0.379 N 
ATOM      9  C   UNL     1       8.204  -4.289   3.212  0.00  0.00    -0.082 C 
ATOM     10  C   UNL     1       6.877  -3.703   2.721  0.00  0.00    -0.010 C 
ATOM     11  C   UNL     1       5.234  -6.183  -0.159  0.00  0.00    +0.247 C 
ATOM     12  O   UNL     1       4.475  -5.849  -1.048  0.00  0.00    -0.270 OA
ATOM     13  H   UNL     1       7.927  -3.608   5.113  0.00  0.00    -0.086 HD
ATOM     14  H   UNL     1       9.042  -4.814   4.995  0.00  0.00    -0.086 HD
ENDROOT
BRANCH  11  15
ATOM     15  C   UNL     1       6.411  -7.022  -0.469  0.00  0.00    +0.037 A 
ATOM     16  C   UNL     1       7.017  -7.777   0.551  0.00  0.00    +0.013 A 
ATOM     17  C   UNL     1       8.099  -8.555   0.292  0.00  0.00    +0.009 A 
ATOM     18  C   UNL     1       8.628  -8.613  -1.010  0.00  0.00    -0.018 A 
ATOM     19  C   UNL     1       9.747  -9.411  -1.303  0.00  0.00    +0.008 A 
ATOM     20  C   UNL     1      10.237  -9.447  -2.573  0.00  0.00    +0.001 A 
ATOM     21  C   UNL     1       9.645  -8.703  -3.592  0.00  0.00    +0.001 A 
ATOM     22  C   UNL     1       8.561  -7.918  -3.347  0.00  0.00    +0.008 A 
ATOM     23  C   UNL     1       8.026  -7.856  -2.047  0.00  0.00    -0.017 A 
ATOM     24  C   UNL     1       6.905  -7.062  -1.762  0.00  0.00    +0.021 A 
ENDBRANCH  11  15
BRANCH   1  26
ATOM     25  N   UNL     1       4.609  -1.599   2.746  0.00  0.00    -0.296 N 
ATOM     26  C   UNL     1       4.593  -2.718   1.996  0.00  0.00    +0.219 C 
ATOM     27  O   UNL     1       4.740  -2.646   0.794  0.00  0.00    -0.275 OA
ATOM     28  H   UNL     1       4.491  -1.656   3.707  0.00  0.00    +0.150 HD
BRANCH  25  29
ATOM     29  C   UNL     1       4.806  -0.294   2.109  0.00  0.00    +0.207 C 
BRANCH  29  33
ATOM     30  C   UNL     1       6.449   2.443   4.948  0.00  0.00    +0.000 A 
ATOM     31  C   UNL     1       6.900   2.449   3.641  0.00  0.00    +0.000 A 
ATOM     32  C   UNL     1       6.369   1.563   2.723  0.00  0.00    +0.006 A 
ATOM     33  C   UNL     1       5.386   0.671   3.111  0.00  0.00    -0.013 A 
ATOM     34  C   UNL     1       4.936   0.665   4.418  0.00  0.00    +0.006 A 
ATOM     35  C   UNL     1       5.466   1.552   5.336  0.00  0.00    +0.000 A 
ENDBRANCH  29  33
BRANCH  29  36
ATOM     36  C   UNL     1       3.513   0.217   1.627  0.00  0.00    +0.090 C 
ATOM     37  N   UNL     1       2.515   0.612   1.256  0.00  0.00    -0.194 NA
ENDBRANCH  29  36
ENDBRANCH  25  29
ENDBRANCH   1  26
TORSDOF 5
