REMARK  Name = ZINC31038511
REMARK  9 active torsions:
REMARK  status: ('A' for Active; 'I' for Inactive)
REMARK    1  A    between atoms: C_1  and  N_2
REMARK    2  A    between atoms: N_2  and  C_3
REMARK    3  A    between atoms: N_2  and  C_15
REMARK    4  A    between atoms: C_3  and  C_4
REMARK    5  A    between atoms: N_6  and  C_7
REMARK    6  A    between atoms: C_12  and  S_13
REMARK    7  A    between atoms: S_13  and  C_14
REMARK    8  A    between atoms: C_15  and  C_16
REMARK    9  A    between atoms: N_21  and  C_22
REMARK                            x       y       z     vdW  Elec       q    Type
REMARK                         _______ _______ _______ _____ _____    ______ ____
ROOT
ATOM      1  C   UNL     1       2.984   1.214  -1.741  0.00  0.00    +0.204 C 
ATOM      2  O   UNL     1       3.173   0.096  -2.170  0.00  0.00    -0.277 OA
ATOM      3  N   UNL     1       1.732   1.710  -1.681  0.00  0.00    -0.241 N 
ATOM      4  C   UNL     1       0.691   0.963  -2.097  0.00  0.00    +0.310 C 
ATOM      5  O   UNL     1       0.880  -0.158  -2.527  0.00  0.00    -0.252 OA
ATOM      6  N   UNL     1      -0.560   1.462  -2.042  0.00  0.00    -0.269 N 
ATOM      7  H   UNL     1       1.561   2.724  -1.291  0.00  0.00    +0.159 HD
ATOM      8  H   UNL     1      -0.741   2.445  -1.583  0.00  0.00    +0.156 HD
ENDROOT
BRANCH   6   9
ATOM      9  C   UNL     1      -1.631   0.728  -2.569  0.00  0.00    +0.038 A 
ATOM     10  C   UNL     1      -2.683   1.385  -3.191  0.00  0.00    +0.027 A 
ATOM     11  C   UNL     1      -3.740   0.664  -3.717  0.00  0.00    +0.051 A 
ATOM     12  C   UNL     1      -3.750  -0.717  -3.612  0.00  0.00    +0.162 A 
ATOM     13  C   UNL     1      -2.702  -1.377  -2.986  0.00  0.00    +0.164 A 
ATOM     14  C   UNL     1      -1.641  -0.657  -2.463  0.00  0.00    +0.072 A 
ATOM     15  O   UNL     1      -2.724  -2.738  -2.890  0.00  0.00    -0.488 OA
ATOM     16  C   UNL     1      -3.723  -3.288  -2.029  0.00  0.00    +0.232 C 
ATOM     17  C   UNL     1      -5.047  -3.430  -2.762  0.00  0.00    +0.082 C 
ATOM     18  C   UNL     1      -5.631  -2.087  -3.169  0.00  0.00    +0.232 C 
ATOM     19  O   UNL     1      -4.791  -1.437  -4.124  0.00  0.00    -0.488 OA
ENDBRANCH   6   9
BRANCH   1  20
ATOM     20  C   UNL     1       4.149   2.049  -1.276  0.00  0.00    +0.019 C 
BRANCH  20  22
ATOM     21  C   UNL     1       5.423   0.121  -0.552  0.00  0.00    -0.095 C 
ATOM     22  N   UNL     1       5.395   1.288  -1.443  0.00  0.00    +0.389 N 
ATOM     23  H   UNL     1       5.431   0.922  -2.480  0.00  0.00    -0.081 HD
BRANCH  22  24
ATOM     24  C   UNL     1       6.568   2.145  -1.226  0.00  0.00    +0.019 C 
BRANCH  24  25
ATOM     25  C   UNL     1       7.814   1.406  -1.642  0.00  0.00    +0.201 C 
ATOM     26  O   UNL     1       7.732   0.276  -2.077  0.00  0.00    -0.278 OA
ATOM     27  N   UNL     1       9.018   2.000  -1.531  0.00  0.00    -0.286 N 
ATOM     28  H   UNL     1       9.103   2.985  -1.050  0.00  0.00    +0.155 HD
BRANCH  27  29
ATOM     29  C   UNL     1      10.163   1.361  -2.028  0.00  0.00    +0.047 A 
ATOM     30  C   UNL     1      10.041   0.350  -2.969  0.00  0.00    +0.024 A 
ATOM     31  C   UNL     1      11.172  -0.275  -3.462  0.00  0.00    +0.002 A 
ATOM     32  C   UNL     1      12.425   0.099  -3.013  0.00  0.00    +0.001 A 
ATOM     33  C   UNL     1      12.556   1.102  -2.071  0.00  0.00    +0.016 A 
ATOM     34  C   UNL     1      11.427   1.738  -1.575  0.00  0.00    +0.029 A 
BRANCH  34  35
ATOM     35  S   UNL     1      11.590   3.017  -0.374  0.00  0.00    -0.127 S 
ATOM     36  C   UNL     1      13.380   3.144  -0.108  0.00  0.00    +0.090 C 
ENDBRANCH  34  35
ENDBRANCH  27  29
ENDBRANCH  24  25
ENDBRANCH  22  24
ENDBRANCH  20  22
ENDBRANCH   1  20
TORSDOF 7
