REMARK  Name = ZINC11909601
REMARK  11 active torsions:
REMARK  status: ('A' for Active; 'I' for Inactive)
REMARK    1  A    between atoms: C_1  and  C_2
REMARK    2  A    between atoms: C_2  and  C_3
REMARK    3  A    between atoms: C_2  and  C_4
REMARK    4  A    between atoms: C_4  and  C_6
REMARK    5  A    between atoms: C_4  and  N_27
REMARK    6  A    between atoms: C_15  and  C_16
REMARK    7  A    between atoms: C_15  and  N_62
REMARK    8  A    between atoms: C_19  and  C_21
REMARK    9  A    between atoms: C_28  and  C_30
REMARK   10  A    between atoms: C_30  and  O_31
REMARK   11  A    between atoms: O_31  and  C_32
REMARK                            x       y       z     vdW  Elec       q    Type
REMARK                         _______ _______ _______ _____ _____    ______ ____
ROOT
ATOM      1  C   UNL     1       4.777   7.038   1.621  0.00  0.00    +0.154 A 
ATOM      2  N   UNL     1       5.551   6.786   2.643  0.00  0.00    -0.132 NA
ATOM      3  N   UNL     1       5.062   5.811   3.329  0.00  0.00    -0.134 NA
ATOM      4  C   UNL     1       3.955   5.406   2.779  0.00  0.00    +0.132 A 
ATOM      5  N   UNL     1       3.752   6.161   1.671  0.00  0.00    -0.315 N 
ATOM      6  C   UNL     1       2.647   6.018   0.723  0.00  0.00    +0.106 C 
ATOM      7  C   UNL     1       1.433   5.432   1.449  0.00  0.00    -0.056 C 
ATOM      8  C   UNL     1       2.665   3.424   2.059  0.00  0.00    -0.071 C 
ATOM      9  C   UNL     1       3.036   4.309   3.253  0.00  0.00    +0.058 C 
ATOM     10  N   UNL     1       1.448   3.951   1.405  0.00  0.00    +0.384 N 
ATOM     11  H   UNL     1       0.624   3.598   1.906  0.00  0.00    -0.081 HD
ENDROOT
BRANCH   1  12
ATOM     12  C   UNL     1       4.988   8.109   0.581  0.00  0.00    +0.144 C 
BRANCH  12  13
ATOM     13  N   UNL     1       6.389   8.104   0.153  0.00  0.00    -0.303 N 
ATOM     14  C   UNL     1       6.723   8.576  -1.064  0.00  0.00    +0.239 C 
ATOM     15  O   UNL     1       5.864   9.005  -1.805  0.00  0.00    -0.273 OA
ATOM     16  H   UNL     1       7.076   7.761   0.746  0.00  0.00    +0.149 HD
BRANCH  14  17
ATOM     17  C   UNL     1       8.165   8.571  -1.504  0.00  0.00    +0.255 C 
BRANCH  17  18
ATOM     18  O   UNL     1       8.262   9.117  -2.821  0.00  0.00    -0.374 OA
ATOM     19  C   UNL     1       9.594   9.158  -3.336  0.00  0.00    +0.194 C 
ENDBRANCH  17  18
ENDBRANCH  14  17
ENDBRANCH  12  13
BRANCH  12  21
ATOM     20  C   UNL     1       3.178   9.480   1.625  0.00  0.00    +0.009 C 
ATOM     21  C   UNL     1       4.642   9.475   1.178  0.00  0.00    +0.011 C 
ATOM     22  C   UNL     1       5.544   9.749   2.382  0.00  0.00    +0.009 C 
ENDBRANCH  12  21
ENDBRANCH   1  12
BRANCH  10  23
ATOM     23  C   UNL     1       1.390   3.490   0.007  0.00  0.00    -0.034 C 
BRANCH  23  24
ATOM     24  C   UNL     1       1.154   2.002   0.002  0.00  0.00    -0.007 A 
ATOM     25  C   UNL     1      -0.016   1.308   0.009  0.00  0.00    +0.120 A 
ATOM     26  N   UNL     1       0.002  -0.004   0.002  0.00  0.00    -0.247 NA
ATOM     27  C   UNL     1       1.144  -0.677  -0.013  0.00  0.00    +0.108 A 
ATOM     28  S   UNL     1       2.334   0.658  -0.017  0.00  0.00    -0.074 S 
BRANCH  27  29
ATOM     29  C   UNL     1       1.373  -2.138  -0.022  0.00  0.00    +0.007 A 
ATOM     30  C   UNL     1       2.673  -2.643  -0.043  0.00  0.00    +0.010 A 
ATOM     31  C   UNL     1       2.880  -4.008  -0.047  0.00  0.00    +0.001 A 
ATOM     32  C   UNL     1       1.801  -4.874  -0.042  0.00  0.00    +0.000 A 
ATOM     33  C   UNL     1       0.509  -4.379  -0.027  0.00  0.00    +0.001 A 
ATOM     34  C   UNL     1       0.289  -3.017  -0.017  0.00  0.00    +0.010 A 
ENDBRANCH  27  29
ENDBRANCH  23  24
ENDBRANCH  10  23
TORSDOF 8
