REMARK  Name = ZINC13635928
REMARK  6 active torsions:
REMARK  status: ('A' for Active; 'I' for Inactive)
REMARK    1  A    between atoms: C_1  and  C_2
REMARK    2  A    between atoms: C_2  and  C_3
REMARK    3  A    between atoms: C_2  and  C_4
REMARK    4  A    between atoms: C_11  and  N_24
REMARK    5  A    between atoms: C_12  and  C_22
REMARK    6  A    between atoms: C_13  and  C_15
REMARK                            x       y       z     vdW  Elec       q    Type
REMARK                         _______ _______ _______ _____ _____    ______ ____
ROOT
ATOM      1  C   UNL     1      -0.900  -0.604   0.108  0.00  0.00    +0.046 A 
ATOM      2  C   UNL     1      -1.737  -1.343  -0.635  0.00  0.00    +0.046 A 
ATOM      3  C   UNL     1      -2.985  -1.391   0.025  0.00  0.00    +0.244 A 
ATOM      4  N   UNL     1      -2.886  -0.700   1.123  0.00  0.00    -0.135 NA
ATOM      5  N   UNL     1      -1.579  -0.195   1.205  0.00  0.00    -0.278 N 
ATOM      6  H   UNL     1      -1.225   0.354   1.922  0.00  0.00    +0.189 HD
ATOM      7  O   UNL     1      -4.044  -2.075  -0.485  0.00  0.00    -0.422 OA
ATOM      8  C   UNL     1      -3.802  -2.929  -1.499  0.00  0.00    +0.200 C 
ATOM      9  C   UNL     1      -2.655  -2.969  -2.209  0.00  0.00    +0.094 C 
ATOM     10  C   UNL     1      -1.495  -2.041  -1.949  0.00  0.00    +0.078 C 
ENDROOT
BRANCH  10  11
ATOM     11  C   UNL     1      -1.399  -1.007  -3.073  0.00  0.00    +0.024 C 
ATOM     12  C   UNL     1      -0.977  -1.704  -4.368  0.00  0.00    +0.009 C 
ATOM     13  C   UNL     1      -1.138  -0.712  -5.527  0.00  0.00    +0.005 C 
ATOM     14  C   UNL     1      -2.629  -0.430  -5.720  0.00  0.00    +0.027 C 
ATOM     15  C   UNL     1      -3.265  -0.088  -4.405  0.00  0.00    -0.031 C 
ATOM     16  C   UNL     1      -2.733  -0.345  -3.256  0.00  0.00    -0.027 C 
ENDBRANCH  10  11
BRANCH   1  18
ATOM     17  C   UNL     1       0.709   1.222  -0.366  0.00  0.00    +0.014 C 
ATOM     18  C   UNL     1       0.538  -0.291  -0.216  0.00  0.00    +0.031 C 
ATOM     19  C   UNL     1       1.437  -0.797   0.913  0.00  0.00    +0.014 C 
ENDBRANCH   1  18
BRANCH   8  20
ATOM     20  N   UNL     1      -4.790  -3.822  -1.831  0.00  0.00    -0.328 N 
ATOM     21  H   UNL     1      -5.628  -3.823  -1.342  0.00  0.00    +0.145 HD
ATOM     22  H   UNL     1      -4.651  -4.452  -2.555  0.00  0.00    +0.145 HD
ENDBRANCH   8  20
BRANCH   9  23
ATOM     23  C   UNL     1      -2.535  -3.935  -3.258  0.00  0.00    +0.100 C 
ATOM     24  N   UNL     1      -2.439  -4.702  -4.091  0.00  0.00    -0.191 NA
ENDBRANCH   9  23
TORSDOF 4
