REMARK  Name = ZINC49228377
REMARK  7 active torsions:
REMARK  status: ('A' for Active; 'I' for Inactive)
REMARK    1  A    between atoms: C_1  and  C_2
REMARK    2  A    between atoms: C_2  and  N_3
REMARK    3  A    between atoms: C_4  and  C_6
REMARK    4  A    between atoms: C_6  and  C_8
REMARK    5  A    between atoms: C_6  and  N_9
REMARK    6  A    between atoms: N_12  and  C_13
REMARK    7  A    between atoms: C_18  and  C_19
REMARK                            x       y       z     vdW  Elec       q    Type
REMARK                         _______ _______ _______ _____ _____    ______ ____
ROOT
ATOM      1  N   UNL     1       1.563  -3.761  -2.642  0.00  0.00    -0.288 N 
ATOM      2  C   UNL     1       2.513  -4.414  -3.339  0.00  0.00    +0.304 C 
ATOM      3  O   UNL     1       3.352  -3.788  -3.959  0.00  0.00    -0.252 OA
ATOM      4  N   UNL     1       2.534  -5.762  -3.350  0.00  0.00    -0.269 N 
ATOM      5  H   UNL     1       0.894  -4.260  -2.148  0.00  0.00    +0.151 HD
ATOM      6  H   UNL     1       1.906  -6.261  -2.805  0.00  0.00    +0.156 HD
ENDROOT
BRANCH   4   7
ATOM      7  C   UNL     1       3.457  -6.437  -4.144  0.00  0.00    +0.052 A 
ATOM      8  C   UNL     1       4.729  -5.916  -4.330  0.00  0.00    +0.062 A 
ATOM      9  C   UNL     1       5.644  -6.589  -5.119  0.00  0.00    +0.125 A 
ATOM     10  C   UNL     1       5.298  -7.788  -5.730  0.00  0.00    +0.039 A 
ATOM     11  C   UNL     1       4.041  -8.319  -5.556  0.00  0.00    +0.020 A 
ATOM     12  C   UNL     1       3.106  -7.653  -4.755  0.00  0.00    +0.084 A 
ATOM     13  F   UNL     1       6.881  -6.077  -5.298  0.00  0.00    -0.205 F 
BRANCH  12  14
ATOM     14  C   UNL     1       1.763  -8.218  -4.560  0.00  0.00    +0.388 C 
ATOM     15  O   UNL     1       1.493  -9.322  -5.013  0.00  0.00    -0.241 OA
ATOM     16  O   UNL     1       0.916  -7.584  -3.946  0.00  0.00    -0.241 OA
ENDBRANCH  12  14
ENDBRANCH   4   7
BRANCH   1  17
ATOM     17  C   UNL     1       1.540  -2.296  -2.630  0.00  0.00    +0.157 C 
ATOM     18  C   UNL     1       0.782  -1.788  -3.857  0.00  0.00    +0.038 C 
BRANCH  17  20
ATOM     19  N   UNL     1       0.714  -0.493  -1.152  0.00  0.00    -0.314 N 
ATOM     20  C   UNL     1       0.852  -1.814  -1.379  0.00  0.00    +0.233 C 
ATOM     21  O   UNL     1       0.423  -2.616  -0.576  0.00  0.00    -0.274 OA
ATOM     22  H   UNL     1       1.057   0.148  -1.794  0.00  0.00    +0.149 HD
BRANCH  19  24
ATOM     23  C   UNL     1       0.021   1.505   0.076  0.00  0.00    +0.024 C 
ATOM     24  C   UNL     1       0.044  -0.025   0.064  0.00  0.00    +0.101 C 
ENDBRANCH  19  24
ENDBRANCH  17  20
ENDBRANCH   1  17
TORSDOF 5
