REMARK  Name = ZINC13032798
REMARK  10 active torsions:
REMARK  status: ('A' for Active; 'I' for Inactive)
REMARK    1  A    between atoms: C_1  and  C_2
REMARK    2  A    between atoms: C_7  and  C_15
REMARK    3  A    between atoms: C_13  and  C_14
REMARK    4  A    between atoms: C_15  and  N_66
REMARK    5  A    between atoms: C_16  and  C_17
REMARK    6  A    between atoms: C_16  and  N_66
REMARK    7  A    between atoms: C_26  and  C_27
REMARK    8  A    between atoms: C_26  and  N_66
REMARK    9  A    between atoms: N_31  and  C_32
REMARK   10  A    between atoms: C_32  and  C_33
REMARK                            x       y       z     vdW  Elec       q    Type
REMARK                         _______ _______ _______ _____ _____    ______ ____
ROOT
ATOM      1  N   UNL     1       1.569  -2.064  -1.362  0.00  0.00    +0.390 N 
ATOM      2  H   UNL     1       0.848  -1.835  -2.057  0.00  0.00    -0.080 HD
ENDROOT
BRANCH   1   3
ATOM      3  C   UNL     1       1.398  -3.470  -0.939  0.00  0.00    -0.036 C 
BRANCH   3  10
ATOM      4  C   UNL     1      -6.375  -5.257  -0.973  0.00  0.00    +0.044 C 
ATOM      5  C   UNL     1      -4.907  -4.996  -1.187  0.00  0.00    -0.046 A 
ATOM      6  C   UNL     1      -4.328  -5.292  -2.414  0.00  0.00    +0.004 A 
ATOM      7  C   UNL     1      -2.999  -5.064  -2.629  0.00  0.00    +0.010 A 
ATOM      8  C   UNL     1      -2.213  -4.526  -1.604  0.00  0.00    -0.001 A 
ATOM      9  C   UNL     1      -0.786  -4.264  -1.802  0.00  0.00    +0.017 A 
ATOM     10  C   UNL     1      -0.073  -3.748  -0.770  0.00  0.00    +0.001 A 
ATOM     11  C   UNL     1      -0.706  -3.464   0.459  0.00  0.00    +0.251 A 
ATOM     12  O   UNL     1      -0.048  -2.996   1.372  0.00  0.00    -0.268 OA
ATOM     13  N   UNL     1      -2.017  -3.697   0.649  0.00  0.00    -0.322 N 
ATOM     14  H   UNL     1      -2.420  -3.491   1.506  0.00  0.00    +0.169 HD
ATOM     15  C   UNL     1      -2.796  -4.226  -0.359  0.00  0.00    +0.052 A 
ATOM     16  C   UNL     1      -4.152  -4.467  -0.163  0.00  0.00    -0.024 A 
ATOM     17  C   UNL     1      -4.792  -4.152   1.164  0.00  0.00    +0.046 C 
ENDBRANCH   3  10
ENDBRANCH   1   3
BRANCH   1  18
ATOM     18  C   UNL     1       2.901  -1.879  -1.974  0.00  0.00    -0.042 C 
BRANCH  18  19
ATOM     19  C   UNL     1       2.903  -2.525  -3.335  0.00  0.00    -0.060 A 
ATOM     20  C   UNL     1       3.403  -3.805  -3.490  0.00  0.00    +0.005 A 
ATOM     21  C   UNL     1       3.401  -4.404  -4.736  0.00  0.00    +0.050 A 
ATOM     22  C   UNL     1       2.910  -3.719  -5.835  0.00  0.00    +0.166 A 
ATOM     23  C   UNL     1       2.412  -2.427  -5.679  0.00  0.00    +0.166 A 
ATOM     24  C   UNL     1       2.411  -1.835  -4.427  0.00  0.00    +0.051 A 
ATOM     25  O   UNL     1       1.992  -1.972  -6.896  0.00  0.00    -0.453 OA
ATOM     26  C   UNL     1       2.612  -2.838  -7.865  0.00  0.00    +0.466 C 
ATOM     27  O   UNL     1       2.802  -4.072  -7.149  0.00  0.00    -0.453 OA
ENDBRANCH  18  19
ENDBRANCH   1  18
BRANCH   1  28
ATOM     28  C   UNL     1       1.418  -1.165  -0.199  0.00  0.00    +0.001 C 
BRANCH  28  29
ATOM     29  C   UNL     1       1.442   0.263  -0.680  0.00  0.00    +0.135 A 
ATOM     30  N   UNL     1       2.505   1.002  -0.887  0.00  0.00    -0.115 NA
ATOM     31  N   UNL     1       2.113   2.159  -1.295  0.00  0.00    -0.023 NA
ATOM     32  N   UNL     1       0.827   2.178  -1.354  0.00  0.00    -0.044 NA
ATOM     33  N   UNL     1       0.376   1.027  -0.983  0.00  0.00    -0.227 N 
BRANCH  33  34
ATOM     34  C   UNL     1      -1.031   0.628  -0.906  0.00  0.00    +0.182 C 
BRANCH  34  35
ATOM     35  C   UNL     1      -1.505   0.193  -2.269  0.00  0.00    -0.026 A 
ATOM     36  C   UNL     1      -1.956   1.133  -3.176  0.00  0.00    +0.008 A 
ATOM     37  C   UNL     1      -2.387   0.736  -4.428  0.00  0.00    +0.038 A 
ATOM     38  C   UNL     1      -2.376  -0.605  -4.769  0.00  0.00    +0.123 A 
ATOM     39  C   UNL     1      -1.929  -1.547  -3.858  0.00  0.00    +0.038 A 
ATOM     40  C   UNL     1      -1.494  -1.147  -2.609  0.00  0.00    +0.008 A 
ATOM     41  F   UNL     1      -2.801  -0.995  -5.991  0.00  0.00    -0.205 F 
ENDBRANCH  34  35
ENDBRANCH  33  34
ENDBRANCH  28  29
ENDBRANCH   1  28
TORSDOF 8
