REMARK  Name = ZINC09667811
REMARK  7 active torsions:
REMARK  status: ('A' for Active; 'I' for Inactive)
REMARK    1  A    between atoms: C_1  and  C_2
REMARK    2  A    between atoms: C_2  and  C_4
REMARK    3  A    between atoms: C_2  and  S_18
REMARK    4  A    between atoms: N_6  and  C_7
REMARK    5  A    between atoms: C_8  and  C_16
REMARK    6  A    between atoms: S_18  and  C_19
REMARK    7  A    between atoms: N_29  and  C_30
REMARK                            x       y       z     vdW  Elec       q    Type
REMARK                         _______ _______ _______ _____ _____    ______ ____
ROOT
ATOM      1  C   UNL     1      -0.184  10.075  -1.254  0.00  0.00    +0.029 C 
ATOM      2  C   UNL     1      -0.942  10.262   0.061  0.00  0.00    +0.137 C 
ENDROOT
BRANCH   2   3
ATOM      3  C   UNL     1      -1.367  11.702   0.196  0.00  0.00    +0.231 C 
ATOM      4  O   UNL     1      -2.505  12.026  -0.071  0.00  0.00    -0.274 OA
ATOM      5  N   UNL     1      -0.482  12.629   0.613  0.00  0.00    -0.278 N 
ATOM      6  H   UNL     1       0.428  12.370   0.827  0.00  0.00    +0.155 HD
BRANCH   5   7
ATOM      7  C   UNL     1      -0.873  13.955   0.737  0.00  0.00    +0.090 A 
ATOM      8  C   UNL     1      -0.116  15.042   1.147  0.00  0.00    +0.084 A 
ATOM      9  C   UNL     1      -0.769  16.338   1.190  0.00  0.00    -0.018 A 
ATOM     10  C   UNL     1      -2.068  16.340   0.820  0.00  0.00    -0.004 A 
ATOM     11  S   UNL     1      -2.424  14.655   0.411  0.00  0.00    -0.077 S 
ATOM     12  C   UNL     1      -2.990  17.519   0.766  0.00  0.00    +0.043 C 
ATOM     13  C   UNL     1      -2.348  18.672   1.552  0.00  0.00    +0.005 C 
ATOM     14  C   UNL     1      -0.889  18.816   1.112  0.00  0.00    +0.005 C 
ATOM     15  C   UNL     1      -0.072  17.625   1.617  0.00  0.00    +0.037 C 
BRANCH   8  16
ATOM     16  C   UNL     1       1.261  14.892   1.513  0.00  0.00    +0.102 C 
ATOM     17  N   UNL     1       2.352  14.772   1.804  0.00  0.00    -0.191 NA
ENDBRANCH   8  16
ENDBRANCH   5   7
ENDBRANCH   2   3
BRANCH   2  18
ATOM     18  S   UNL     1      -2.406   9.198   0.070  0.00  0.00    -0.072 S 
BRANCH  18  19
ATOM     19  C   UNL     1      -1.634   7.614   0.055  0.00  0.00    +0.212 A 
ATOM     20  N   UNL     1      -2.388   6.523   0.057  0.00  0.00    -0.201 NA
ATOM     21  C   UNL     1      -1.803   5.329   0.046  0.00  0.00    +0.165 A 
ATOM     22  C   UNL     1      -0.394   5.273   0.033  0.00  0.00    +0.138 A 
ATOM     23  C   UNL     1      -0.036   3.845   0.022  0.00  0.00    +0.029 A 
ATOM     24  C   UNL     1       1.176   3.158   0.007  0.00  0.00    +0.012 A 
ATOM     25  C   UNL     1       1.182   1.780   0.000  0.00  0.00    +0.001 A 
ATOM     26  C   UNL     1      -0.013   1.076   0.008  0.00  0.00    +0.002 A 
ATOM     27  C   UNL     1      -1.219   1.743   0.017  0.00  0.00    +0.026 A 
ATOM     28  C   UNL     1      -1.246   3.134   0.030  0.00  0.00    +0.053 A 
ATOM     29  N   UNL     1      -2.289   4.045   0.044  0.00  0.00    -0.327 N 
ATOM     30  C   UNL     1      -3.710   3.689   0.056  0.00  0.00    +0.151 C 
ATOM     31  N   UNL     1       0.302   6.401   0.031  0.00  0.00    -0.143 NA
ATOM     32  N   UNL     1      -0.307   7.537   0.042  0.00  0.00    -0.122 NA
ENDBRANCH  18  19
ENDBRANCH   2  18
TORSDOF 5
