REMARK  Name = ZINC46581402
REMARK  8 active torsions:
REMARK  status: ('A' for Active; 'I' for Inactive)
REMARK    1  A    between atoms: C_1  and  C_2
REMARK    2  A    between atoms: C_6  and  N_9
REMARK    3  A    between atoms: C_7  and  C_8
REMARK    4  A    between atoms: C_10  and  C_12
REMARK    5  A    between atoms: C_12  and  S_13
REMARK    6  A    between atoms: S_13  and  C_14
REMARK    7  A    between atoms: C_18  and  C_24
REMARK    8  A    between atoms: C_19  and  C_23
REMARK                            x       y       z     vdW  Elec       q    Type
REMARK                         _______ _______ _______ _____ _____    ______ ____
ROOT
ATOM      1  S   UNL     1       1.062  -6.896   3.459  0.00  0.00    -0.077 S 
ENDROOT
BRANCH   1   2
ATOM      2  C   UNL     1       0.879  -7.634   5.049  0.00  0.00    +0.191 A 
ATOM      3  N   UNL     1       0.995  -6.879   6.135  0.00  0.00    -0.207 NA
ATOM      4  C   UNL     1       0.867  -7.376   7.353  0.00  0.00    +0.129 A 
ATOM      5  C   UNL     1       0.598  -8.764   7.515  0.00  0.00    +0.050 A 
ATOM      6  C   UNL     1       0.417  -9.538   8.731  0.00  0.00    -0.028 A 
ATOM      7  C   UNL     1       0.168 -10.852   8.640  0.00  0.00    -0.008 A 
ATOM      8  S   UNL     1       0.157 -11.153   6.883  0.00  0.00    -0.073 S 
ATOM      9  C   UNL     1       0.488  -9.505   6.318  0.00  0.00    +0.115 A 
ATOM     10  N   UNL     1       0.623  -8.932   5.138  0.00  0.00    -0.214 NA
ATOM     11  C   UNL     1      -0.051 -11.840   9.757  0.00  0.00    +0.052 C 
ATOM     12  C   UNL     1       0.509  -8.872  10.080  0.00  0.00    +0.045 C 
ATOM     13  N   UNL     1       0.995  -6.556   8.459  0.00  0.00    -0.343 N 
ATOM     14  H   UNL     1       1.427  -5.691   8.375  0.00  0.00    +0.144 HD
ATOM     15  H   UNL     1       0.653  -6.845   9.320  0.00  0.00    +0.144 HD
ENDBRANCH   1   2
BRANCH   1  16
ATOM     16  C   UNL     1       1.395  -5.150   3.821  0.00  0.00    +0.173 C 
BRANCH  16  18
ATOM     17  N   UNL     1       1.832  -3.072   2.553  0.00  0.00    -0.285 N 
ATOM     18  C   UNL     1       1.574  -4.395   2.530  0.00  0.00    +0.227 C 
ATOM     19  O   UNL     1       1.486  -4.977   1.470  0.00  0.00    -0.275 OA
ATOM     20  H   UNL     1       1.921  -2.610   3.402  0.00  0.00    +0.155 HD
BRANCH  17  26
ATOM     21  C   UNL     1       3.477   0.882   0.138  0.00  0.00    +0.044 C 
ATOM     22  C   UNL     1       2.764  -0.446   0.154  0.00  0.00    -0.046 A 
ATOM     23  C   UNL     1       2.246  -0.967  -1.018  0.00  0.00    +0.004 A 
ATOM     24  C   UNL     1       1.591  -2.185  -1.007  0.00  0.00    +0.002 A 
ATOM     25  C   UNL     1       1.453  -2.885   0.176  0.00  0.00    +0.023 A 
ATOM     26  C   UNL     1       1.971  -2.365   1.354  0.00  0.00    +0.037 A 
ATOM     27  C   UNL     1       2.633  -1.144   1.339  0.00  0.00    -0.026 A 
ATOM     28  C   UNL     1       3.202  -0.578   2.614  0.00  0.00    +0.046 C 
ENDBRANCH  17  26
ENDBRANCH  16  18
ENDBRANCH   1  16
TORSDOF 4
