REMARK  Name = ZINC10735613
REMARK  7 active torsions:
REMARK  status: ('A' for Active; 'I' for Inactive)
REMARK    1  A    between atoms: C_1  and  C_2
REMARK    2  A    between atoms: C_2  and  C_28
REMARK    3  A    between atoms: N_5  and  C_9
REMARK    4  A    between atoms: C_9  and  C_10
REMARK    5  A    between atoms: N_12  and  N_13
REMARK    6  A    between atoms: C_14  and  C_16
REMARK    7  A    between atoms: C_19  and  C_21
REMARK                            x       y       z     vdW  Elec       q    Type
REMARK                         _______ _______ _______ _____ _____    ______ ____
ROOT
ATOM      1  C   UNL     1       1.981  -5.048  -0.043  0.00  0.00    +0.247 C 
ATOM      2  O   UNL     1       0.769  -5.079  -0.032  0.00  0.00    -0.273 OA
ATOM      3  N   UNL     1       2.625  -3.864  -0.043  0.00  0.00    -0.233 N 
ATOM      4  H   UNL     1       3.595  -3.838  -0.052  0.00  0.00    +0.173 HD
ENDROOT
BRANCH   3   5
ATOM      5  N   UNL     1       1.893  -2.669  -0.030  0.00  0.00    -0.230 N 
ATOM      6  C   UNL     1       2.537  -1.484  -0.030  0.00  0.00    +0.267 C 
ATOM      7  O   UNL     1       3.754  -1.453  -0.041  0.00  0.00    -0.268 OA
ATOM      8  H   UNL     1       0.924  -2.694  -0.021  0.00  0.00    +0.173 HD
BRANCH   6   9
ATOM      9  C   UNL     1       1.772  -0.235  -0.016  0.00  0.00    +0.076 A 
ATOM     10  C   UNL     1       2.237   1.072  -0.013  0.00  0.00    +0.021 A 
ATOM     11  C   UNL     1       1.328   2.092   0.001  0.00  0.00    +0.017 A 
ATOM     12  C   UNL     1      -0.022   1.781   0.012  0.00  0.00    +0.020 A 
ATOM     13  S   UNL     1       0.002  -0.004   0.002  0.00  0.00    -0.084 S 
BRANCH  12  14
ATOM     14  C   UNL     1      -1.184   2.693   0.023  0.00  0.00    -0.011 A 
ATOM     15  C   UNL     1      -0.990   4.076   0.035  0.00  0.00    +0.012 A 
ATOM     16  C   UNL     1      -2.078   4.923   0.039  0.00  0.00    +0.039 A 
ATOM     17  C   UNL     1      -3.363   4.404   0.044  0.00  0.00    +0.123 A 
ATOM     18  C   UNL     1      -3.562   3.032   0.037  0.00  0.00    +0.039 A 
ATOM     19  C   UNL     1      -2.481   2.176   0.027  0.00  0.00    +0.012 A 
ATOM     20  F   UNL     1      -4.426   5.238   0.054  0.00  0.00    -0.205 F 
ENDBRANCH  12  14
ENDBRANCH   6   9
ENDBRANCH   3   5
BRANCH   1  21
ATOM     21  C   UNL     1       2.768  -6.333  -0.057  0.00  0.00    +0.215 C 
BRANCH  21  26
ATOM     22  C   UNL     1      -0.982  -8.945  -1.151  0.00  0.00    +0.042 C 
ATOM     23  C   UNL     1       0.458  -9.172  -0.685  0.00  0.00    +0.113 C 
ATOM     24  C   UNL     1       1.358  -8.053  -1.168  0.00  0.00    +0.247 C 
ATOM     25  O   UNL     1       1.591  -7.745  -2.317  0.00  0.00    -0.273 OA
ATOM     26  N   UNL     1       1.845  -7.471  -0.055  0.00  0.00    -0.215 N 
ATOM     27  C   UNL     1       1.387  -8.064   1.053  0.00  0.00    +0.310 C 
ATOM     28  O   UNL     1       1.688  -7.719   2.179  0.00  0.00    -0.252 OA
ATOM     29  N   UNL     1       0.551  -9.082   0.782  0.00  0.00    -0.285 N 
ATOM     30  H   UNL     1       0.101  -9.650   1.428  0.00  0.00    +0.151 HD
BRANCH  23  31
ATOM     31  C   UNL     1       0.973 -10.527  -1.175  0.00  0.00    +0.021 C 
ATOM     32  C   UNL     1       0.198 -11.212  -2.303  0.00  0.00    +0.006 C 
ATOM     33  C   UNL     1       0.116 -11.759  -0.876  0.00  0.00    +0.006 C 
ENDBRANCH  23  31
ENDBRANCH  21  26
ENDBRANCH   1  21
TORSDOF 6
