REMARK  Name = ZINC13494563
REMARK  15 active torsions:
REMARK  status: ('A' for Active; 'I' for Inactive)
REMARK    1  A    between atoms: C_1  and  C_2
REMARK    2  A    between atoms: C_2  and  C_3
REMARK    3  A    between atoms: C_3  and  C_5
REMARK    4  A    between atoms: C_3  and  N_71
REMARK    5  A    between atoms: N_9  and  C_10
REMARK    6  A    between atoms: C_10  and  C_11
REMARK    7  A    between atoms: C_10  and  C_12
REMARK    8  A    between atoms: C_10  and  C_13
REMARK    9  A    between atoms: C_14  and  C_15
REMARK   10  A    between atoms: C_14  and  N_71
REMARK   11  A    between atoms: C_15  and  C_16
REMARK   12  A    between atoms: C_20  and  C_22
REMARK   13  A    between atoms: C_23  and  C_24
REMARK   14  A    between atoms: C_23  and  N_71
REMARK   15  A    between atoms: C_28  and  C_36
REMARK                            x       y       z     vdW  Elec       q    Type
REMARK                         _______ _______ _______ _____ _____    ______ ____
ROOT
ATOM      1  N   UNL     1      -3.697   0.447   1.121  0.00  0.00    +0.389 N 
ATOM      2  H   UNL     1      -3.634  -0.505   0.743  0.00  0.00    -0.080 HD
ENDROOT
BRANCH   1   3
ATOM      3  C   UNL     1      -4.923   1.089   0.601  0.00  0.00    +0.003 C 
BRANCH   3   4
ATOM      4  C   UNL     1      -5.233   0.505  -0.753  0.00  0.00    +0.139 A 
ATOM      5  N   UNL     1      -4.365   0.126  -1.659  0.00  0.00    -0.115 NA
ATOM      6  N   UNL     1      -5.019  -0.319  -2.676  0.00  0.00    -0.023 NA
ATOM      7  N   UNL     1      -6.282  -0.227  -2.445  0.00  0.00    -0.043 NA
ATOM      8  N   UNL     1      -6.455   0.277  -1.270  0.00  0.00    -0.226 N 
BRANCH   8   9
ATOM      9  C   UNL     1      -7.739   0.549  -0.620  0.00  0.00    +0.059 C 
ATOM     10  C   UNL     1      -7.772   2.003  -0.145  0.00  0.00    +0.036 C 
ATOM     11  C   UNL     1      -8.876   0.313  -1.616  0.00  0.00    +0.036 C 
ATOM     12  C   UNL     1      -7.911  -0.383   0.581  0.00  0.00    +0.036 C 
ENDBRANCH   8   9
ENDBRANCH   3   4
BRANCH   3  14
ATOM     13  C   UNL     1      -4.569   3.217   1.862  0.00  0.00    +0.002 C 
ATOM     14  C   UNL     1      -4.719   2.600   0.470  0.00  0.00    -0.011 C 
ENDBRANCH   3  14
ENDBRANCH   1   3
BRANCH   1  15
ATOM     15  C   UNL     1      -2.507   1.212   0.695  0.00  0.00    -0.073 C 
BRANCH  15  16
ATOM     16  C   UNL     1      -2.337   1.059  -0.818  0.00  0.00    +0.016 C 
BRANCH  16  17
ATOM     17  C   UNL     1      -1.039   1.695  -1.245  0.00  0.00    -0.049 A 
ATOM     18  C   UNL     1       0.139   0.976  -1.175  0.00  0.00    +0.003 A 
ATOM     19  C   UNL     1       1.329   1.557  -1.572  0.00  0.00    +0.001 A 
ATOM     20  C   UNL     1       1.340   2.860  -2.035  0.00  0.00    +0.003 A 
ATOM     21  C   UNL     1       0.163   3.581  -2.100  0.00  0.00    -0.050 A 
ATOM     22  C   UNL     1      -1.027   2.999  -1.703  0.00  0.00    +0.007 A 
ATOM     23  C   UNL     1       0.175   5.000  -2.606  0.00  0.00    +0.044 C 
ENDBRANCH  16  17
ENDBRANCH  15  16
ENDBRANCH   1  15
BRANCH   1  24
ATOM     24  C   UNL     1      -3.751   0.377   2.596  0.00  0.00    -0.037 C 
BRANCH  24  25
ATOM     25  C   UNL     1      -4.788  -0.642   2.995  0.00  0.00    +0.001 A 
ATOM     26  C   UNL     1      -4.423  -1.931   3.203  0.00  0.00    +0.017 A 
ATOM     27  C   UNL     1      -5.454  -2.896   3.590  0.00  0.00    -0.001 A 
ATOM     28  C   UNL     1      -5.138  -4.240   3.817  0.00  0.00    +0.013 A 
ATOM     29  C   UNL     1      -6.123  -5.115   4.178  0.00  0.00    -0.050 A 
ATOM     30  C   UNL     1      -7.435  -4.683   4.320  0.00  0.00    +0.005 A 
ATOM     31  C   UNL     1      -7.769  -3.364   4.101  0.00  0.00    +0.026 A 
ATOM     32  C   UNL     1      -6.782  -2.454   3.733  0.00  0.00    +0.049 A 
ATOM     33  N   UNL     1      -7.088  -1.129   3.508  0.00  0.00    -0.322 N 
ATOM     34  H   UNL     1      -8.004  -0.826   3.607  0.00  0.00    +0.169 HD
ATOM     35  C   UNL     1      -6.133  -0.249   3.158  0.00  0.00    +0.251 A 
ATOM     36  O   UNL     1      -6.439   0.916   2.972  0.00  0.00    -0.268 OA
ATOM     37  C   UNL     1      -5.783  -6.563   4.422  0.00  0.00    +0.044 C 
ENDBRANCH  24  25
ENDBRANCH   1  24
TORSDOF 9
