REMARK  Name = ZINC67381796
REMARK  11 active torsions:
REMARK  status: ('A' for Active; 'I' for Inactive)
REMARK    1  A    between atoms: C_1  and  C_2
REMARK    2  A    between atoms: C_2  and  C_4
REMARK    3  A    between atoms: C_2  and  N_15
REMARK    4  A    between atoms: C_8  and  S_10
REMARK    5  A    between atoms: S_10  and  N_13
REMARK    6  A    between atoms: N_13  and  C_14
REMARK    7  A    between atoms: N_18  and  C_19
REMARK    8  A    between atoms: C_19  and  C_20
REMARK    9  A    between atoms: C_20  and  N_25
REMARK   10  A    between atoms: N_25  and  C_26
REMARK   11  A    between atoms: N_25  and  C_27
REMARK                            x       y       z     vdW  Elec       q    Type
REMARK                         _______ _______ _______ _____ _____    ______ ____
ROOT
ATOM      1  N   UNL     1      -1.491  -0.026  -0.157  0.00  0.00    -0.293 N 
ATOM      2  C   UNL     1      -2.145  -0.340  -1.292  0.00  0.00    +0.300 C 
ATOM      3  O   UNL     1      -1.623  -0.136  -2.371  0.00  0.00    -0.253 OA
ATOM      4  N   UNL     1      -3.379  -0.879  -1.232  0.00  0.00    -0.301 N 
ATOM      5  H   UNL     1      -1.908  -0.189   0.704  0.00  0.00    +0.151 HD
ATOM      6  H   UNL     1      -3.796  -1.042  -0.372  0.00  0.00    +0.150 HD
ENDROOT
BRANCH   1   8
ATOM      7  C   UNL     1      -0.264   2.075  -0.402  0.00  0.00    +0.033 C 
ATOM      8  C   UNL     1      -0.150   0.560  -0.222  0.00  0.00    +0.102 C 
BRANCH   8   9
ATOM      9  C   UNL     1       0.593   0.260   1.054  0.00  0.00    -0.026 A 
ATOM     10  C   UNL     1      -0.069   0.314   2.267  0.00  0.00    +0.005 A 
ATOM     11  C   UNL     1       0.612   0.039   3.438  0.00  0.00    +0.002 A 
ATOM     12  C   UNL     1       1.954  -0.291   3.396  0.00  0.00    +0.028 A 
ATOM     13  C   UNL     1       2.615  -0.345   2.184  0.00  0.00    +0.106 A 
ATOM     14  C   UNL     1       1.933  -0.074   1.012  0.00  0.00    +0.034 A 
BRANCH  13  15
ATOM     15  S   UNL     1       4.326  -0.765   2.130  0.00  0.00    +0.058 S 
ATOM     16  O   UNL     1       4.841  -0.214   0.926  0.00  0.00    -0.153 OA
ATOM     17  O   UNL     1       4.863  -0.443   3.406  0.00  0.00    -0.153 OA
BRANCH  15  18
ATOM     18  N   UNL     1       4.422  -2.411   1.978  0.00  0.00    -0.193 NA
ATOM     19  C   UNL     1       3.919  -3.065   0.767  0.00  0.00    +0.127 C 
ATOM     20  H   UNL     1       4.811  -2.942   2.690  0.00  0.00    +0.148 HD
ENDBRANCH  15  18
ENDBRANCH  13  15
ENDBRANCH   8   9
ENDBRANCH   1   8
BRANCH   4  21
ATOM     21  C   UNL     1      -4.090  -1.221  -2.467  0.00  0.00    +0.094 C 
BRANCH  21  22
ATOM     22  C   UNL     1      -5.409  -1.915  -2.120  0.00  0.00    -0.050 C 
ATOM     23  C   UNL     1      -5.130  -3.255  -1.409  0.00  0.00    -0.010 C 
ATOM     24  C   UNL     1      -6.227  -4.206  -1.947  0.00  0.00    -0.001 C 
ATOM     25  C   UNL     1      -6.344  -3.787  -3.433  0.00  0.00    -0.001 C 
ATOM     26  C   UNL     1      -6.181  -2.253  -3.408  0.00  0.00    -0.010 C 
BRANCH  22  27
ATOM     27  N   UNL     1      -6.223  -1.046  -1.259  0.00  0.00    +0.381 N 
ATOM     28  C   UNL     1      -6.542   0.195  -1.977  0.00  0.00    -0.096 C 
ATOM     29  C   UNL     1      -7.468  -1.740  -0.902  0.00  0.00    -0.096 C 
ATOM     30  H   UNL     1      -5.708  -0.827  -0.420  0.00  0.00    -0.082 HD
ENDBRANCH  22  27
ENDBRANCH  21  22
ENDBRANCH   4  21
TORSDOF 7
