REMARK  Name = ZINC57658137
REMARK  6 active torsions:
REMARK  status: ('A' for Active; 'I' for Inactive)
REMARK    1  A    between atoms: C_1  and  C_2
REMARK    2  A    between atoms: C_5  and  N_9
REMARK    3  A    between atoms: C_6  and  C_8
REMARK    4  A    between atoms: C_10  and  C_12
REMARK    5  A    between atoms: C_12  and  C_14
REMARK    6  A    between atoms: C_12  and  O_24
REMARK                            x       y       z     vdW  Elec       q    Type
REMARK                         _______ _______ _______ _____ _____    ______ ____
ROOT
ATOM      1  C   UNL     1      -0.134  -6.343  -1.187  0.00  0.00    +0.230 C 
ENDROOT
BRANCH   1   2
ATOM      2  C   UNL     1       1.148  -6.926  -0.651  0.00  0.00    -0.007 A 
ATOM      3  C   UNL     1       2.257  -7.023  -1.469  0.00  0.00    +0.010 A 
ATOM      4  C   UNL     1       3.434  -7.559  -0.982  0.00  0.00    +0.050 A 
ATOM      5  C   UNL     1       3.505  -8.000   0.332  0.00  0.00    +0.162 A 
ATOM      6  C   UNL     1       2.391  -7.899   1.156  0.00  0.00    +0.162 A 
ATOM      7  C   UNL     1       1.214  -7.357   0.661  0.00  0.00    +0.056 A 
ATOM      8  O   UNL     1       2.441  -8.318   2.450  0.00  0.00    -0.485 OA
ATOM      9  C   UNL     1       3.520  -9.190   2.802  0.00  0.00    +0.270 C 
ATOM     10  C   UNL     1       4.816  -8.611   2.219  0.00  0.00    +0.270 C 
ATOM     11  O   UNL     1       4.670  -8.528   0.797  0.00  0.00    -0.485 OA
ENDBRANCH   1   2
BRANCH   1  13
ATOM     12  N   UNL     1       0.059  -4.170  -0.021  0.00  0.00    -0.283 N 
ATOM     13  C   UNL     1      -0.040  -4.839  -1.187  0.00  0.00    +0.250 C 
ATOM     14  O   UNL     1      -0.054  -4.230  -2.236  0.00  0.00    -0.272 OA
ATOM     15  H   UNL     1       0.135  -4.658   0.814  0.00  0.00    +0.155 HD
BRANCH  12  20
ATOM     16  C   UNL     1       0.025   1.503   0.005  0.00  0.00    +0.044 C 
ATOM     17  C   UNL     1       0.034  -0.004  -0.002  0.00  0.00    -0.050 A 
ATOM     18  C   UNL     1       0.632  -0.685  -1.046  0.00  0.00    +0.005 A 
ATOM     19  C   UNL     1       0.642  -2.066  -1.055  0.00  0.00    +0.024 A 
ATOM     20  C   UNL     1       0.051  -2.771  -0.014  0.00  0.00    +0.036 A 
ATOM     21  C   UNL     1      -0.548  -2.083   1.033  0.00  0.00    -0.029 A 
ATOM     22  C   UNL     1      -0.550  -0.702   1.039  0.00  0.00    +0.008 A 
ATOM     23  C   UNL     1      -1.190  -2.843   2.165  0.00  0.00    +0.045 C 
ENDBRANCH  12  20
ENDBRANCH   1  13
BRANCH   1  24
ATOM     24  O   UNL     1      -0.346  -6.806  -2.522  0.00  0.00    -0.378 OA
ATOM     25  H   UNL     1       0.358  -6.564  -3.139  0.00  0.00    +0.211 HD
ENDBRANCH   1  24
TORSDOF 4
