REMARK  Name = ZINC19869230
REMARK  5 active torsions:
REMARK  status: ('A' for Active; 'I' for Inactive)
REMARK    1  A    between atoms: C_1  and  C_2
REMARK    2  A    between atoms: C_2  and  C_3
REMARK    3  A    between atoms: C_9  and  O_11
REMARK    4  A    between atoms: O_11  and  C_12
REMARK    5  A    between atoms: C_17  and  N_18
REMARK                            x       y       z     vdW  Elec       q    Type
REMARK                         _______ _______ _______ _____ _____    ______ ____
ROOT
ATOM      1  C   UNL     1      -1.807   3.003   4.758  0.00  0.00    +0.145 A 
ATOM      2  C   UNL     1      -3.166   3.232   4.623  0.00  0.00    +0.097 A 
ATOM      3  C   UNL     1      -4.006   3.107   5.720  0.00  0.00    +0.166 A 
ATOM      4  C   UNL     1      -3.483   2.747   6.956  0.00  0.00    +0.164 A 
ATOM      5  C   UNL     1      -2.122   2.519   7.093  0.00  0.00    +0.075 A 
ATOM      6  C   UNL     1      -1.283   2.640   5.996  0.00  0.00    +0.071 A 
ATOM      7  O   UNL     1      -4.294   2.612   8.042  0.00  0.00    -0.485 OA
ATOM      8  C   UNL     1      -5.590   3.214   7.957  0.00  0.00    +0.270 C 
ATOM      9  C   UNL     1      -6.202   2.846   6.598  0.00  0.00    +0.270 C 
ATOM     10  O   UNL     1      -5.339   3.343   5.569  0.00  0.00    -0.485 OA
ENDROOT
BRANCH   6  11
ATOM     11  N   UNL     1       0.092   2.404   6.134  0.00  0.00    -0.355 N 
ATOM     12  H   UNL     1       0.505   2.117   7.112  0.00  0.00    +0.142 HD
ATOM     13  H   UNL     1       0.757   2.505   5.264  0.00  0.00    +0.142 HD
ENDBRANCH   6  11
BRANCH   1  14
ATOM     14  O   UNL     1      -0.985   3.126   3.680  0.00  0.00    -0.487 OA
BRANCH  14  20
ATOM     15  C   UNL     1      -0.691   2.881   1.294  0.00  0.00    +0.029 C 
ATOM     16  C   UNL     1       0.647   3.622   1.362  0.00  0.00    +0.007 C 
ATOM     17  C   UNL     1       0.407   5.124   1.199  0.00  0.00    +0.001 C 
ATOM     18  C   UNL     1      -0.507   5.619   2.322  0.00  0.00    +0.004 C 
ATOM     19  C   UNL     1      -1.845   4.878   2.255  0.00  0.00    +0.045 C 
ATOM     20  C   UNL     1      -1.605   3.376   2.417  0.00  0.00    +0.177 C 
BRANCH  15  22
ATOM     21  C   UNL     1       0.359   0.861   0.267  0.00  0.00    +0.004 C 
ATOM     22  C   UNL     1      -0.451   1.379   1.456  0.00  0.00    +0.004 C 
ENDBRANCH  15  22
ENDBRANCH  14  20
ENDBRANCH   1  14
TORSDOF 4
