REMARK  Name = ZINC10026631
REMARK  8 active torsions:
REMARK  status: ('A' for Active; 'I' for Inactive)
REMARK    1  A    between atoms: C_1  and  C_2
REMARK    2  A    between atoms: C_2  and  N_3
REMARK    3  A    between atoms: N_3  and  C_4
REMARK    4  A    between atoms: C_4  and  C_5
REMARK    5  A    between atoms: N_12  and  N_13
REMARK    6  A    between atoms: C_14  and  C_16
REMARK    7  A    between atoms: C_17  and  O_27
REMARK    8  A    between atoms: N_19  and  C_21
REMARK                            x       y       z     vdW  Elec       q    Type
REMARK                         _______ _______ _______ _____ _____    ______ ____
ROOT
ATOM      1  N   UNL     1       0.679   5.655  -0.004  0.00  0.00    -0.228 N 
ATOM      2  C   UNL     1       1.315   4.467  -0.029  0.00  0.00    +0.284 C 
ATOM      3  O   UNL     1       2.531   4.428  -0.041  0.00  0.00    -0.267 OA
ATOM      4  H   UNL     1      -0.290   5.686   0.006  0.00  0.00    +0.173 HD
ENDROOT
BRANCH   1   8
ATOM      5  N   UNL     1       1.498   9.172  -0.165  0.00  0.00    -0.280 N 
ATOM      6  C   UNL     1       0.785   8.032  -0.073  0.00  0.00    +0.319 C 
ATOM      7  O   UNL     1      -0.430   8.075  -0.060  0.00  0.00    -0.251 OA
ATOM      8  N   UNL     1       1.418   6.845   0.006  0.00  0.00    -0.218 N 
ATOM      9  H   UNL     1       2.386   6.815   0.069  0.00  0.00    +0.174 HD
BRANCH   5  11
ATOM     10  C   UNL     1       3.337   8.919  -1.758  0.00  0.00    +0.024 C 
ATOM     11  C   UNL     1       2.957   9.115  -0.289  0.00  0.00    +0.106 C 
ENDBRANCH   5  11
BRANCH   5  12
ATOM     12  C   UNL     1       0.815  10.468  -0.142  0.00  0.00    +0.151 C 
BRANCH  12  13
ATOM     13  C   UNL     1       0.703  10.951   1.281  0.00  0.00    +0.007 A 
ATOM     14  C   UNL     1       1.569  11.710   1.996  0.00  0.00    +0.013 A 
ATOM     15  C   UNL     1       1.253  12.038   3.301  0.00  0.00    +0.008 A 
ATOM     16  C   UNL     1       0.091  11.582   3.831  0.00  0.00    +0.045 A 
ATOM     17  S   UNL     1      -0.602  10.665   2.466  0.00  0.00    -0.100 S 
ENDBRANCH  12  13
ENDBRANCH   5  12
ENDBRANCH   1   8
BRANCH   2  18
ATOM     18  C   UNL     1       0.538   3.214  -0.039  0.00  0.00    +0.190 A 
ATOM     19  C   UNL     1       1.063   1.897  -0.064  0.00  0.00    +0.167 A 
ATOM     20  C   UNL     1      -0.019   1.076  -0.065  0.00  0.00    +0.160 A 
ATOM     21  N   UNL     1      -1.123   1.871  -0.048  0.00  0.00    -0.236 N 
ATOM     22  N   UNL     1      -0.778   3.108  -0.027  0.00  0.00    -0.158 NA
BRANCH  21  23
ATOM     23  C   UNL     1      -2.445   1.407  -0.048  0.00  0.00    +0.065 A 
ATOM     24  C   UNL     1      -2.704   0.043  -0.072  0.00  0.00    +0.028 A 
ATOM     25  C   UNL     1      -4.008  -0.411  -0.067  0.00  0.00    +0.002 A 
ATOM     26  C   UNL     1      -5.056   0.491  -0.049  0.00  0.00    +0.000 A 
ATOM     27  C   UNL     1      -4.802   1.850  -0.030  0.00  0.00    +0.002 A 
ATOM     28  C   UNL     1      -3.500   2.310  -0.029  0.00  0.00    +0.028 A 
ENDBRANCH  21  23
BRANCH  19  29
ATOM     29  O   UNL     1       2.374   1.532  -0.083  0.00  0.00    -0.503 OA
ATOM     30  H   UNL     1       2.744   1.440  -0.971  0.00  0.00    +0.292 HD
ENDBRANCH  19  29
ENDBRANCH   2  18
TORSDOF 7
