REMARK  Name = ZINC64151217
REMARK  6 active torsions:
REMARK  status: ('A' for Active; 'I' for Inactive)
REMARK    1  A    between atoms: C_7  and  C_10
REMARK    2  A    between atoms: C_10  and  C_11
REMARK    3  A    between atoms: C_11  and  C_13
REMARK    4  A    between atoms: C_11  and  N_24
REMARK    5  A    between atoms: N_15  and  C_16
REMARK    6  A    between atoms: C_25  and  C_27
REMARK                            x       y       z     vdW  Elec       q    Type
REMARK                         _______ _______ _______ _____ _____    ______ ____
ROOT
ATOM      1  C   UNL     1       0.457  -3.653  -1.462  0.00  0.00    +0.163 C 
ENDROOT
BRANCH   1   2
ATOM      2  C   UNL     1      -0.578  -4.750  -1.471  0.00  0.00    +0.234 C 
ATOM      3  O   UNL     1      -0.294  -5.847  -1.902  0.00  0.00    -0.274 OA
ATOM      4  N   UNL     1      -1.818  -4.510  -1.001  0.00  0.00    -0.309 N 
ATOM      5  H   UNL     1      -2.045  -3.632  -0.656  0.00  0.00    +0.149 HD
BRANCH   4   6
ATOM      6  C   UNL     1      -2.823  -5.576  -1.010  0.00  0.00    +0.095 C 
ATOM      7  C   UNL     1      -2.675  -6.428   0.261  0.00  0.00    +0.046 C 
ATOM      8  C   UNL     1      -3.930  -7.339   0.382  0.00  0.00    +0.168 C 
ATOM      9  S   UNL     1      -5.253  -6.160  -0.125  0.00  0.00    -0.029 S 
ATOM     10  O   UNL     1      -5.776  -5.526   1.034  0.00  0.00    -0.174 OA
ATOM     11  O   UNL     1      -6.138  -6.816  -1.023  0.00  0.00    -0.174 OA
ATOM     12  C   UNL     1      -4.237  -4.948  -1.062  0.00  0.00    +0.188 C 
ENDBRANCH   4   6
ENDBRANCH   1   2
BRANCH   1  13
ATOM     13  N   UNL     1       1.712  -4.162  -2.020  0.00  0.00    -0.300 N 
ATOM     14  C   UNL     1       1.907  -4.157  -3.354  0.00  0.00    +0.245 C 
ATOM     15  O   UNL     1       1.041  -3.731  -4.093  0.00  0.00    -0.270 OA
ATOM     16  H   UNL     1       2.403  -4.501  -1.431  0.00  0.00    +0.150 HD
BRANCH  14  17
ATOM     17  C   UNL     1       3.173  -4.669  -3.917  0.00  0.00    +0.037 A 
ATOM     18  C   UNL     1       4.167  -5.164  -3.071  0.00  0.00    +0.016 A 
ATOM     19  C   UNL     1       5.346  -5.641  -3.602  0.00  0.00    +0.039 A 
ATOM     20  C   UNL     1       5.546  -5.629  -4.973  0.00  0.00    +0.123 A 
ATOM     21  C   UNL     1       4.563  -5.139  -5.819  0.00  0.00    +0.039 A 
ATOM     22  C   UNL     1       3.377  -4.665  -5.299  0.00  0.00    +0.016 A 
ATOM     23  F   UNL     1       6.704  -6.097  -5.489  0.00  0.00    -0.205 F 
ENDBRANCH  14  17
ENDBRANCH   1  13
BRANCH   1  24
ATOM     24  C   UNL     1       0.691  -3.186  -0.024  0.00  0.00    +0.065 C 
BRANCH  24  31
ATOM     25  C   UNL     1      -0.016   1.348   0.009  0.00  0.00    +0.001 A 
ATOM     26  C   UNL     1       1.166   2.101   0.002  0.00  0.00    +0.002 A 
ATOM     27  C   UNL     1       2.391   1.535  -0.013  0.00  0.00    +0.026 A 
ATOM     28  C   UNL     1       2.529   0.120  -0.022  0.00  0.00    +0.043 A 
ATOM     29  N   UNL     1       3.587  -0.654  -0.037  0.00  0.00    -0.380 N 
ATOM     30  C   UNL     1       3.143  -2.053  -0.041  0.00  0.00    +0.144 C 
ATOM     31  C   UNL     1       1.631  -2.008  -0.025  0.00  0.00    -0.039 C 
ATOM     32  C   UNL     1       1.295  -0.698  -0.014  0.00  0.00    -0.001 A 
ATOM     33  C   UNL     1       0.002  -0.004   0.002  0.00  0.00    +0.010 A 
ATOM     34  H   UNL     1       4.509  -0.353  -0.045  0.00  0.00    +0.160 HD
ENDBRANCH  24  31
ENDBRANCH   1  24
TORSDOF 6
