REMARK  Name = ZINC53566353
REMARK  6 active torsions:
REMARK  status: ('A' for Active; 'I' for Inactive)
REMARK    1  A    between atoms: C_1  and  S_2
REMARK    2  A    between atoms: S_2  and  C_5
REMARK    3  A    between atoms: C_5  and  C_6
REMARK    4  A    between atoms: N_14  and  C_15
REMARK    5  A    between atoms: C_15  and  C_16
REMARK    6  A    between atoms: C_16  and  N_18
REMARK                            x       y       z     vdW  Elec       q    Type
REMARK                         _______ _______ _______ _____ _____    ______ ____
ROOT
ATOM      1  C   UNL     1      -1.171  -2.190  -2.960  0.00  0.00    +0.221 C 
ENDROOT
BRANCH   1  10
ATOM      2  C   UNL     1       0.980  -1.834  -1.694  0.00  0.00    +0.132 A 
ATOM      3  N   UNL     1       1.964  -2.553  -1.238  0.00  0.00    -0.231 NA
ATOM      4  C   UNL     1       1.758  -3.858  -1.549  0.00  0.00    +0.089 A 
ATOM      5  C   UNL     1       2.480  -5.031  -1.312  0.00  0.00    +0.030 A 
ATOM      6  C   UNL     1       2.001  -6.228  -1.763  0.00  0.00    +0.002 A 
ATOM      7  C   UNL     1       0.802  -6.294  -2.459  0.00  0.00    +0.002 A 
ATOM      8  C   UNL     1       0.073  -5.150  -2.705  0.00  0.00    +0.028 A 
ATOM      9  C   UNL     1       0.544  -3.924  -2.253  0.00  0.00    +0.069 A 
ATOM     10  N   UNL     1       0.073  -2.628  -2.323  0.00  0.00    -0.317 N 
BRANCH   2  11
ATOM     11  C   UNL     1       0.860  -0.340  -1.540  0.00  0.00    +0.239 C 
BRANCH  11  13
ATOM     12  C   UNL     1      -0.063   1.855  -0.002  0.00  0.00    +0.194 C 
ATOM     13  S   UNL     1      -0.022   0.042  -0.002  0.00  0.00    -0.027 S 
ATOM     14  O   UNL     1       0.775  -0.390   1.092  0.00  0.00    -0.174 OA
ATOM     15  O   UNL     1      -1.355  -0.438  -0.117  0.00  0.00    -0.174 OA
ENDBRANCH  11  13
ENDBRANCH   2  11
ENDBRANCH   1  10
BRANCH   1  16
ATOM     16  C   UNL     1      -0.905  -1.858  -4.405  0.00  0.00    +0.259 C 
ATOM     17  O   UNL     1       0.216  -1.976  -4.860  0.00  0.00    -0.272 OA
BRANCH  16  18
ATOM     18  N   UNL     1      -1.897  -1.435  -5.184  0.00  0.00    -0.145 NA
ATOM     19  C   UNL     1      -1.644  -1.043  -6.429  0.00  0.00    +0.198 A 
ATOM     20  N   UNL     1      -0.442  -1.135  -7.055  0.00  0.00    -0.326 N 
ATOM     21  H   UNL     1       0.372  -1.496  -6.671  0.00  0.00    +0.169 HD
ATOM     22  C   UNL     1      -0.578  -0.624  -8.341  0.00  0.00    +0.065 A 
ATOM     23  C   UNL     1       0.306  -0.471  -9.399  0.00  0.00    +0.028 A 
ATOM     24  C   UNL     1      -0.130   0.083 -10.586  0.00  0.00    +0.002 A 
ATOM     25  C   UNL     1      -1.446   0.489 -10.725  0.00  0.00    +0.002 A 
ATOM     26  C   UNL     1      -2.334   0.342  -9.678  0.00  0.00    +0.028 A 
ATOM     27  C   UNL     1      -1.907  -0.215  -8.482  0.00  0.00    +0.065 A 
ATOM     28  N   UNL     1      -2.550  -0.491  -7.280  0.00  0.00    -0.326 N 
ATOM     29  H   UNL     1      -3.483  -0.318  -7.082  0.00  0.00    +0.169 HD
ENDBRANCH  16  18
ENDBRANCH   1  16
TORSDOF 5
