REMARK  Name = ZINC19320419
REMARK  8 active torsions:
REMARK  status: ('A' for Active; 'I' for Inactive)
REMARK    1  A    between atoms: C_1  and  C_2
REMARK    2  A    between atoms: N_13  and  C_19
REMARK    3  A    between atoms: C_19  and  C_20
REMARK    4  A    between atoms: C_20  and  C_22
REMARK    5  A    between atoms: C_20  and  O_32
REMARK    6  A    between atoms: C_22  and  N_23
REMARK    7  A    between atoms: N_23  and  C_24
REMARK    8  A    between atoms: C_24  and  N_25
REMARK                            x       y       z     vdW  Elec       q    Type
REMARK                         _______ _______ _______ _____ _____    ______ ____
ROOT
ATOM      1  C   UNL     1      -0.766  -1.693   2.019  0.00  0.00    +0.044 C 
ATOM      2  C   UNL     1       0.416  -0.832   1.655  0.00  0.00    -0.050 A 
ATOM      3  C   UNL     1       0.208   0.505   1.361  0.00  0.00    +0.005 A 
ATOM      4  C   UNL     1       1.245   1.355   1.020  0.00  0.00    +0.026 A 
ATOM      5  C   UNL     1       2.527   0.812   0.982  0.00  0.00    +0.049 A 
ATOM      6  C   UNL     1       2.737  -0.567   1.283  0.00  0.00    +0.003 A 
ATOM      7  C   UNL     1       1.666  -1.399   1.626  0.00  0.00    +0.013 A 
ATOM      8  C   UNL     1       4.150  -0.794   1.145  0.00  0.00    -0.020 A 
ATOM      9  C   UNL     1       4.693   0.385   0.779  0.00  0.00    +0.009 A 
ATOM     10  N   UNL     1       3.740   1.362   0.695  0.00  0.00    -0.347 N 
ATOM     11  C   UNL     1       4.099   2.749   0.363  0.00  0.00    +0.103 C 
ATOM     12  C   UNL     1       5.515   2.749  -0.225  0.00  0.00    -0.056 C 
ATOM     13  N   UNL     1       6.446   1.990   0.623  0.00  0.00    +0.388 N 
ATOM     14  C   UNL     1       6.176   0.541   0.530  0.00  0.00    -0.020 C 
ATOM     15  C   UNL     1       6.921  -0.216   1.617  0.00  0.00    -0.009 C 
ATOM     16  C   UNL     1       6.326  -1.537   2.038  0.00  0.00    +0.003 C 
ATOM     17  C   UNL     1       5.053  -1.981   1.332  0.00  0.00    +0.037 C 
ATOM     18  H   UNL     1       6.289   2.306   1.665  0.00  0.00    -0.081 HD
ENDROOT
BRANCH  13  19
ATOM     19  C   UNL     1       7.840   2.290   0.272  0.00  0.00    -0.045 C 
BRANCH  19  20
ATOM     20  C   UNL     1       8.237   3.642   0.868  0.00  0.00    +0.112 C 
BRANCH  20  21
ATOM     21  O   UNL     1       7.492   4.681   0.228  0.00  0.00    -0.392 OA
ATOM     22  H   UNL     1       7.643   5.729   0.526  0.00  0.00    +0.210 HD
ENDBRANCH  20  21
BRANCH  20  23
ATOM     23  C   UNL     1       9.733   3.878   0.647  0.00  0.00    +0.108 C 
BRANCH  23  24
ATOM     24  N   UNL     1      10.138   5.118   1.322  0.00  0.00    -0.330 NA
ATOM     25  H   UNL     1       9.568   5.963   0.908  0.00  0.00    +0.120 HD
BRANCH  24  26
ATOM     26  C   UNL     1      11.571   5.377   1.131  0.00  0.00    +0.005 C 
BRANCH  26  27
ATOM     27  N   UNL     1      11.758   6.279  -0.013  0.00  0.00    +0.388 N 
ATOM     28  C   UNL     1      11.583   5.557  -1.292  0.00  0.00    -0.077 C 
ATOM     29  C   UNL     1      12.027   6.362  -2.483  0.00  0.00    -0.019 C 
ATOM     30  C   UNL     1      13.493   6.000  -2.800  0.00  0.00    -0.002 C 
ATOM     31  C   UNL     1      14.431   6.663  -1.900  0.00  0.00    -0.002 C 
ATOM     32  C   UNL     1      14.209   6.261  -0.427  0.00  0.00    -0.019 C 
ATOM     33  C   UNL     1      13.029   7.028   0.104  0.00  0.00    -0.077 C 
ATOM     34  H   UNL     1      10.966   7.043   0.004  0.00  0.00    -0.080 HD
ENDBRANCH  26  27
ENDBRANCH  24  26
ENDBRANCH  23  24
ENDBRANCH  20  23
ENDBRANCH  19  20
ENDBRANCH  13  19
TORSDOF 7
