REMARK  Name = ZINC19665301
REMARK  8 active torsions:
REMARK  status: ('A' for Active; 'I' for Inactive)
REMARK    1  A    between atoms: C_1  and  C_2
REMARK    2  A    between atoms: C_3  and  C_8
REMARK    3  A    between atoms: N_5  and  C_7
REMARK    4  A    between atoms: C_10  and  C_14
REMARK    5  A    between atoms: N_16  and  C_17
REMARK    6  A    between atoms: C_17  and  C_18
REMARK    7  A    between atoms: C_18  and  C_20
REMARK    8  A    between atoms: C_18  and  N_27
REMARK                            x       y       z     vdW  Elec       q    Type
REMARK                         _______ _______ _______ _____ _____    ______ ____
ROOT
ATOM      1  C   UNL     1      -1.950   3.976   3.553  0.00  0.00    +0.264 C 
ATOM      2  O   UNL     1      -2.862   3.531   4.222  0.00  0.00    -0.268 OA
ATOM      3  N   UNL     1      -1.044   3.141   3.007  0.00  0.00    -0.311 N 
ATOM      4  H   UNL     1      -0.219   3.543   2.401  0.00  0.00    +0.149 HD
ENDROOT
BRANCH   1   7
ATOM      5  C   UNL     1      -2.204   7.613   3.387  0.00  0.00    +0.070 A 
ATOM      6  C   UNL     1      -2.704   6.426   3.842  0.00  0.00    +0.062 A 
ATOM      7  C   UNL     1      -1.835   5.433   3.337  0.00  0.00    +0.147 A 
ATOM      8  N   UNL     1      -0.899   6.049   2.642  0.00  0.00    -0.169 NA
ATOM      9  N   UNL     1      -1.095   7.318   2.651  0.00  0.00    -0.276 N 
ATOM     10  H   UNL     1      -0.520   8.126   2.175  0.00  0.00    +0.189 HD
BRANCH   5  13
ATOM     11  C   UNL     1      -0.519  10.229   3.995  0.00  0.00    +0.068 C 
ATOM     12  C   UNL     1      -2.021  10.130   3.915  0.00  0.00    +0.069 A 
ATOM     13  C   UNL     1      -2.761   8.962   3.643  0.00  0.00    +0.040 A 
ATOM     14  C   UNL     1      -4.084   9.301   3.654  0.00  0.00    +0.118 A 
ATOM     15  N   UNL     1      -4.165  10.618   3.929  0.00  0.00    -0.274 N 
ATOM     16  N   UNL     1      -2.864  11.114   4.084  0.00  0.00    -0.176 NA
ATOM     17  C   UNL     1      -5.400  11.398   4.040  0.00  0.00    +0.172 C 
ENDBRANCH   5  13
ENDBRANCH   1   7
BRANCH   3  18
ATOM     18  C   UNL     1      -1.159   1.696   3.221  0.00  0.00    +0.094 C 
BRANCH  18  19
ATOM     19  C   UNL     1      -0.079   0.974   2.413  0.00  0.00    -0.020 C 
BRANCH  19  20
ATOM     20  C   UNL     1      -0.280  -0.516   2.525  0.00  0.00    -0.059 A 
ATOM     21  C   UNL     1      -1.466  -1.087   2.103  0.00  0.00    +0.005 A 
ATOM     22  C   UNL     1      -1.649  -2.453   2.200  0.00  0.00    +0.038 A 
ATOM     23  C   UNL     1      -0.647  -3.249   2.731  0.00  0.00    +0.123 A 
ATOM     24  C   UNL     1       0.538  -2.675   3.158  0.00  0.00    +0.038 A 
ATOM     25  C   UNL     1       0.721  -1.309   3.054  0.00  0.00    +0.005 A 
ATOM     26  F   UNL     1      -0.828  -4.584   2.832  0.00  0.00    -0.205 F 
ENDBRANCH  19  20
BRANCH  19  27
ATOM     27  N   UNL     1      -0.172   1.376   1.003  0.00  0.00    +0.385 N 
ATOM     28  C   UNL     1      -1.555   1.711   0.641  0.00  0.00    -0.078 C 
ATOM     29  C   UNL     1      -1.591   2.262  -0.786  0.00  0.00    -0.019 C 
ATOM     30  C   UNL     1      -1.034   1.210  -1.748  0.00  0.00    -0.004 C 
ATOM     31  C   UNL     1       0.390   0.843  -1.321  0.00  0.00    -0.019 C 
ATOM     32  C   UNL     1       0.369   0.333   0.122  0.00  0.00    -0.078 C 
ATOM     33  H   UNL     1       0.439   2.280   0.866  0.00  0.00    -0.081 HD
ENDBRANCH  19  27
ENDBRANCH  18  19
ENDBRANCH   3  18
TORSDOF 6
