REMARK  Name = ZINC13281620
REMARK  2 active torsions:
REMARK  status: ('A' for Active; 'I' for Inactive)
REMARK    1  A    between atoms: C_1  and  O_2
REMARK    2  A    between atoms: O_2  and  C_3
REMARK                            x       y       z     vdW  Elec       q    Type
REMARK                         _______ _______ _______ _____ _____    ______ ____
ROOT
ATOM      1  C   UNL     1       4.476  -4.307  -1.336  0.00  0.00    +0.216 A 
ATOM      2  C   UNL     1       5.495  -3.367  -1.310  0.00  0.00    +0.069 A 
ATOM      3  C   UNL     1       5.220  -2.081  -0.872  0.00  0.00    +0.031 A 
ATOM      4  C   UNL     1       3.922  -1.772  -0.470  0.00  0.00    +0.065 A 
ATOM      5  C   UNL     1       2.949  -2.767  -0.523  0.00  0.00    +0.127 A 
ATOM      6  N   UNL     1       3.253  -3.986  -0.949  0.00  0.00    -0.204 NA
ATOM      7  S   UNL     1       1.295  -2.414  -0.025  0.00  0.00    -0.061 S 
ATOM      8  C   UNL     1       1.225  -0.656  -0.011  0.00  0.00    +0.091 A 
ATOM      9  C   UNL     1       2.397   0.102  -0.015  0.00  0.00    +0.143 A 
ATOM     10  N   UNL     1       2.290   1.431  -0.010  0.00  0.00    -0.201 NA
ATOM     11  C   UNL     1       1.107   2.014   0.002  0.00  0.00    +0.226 A 
ATOM     12  N   UNL     1      -0.016   1.325   0.009  0.00  0.00    -0.205 NA
ATOM     13  C   UNL     1       0.002  -0.004   0.002  0.00  0.00    +0.149 A 
ATOM     14 CL   UNL     1      -1.480  -0.907   0.008  0.00  0.00    -0.061 Cl
ATOM     15 CL   UNL     1       1.027   3.748   0.009  0.00  0.00    -0.041 Cl
ATOM     16  N   UNL     1       3.645  -0.481  -0.021  0.00  0.00    -0.296 N 
ATOM     17  H   UNL     1       4.456   0.153   0.365  0.00  0.00    +0.154 HD
ENDROOT
BRANCH   1  19
ATOM     18  C   UNL     1       3.646  -6.492  -1.765  0.00  0.00    +0.279 C 
ATOM     19  O   UNL     1       4.737  -5.569  -1.763  0.00  0.00    -0.480 OA
ENDBRANCH   1  19
TORSDOF 1
