REMARK  Name = ZINC46902524
REMARK  8 active torsions:
REMARK  status: ('A' for Active; 'I' for Inactive)
REMARK    1  A    between atoms: C_1  and  C_2
REMARK    2  A    between atoms: C_2  and  C_3
REMARK    3  A    between atoms: N_12  and  C_13
REMARK    4  A    between atoms: C_19  and  O_21
REMARK    5  A    between atoms: O_21  and  C_22
REMARK    6  A    between atoms: C_22  and  C_23
REMARK    7  A    between atoms: C_22  and  C_24
REMARK    8  A    between atoms: C_22  and  C_25
REMARK                            x       y       z     vdW  Elec       q    Type
REMARK                         _______ _______ _______ _____ _____    ______ ____
ROOT
ATOM      1  C   UNL     1      -2.996   1.702   3.432  0.00  0.00    +0.077 C 
ATOM      2  C   UNL     1      -4.281   0.970   3.035  0.00  0.00    +0.041 C 
ATOM      3  C   UNL     1      -5.431   1.978   2.948  0.00  0.00    +0.113 C 
ATOM      4  N   UNL     1      -5.521   2.705   4.221  0.00  0.00    -0.267 N 
ATOM      5  C   UNL     1      -4.318   3.369   4.741  0.00  0.00    +0.113 C 
ATOM      6  C   UNL     1      -3.179   2.346   4.808  0.00  0.00    +0.041 C 
ATOM      7  C   UNL     1      -6.684   2.761   4.899  0.00  0.00    +0.403 C 
ATOM      8  O   UNL     1      -7.672   2.208   4.459  0.00  0.00    -0.226 OA
ENDROOT
BRANCH   1  17
ATOM      9  C   UNL     1       0.691  -0.610   1.228  0.00  0.00    +0.077 C 
ATOM     10  C   UNL     1       0.823  -2.123   1.022  0.00  0.00    +0.022 C 
ATOM     11  C   UNL     1       1.368  -2.762   2.301  0.00  0.00    +0.003 C 
ATOM     12  C   UNL     1       0.391  -2.515   3.453  0.00  0.00    +0.019 C 
ATOM     13  C   UNL     1       0.254  -1.008   3.687  0.00  0.00    +0.109 C 
ATOM     14  N   UNL     1      -0.128  -0.363   2.423  0.00  0.00    -0.283 N 
ATOM     15  C   UNL     1      -1.211   0.437   2.360  0.00  0.00    +0.303 C 
ATOM     16  O   UNL     1      -1.578   0.880   1.288  0.00  0.00    -0.253 OA
ATOM     17  N   UNL     1      -1.887   0.747   3.484  0.00  0.00    -0.296 N 
ATOM     18  H   UNL     1      -1.639   0.337   4.327  0.00  0.00    +0.151 HD
BRANCH   9  20
ATOM     19  C   UNL     1       0.873  -0.241  -1.236  0.00  0.00    +0.006 C 
ATOM     20  C   UNL     1       0.018   0.017   0.006  0.00  0.00    +0.019 C 
ENDBRANCH   9  20
ENDBRANCH   1  17
BRANCH   7  21
ATOM     21  O   UNL     1      -6.751   3.431   6.065  0.00  0.00    -0.445 OA
BRANCH  21  22
ATOM     22  C   UNL     1      -8.016   3.450   6.731  0.00  0.00    +0.107 C 
ATOM     23  C   UNL     1      -8.444   2.018   7.054  0.00  0.00    +0.055 C 
ATOM     24  C   UNL     1      -7.898   4.253   8.028  0.00  0.00    +0.055 C 
ATOM     25  C   UNL     1      -9.060   4.101   5.821  0.00  0.00    +0.055 C 
ENDBRANCH  21  22
ENDBRANCH   7  21
TORSDOF 4
